MODEL 2
REMARK VINA RESULT: -8.782291325      1.713      1.992
REMARK  8 active torsions:
REMARK  status: ('A' for Active; 'I' for Inactive)
REMARK    1  A    between atoms: C2_2  and  C3_3
REMARK    2  A    between atoms: C3_3  and  C4_5
REMARK    3  A    between atoms: C13_14  and  C15_16
REMARK    4  A    between atoms: C17_20  and  N1_21
REMARK       I    between atoms: N1_21  and  C18_23
REMARK    5  A    between atoms: C18_23  and  C19_25
REMARK    6  A    between atoms: C19_25  and  C20_26
REMARK    7  A    between atoms: C21_27  and  O5_29
REMARK    8  A    between atoms: C28_36  and  O6_37
ROOT
HETATM    1  C4  UNL     1      -0.867 -10.912  21.982  1.00  0.00     0.028 C
HETATM    2  C5  UNL     1      -0.729  -9.382  21.879  1.00  0.00     0.024 C
HETATM    3  C6  UNL     1       0.290 -11.509  21.145  1.00  0.00     0.026 C
HETATM    4  C7  UNL     1       0.810 -12.643  21.949  1.00  0.00     0.035 C
HETATM    5  C8  UNL     1       2.039 -13.271  21.467  1.00  0.00    -0.030 C
HETATM    6  C9  UNL     1       1.548 -14.306  20.412  1.00  0.00     0.016 C
HETATM    7  C10 UNL     1       2.643 -12.192  20.569  1.00  0.00     0.010 C
HETATM    8  C11 UNL     1       3.863 -12.655  19.817  1.00  0.00     0.002 C
HETATM    9  C12 UNL     1       4.823 -13.034  20.854  1.00  0.00     0.020 C
HETATM   10  C13 UNL     1       4.336 -14.148  21.761  1.00  0.00     0.051 C
HETATM   11  C14 UNL     1       4.455 -15.414  20.888  1.00  0.00     0.027 C
HETATM   12  C16 UNL     1       2.977 -13.993  22.353  1.00  0.00     0.036 C
HETATM   13  C17 UNL     1       2.908 -13.915  23.832  1.00  0.00     0.094 C
HETATM   14  C23 UNL     1       1.543 -14.257  24.452  1.00  0.00     0.062 C
HETATM   15  C24 UNL     1       0.515 -13.271  24.172  1.00  0.00    -0.047 A
HETATM   16  C25 UNL     1      -0.717 -13.311  24.603  1.00  0.00    -0.020 A
HETATM   17  C26 UNL     1      -1.510 -12.139  24.120  1.00  0.00     0.036 A
HETATM   18  C27 UNL     1      -0.544 -11.321  23.353  1.00  0.00     0.044 A
HETATM   19  C28 UNL     1       0.766 -12.077  23.316  1.00  0.00     0.090 A
ENDROOT
BRANCH  13  20
HETATM   20  N1  UNL     1       3.589 -15.109  24.416  1.00  0.00    -0.355 N
HETATM   21  C18 UNL     1       3.126 -16.420  24.211  1.00  0.00     0.221 C
HETATM   22  O4  UNL     1       2.084 -16.580  23.496  1.00  0.00    -0.273 OA
ATOM     23  H1  UNL     1       4.423 -14.968  24.986  1.00  0.00     0.162 HD
BRANCH  21  24
HETATM   24  C19 UNL     1       3.775 -17.616  24.774  1.00  0.00     0.133 C
BRANCH  24  25
HETATM   25  C20 UNL     1       4.919 -18.085  24.006  1.00  0.00     0.035 C
HETATM   26  C21 UNL     1       5.197 -19.367  23.936  1.00  0.00     0.148 C
HETATM   27  N2  UNL     1       4.379 -20.301  24.609  1.00  0.00    -0.075 NA
BRANCH  26  28
HETATM   28  O5  UNL     1       6.296 -19.836  23.200  1.00  0.00    -0.343 OA
HETATM   29  C22 UNL     1       7.601 -19.839  23.784  1.00  0.00     0.211 C
ENDBRANCH  26  28
ENDBRANCH  24  25
ENDBRANCH  21  24
ENDBRANCH  13  20
BRANCH  10  30
HETATM   30  C15 UNL     1       5.507 -14.238  22.667  1.00  0.00     0.181 C
HETATM   31  O2  UNL     1       6.198 -15.267  22.863  1.00  0.00    -0.647 OA
HETATM   32  O3  UNL     1       5.896 -13.086  23.371  1.00  0.00    -0.647 OA
ENDBRANCH  10  30
BRANCH  19  33
HETATM   33  O6  UNL     1       1.815 -11.372  23.776  1.00  0.00    -0.384 OA
ATOM     34  H6  UNL     1       2.010 -11.374  24.706  1.00  0.00     0.211 HD
ENDBRANCH  19  33
BRANCH   1  35
HETATM   35  C3  UNL     1      -2.165 -11.295  21.422  1.00  0.00     0.157 C
HETATM   36  O1  UNL     1      -3.229 -10.621  21.715  1.00  0.00    -0.292 OA
BRANCH  35  37
HETATM   37  C2  UNL     1      -2.386 -12.409  20.528  1.00  0.00     0.041 C
HETATM   38  C1  UNL     1      -2.660 -13.644  20.830  1.00  0.00     0.015 C
ENDBRANCH  35  37
ENDBRANCH   1  35
TORSDOF 8
ENDMDL