MODEL 1
REMARK VINA RESULT: -8.047527769      0.000      0.000
REMARK  11 active torsions:
REMARK  status: ('A' for Active; 'I' for Inactive)
REMARK    1  A    between atoms: C9_9  and  C10_10
REMARK    2  A    between atoms: C10_10  and  C11_12
REMARK    3  A    between atoms: C12_14  and  C13_15
REMARK    4  A    between atoms: C12_14  and  C15_19
REMARK    5  A    between atoms: C13_15  and  C14_16
REMARK    6  A    between atoms: C14_16  and  O3_17
REMARK    7  A    between atoms: C17_23  and  O6_24
REMARK    8  A    between atoms: C18_26  and  C19_27
REMARK    9  A    between atoms: C19_27  and  C20_28
REMARK   10  A    between atoms: C20_28  and  N1_29
REMARK   11  A    between atoms: N1_29  and  C21_32
ROOT
HETATM    1  C11 UNL     1       1.904 -12.311  23.089  1.00  0.00     0.101 C
HETATM    2  O2  UNL     1       0.651 -11.899  23.440  1.00  0.00    -0.329 OA
HETATM    3  C12 UNL     1       0.437 -10.596  23.805  1.00  0.00     0.159 C
HETATM    4  C16 UNL     1       1.480 -10.026  24.751  1.00  0.00     0.082 C
HETATM    5  C17 UNL     1       2.355 -11.209  25.196  1.00  0.00     0.132 C
HETATM    6  C18 UNL     1       2.972 -11.693  23.860  1.00  0.00     0.077 C
ENDROOT
BRANCH   6   7
HETATM    7  C19 UNL     1       4.159 -12.530  24.237  1.00  0.00     0.041 C
BRANCH   7   8
HETATM    8  C20 UNL     1       3.911 -14.002  24.335  1.00  0.00     0.234 C
BRANCH   8   9
HETATM    9  N1  UNL     1       4.987 -14.730  23.679  1.00  0.00    -0.066 N
ATOM     10  H12 UNL     1       4.947 -14.597  22.668  1.00  0.00     0.278 HD
ATOM     11  H11 UNL     1       5.888 -14.292  23.873  1.00  0.00     0.278 HD
BRANCH   9  12
HETATM   12  C21 UNL     1       5.023 -16.109  23.999  1.00  0.00     0.130 C
HETATM   13  C22 UNL     1       6.344 -16.834  23.897  1.00  0.00     0.043 C
HETATM   14  C23 UNL     1       5.914 -18.189  23.385  1.00  0.00    -0.011 C
HETATM   15  C24 UNL     1       5.008 -18.808  24.418  1.00  0.00     0.010 C
HETATM   16  C28 UNL     1       4.882 -17.763  22.329  1.00  0.00     0.012 C
HETATM   17  C25 UNL     1       3.874 -17.779  24.474  1.00  0.00    -0.005 C
HETATM   18  C26 UNL     1       4.307 -16.534  25.266  1.00  0.00     0.044 C
HETATM   19  C27 UNL     1       4.001 -16.948  23.247  1.00  0.00     0.026 C
ENDBRANCH   9  12
ENDBRANCH   8   9
ENDBRANCH   7   8
ENDBRANCH   6   7
BRANCH   1  20
HETATM   20  C10 UNL     1       2.034 -12.490  21.637  1.00  0.00     0.183 C
HETATM   21  O1  UNL     1       2.774 -11.669  21.058  1.00  0.00    -0.290 OA
BRANCH  20  22
HETATM   22  C9  UNL     1       1.437 -13.479  20.756  1.00  0.00     0.071 C
HETATM   23  C7  UNL     1       2.127 -14.852  20.860  1.00  0.00    -0.026 C
HETATM   24  C2  UNL     1       1.190 -15.598  19.888  1.00  0.00    -0.036 C
HETATM   25  C6  UNL     1       1.802 -15.565  22.130  1.00  0.00     0.011 C
HETATM   26  C8  UNL     1       3.526 -14.847  20.443  1.00  0.00     0.016 C
HETATM   27  C1  UNL     1       1.555 -17.059  19.792  1.00  0.00     0.016 C
HETATM   28  C3  UNL     1       1.112 -14.982  18.545  1.00  0.00     0.016 C
HETATM   29  C4  UNL     1      -0.059 -15.393  20.747  1.00  0.00    -0.005 C
HETATM   30  C5  UNL     1       0.402 -16.184  21.962  1.00  0.00     0.006 C
HETATM   31  C29 UNL     1       0.032 -13.923  21.099  1.00  0.00     0.018 C
ENDBRANCH  20  22
ENDBRANCH   1  20
BRANCH   5  32
HETATM   32  O6  UNL     1       3.337 -10.766  26.047  1.00  0.00    -0.395 OA
ATOM     33  H6  UNL     1       3.333  -9.816  26.075  1.00  0.00     0.210 HD
ENDBRANCH   5  32
BRANCH   3  34
HETATM   34  C13 UNL     1       0.418  -9.743  22.571  1.00  0.00     0.076 C
BRANCH  34  35
HETATM   35  C14 UNL     1      -0.637 -10.106  21.559  1.00  0.00     0.167 C
BRANCH  35  36
HETATM   36  O3  UNL     1      -1.001  -8.936  20.833  1.00  0.00    -0.401 OA
ATOM     37  H3  UNL     1      -1.512  -9.192  20.073  1.00  0.00     0.209 HD
ENDBRANCH  35  36
ENDBRANCH  34  35
ENDBRANCH   3  34
BRANCH   3  38
HETATM   38  C15 UNL     1      -0.921 -10.521  24.439  1.00  0.00     0.210 C
HETATM   39  O4  UNL     1      -1.768 -11.437  24.425  1.00  0.00    -0.646 OA
HETATM   40  O5  UNL     1      -1.269  -9.353  25.090  1.00  0.00    -0.646 OA
ENDBRANCH   3  38
TORSDOF 11
ENDMDL