MODEL 2
REMARK VINA RESULT: -9.292301250      1.293      2.614
REMARK  11 active torsions:
REMARK  status: ('A' for Active; 'I' for Inactive)
REMARK    1  A    between atoms: C2_2  and  C3_3
REMARK    2  A    between atoms: C3_3  and  C4_4
REMARK    3  A    between atoms: C4_4  and  C5_5
REMARK    4  A    between atoms: C5_5  and  C6_6
REMARK    5  A    between atoms: C6_6  and  C7_7
REMARK    6  A    between atoms: C7_7  and  C8_8
REMARK    7  A    between atoms: C8_8  and  N1_9
REMARK       I    between atoms: N1_9  and  C9_11
REMARK    8  A    between atoms: C9_11  and  C10_13
REMARK    9  A    between atoms: C16_19  and  O2_20
REMARK   10  A    between atoms: C20_25  and  O3_26
REMARK   11  A    between atoms: C21_28  and  O4_29
ROOT
HETATM    1  C10 UNL     1       4.024 -16.770  23.425  1.00  0.00     0.083 C
HETATM    2  C11 UNL     1       5.409 -16.155  23.295  1.00  0.00     0.015 C
HETATM    3  C12 UNL     1       5.356 -14.640  23.202  1.00  0.00     0.011 C
HETATM    4  C13 UNL     1       4.533 -14.143  22.071  1.00  0.00    -0.029 A
HETATM    5  C14 UNL     1       5.216 -13.994  20.749  1.00  0.00     0.016 C
HETATM    6  C15 UNL     1       3.212 -13.517  22.287  1.00  0.00     0.033 A
HETATM    7  C16 UNL     1       2.473 -12.763  21.259  1.00  0.00     0.126 C
HETATM    8  C17 UNL     1       1.445 -11.815  21.893  1.00  0.00     0.071 C
HETATM    9  C18 UNL     1       0.124 -12.469  22.115  1.00  0.00     0.073 A
HETATM   10  C19 UNL     1      -0.977 -11.687  21.440  1.00  0.00     0.073 C
HETATM   11  C20 UNL     1      -2.334 -12.286  21.665  1.00  0.00     0.149 C
HETATM   12  C21 UNL     1      -2.626 -12.526  23.111  1.00  0.00     0.147 C
HETATM   13  C22 UNL     1      -1.492 -12.067  23.963  1.00  0.00     0.045 C
HETATM   14  C23 UNL     1      -0.183 -12.682  23.600  1.00  0.00     0.059 A
HETATM   15  C24 UNL     1      -0.198 -14.167  23.298  1.00  0.00     0.199 A
HETATM   16  O5  UNL     1       0.058 -13.839  21.971  1.00  0.00    -0.366 OA
HETATM   17  C25 UNL     1       0.868 -14.841  24.036  1.00  0.00     0.156 C
HETATM   18  O6  UNL     1       1.184 -14.373  25.136  1.00  0.00    -0.295 OA
HETATM   19  C26 UNL     1       1.613 -16.048  23.579  1.00  0.00     0.087 C
HETATM   20  C27 UNL     1       3.055 -15.642  23.458  1.00  0.00     0.015 C
HETATM   21  C28 UNL     1       3.204 -14.943  22.112  1.00  0.00    -0.025 A
HETATM   22  C29 UNL     1       2.981 -15.739  20.910  1.00  0.00     0.017 C
ENDROOT
BRANCH   1  23
HETATM   23  C9  UNL     1       3.927 -17.673  24.589  1.00  0.00     0.222 C
HETATM   24  N1  UNL     1       3.559 -19.018  24.449  1.00  0.00    -0.361 N
ATOM     25  H1  UNL     1       3.358 -19.365  23.511  1.00  0.00     0.162 HD
HETATM   26  O1  UNL     1       4.185 -17.205  25.724  1.00  0.00    -0.273 OA
BRANCH  24  27
HETATM   27  C8  UNL     1       3.448 -19.939  25.548  1.00  0.00     0.122 C
BRANCH  27  28
HETATM   28  C7  UNL     1       3.227 -21.360  25.152  1.00  0.00     0.020 C
BRANCH  28  29
HETATM   29  C6  UNL     1       2.118 -21.935  26.003  1.00  0.00     0.002 C
BRANCH  29  30
HETATM   30  C5  UNL     1       0.917 -21.052  25.894  1.00  0.00     0.000 C
BRANCH  30  31
HETATM   31  C4  UNL     1       0.062 -21.055  27.134  1.00  0.00     0.000 C
BRANCH  31  32
HETATM   32  C3  UNL     1       0.860 -21.425  28.365  1.00  0.00    -0.000 C
BRANCH  32  33
HETATM   33  C2  UNL     1       0.857 -20.266  29.317  1.00  0.00    -0.005 C
HETATM   34  C1  UNL     1      -0.461 -20.153  30.032  1.00  0.00     0.005 C
ENDBRANCH  32  33
ENDBRANCH  31  32
ENDBRANCH  30  31
ENDBRANCH  29  30
ENDBRANCH  28  29
ENDBRANCH  27  28
ENDBRANCH  24  27
ENDBRANCH   1  23
BRANCH   7  35
HETATM   35  O2  UNL     1       3.404 -12.016  20.509  1.00  0.00    -0.395 OA
ATOM     36  H2  UNL     1       2.976 -11.220  20.216  1.00  0.00     0.210 HD
ENDBRANCH   7  35
BRANCH  12  37
HETATM   37  O4  UNL     1      -3.782 -11.821  23.520  1.00  0.00    -0.393 OA
ATOM     38  H4  UNL     1      -3.560 -11.127  24.131  1.00  0.00     0.210 HD
ENDBRANCH  12  37
BRANCH  11  39
HETATM   39  O3  UNL     1      -3.290 -11.402  21.164  1.00  0.00    -0.393 OA
ATOM     40  H3  UNL     1      -3.946 -11.262  21.836  1.00  0.00     0.210 HD
ENDBRANCH  11  39
TORSDOF 11
ENDMDL