MODEL 3
REMARK VINA RESULT: -7.913456894      8.287     11.698
REMARK  11 active torsions:
REMARK  status: ('A' for Active; 'I' for Inactive)
REMARK    1  A    between atoms: C2_2  and  C3_3
REMARK    2  A    between atoms: C3_3  and  C4_4
REMARK    3  A    between atoms: C4_4  and  C5_5
REMARK    4  A    between atoms: C5_5  and  S1_6
REMARK    5  A    between atoms: S1_6  and  N1_9
REMARK    6  A    between atoms: N1_9  and  C6_11
REMARK    7  A    between atoms: C14_20  and  C15_21
REMARK    8  A    between atoms: C15_21  and  O4_22
REMARK    9  A    between atoms: C15_21  and  C16_24
REMARK   10  A    between atoms: C16_24  and  O5_25
REMARK   11  A    between atoms: C22_32  and  O6_33
ROOT
HETATM    1  C6  UNL     1      -3.117 -22.700  22.291  1.00  0.00     0.103 C
HETATM    2  C7  UNL     1      -1.601 -22.603  22.539  1.00  0.00     0.059 C
HETATM    3  C8  UNL     1      -1.468 -23.115  23.975  1.00  0.00     0.132 C
HETATM    4  O3  UNL     1      -0.240 -22.750  24.432  1.00  0.00    -0.374 OA
HETATM    5  C9  UNL     1       0.000 -22.996  25.766  1.00  0.00     0.062 C
HETATM    6  C10 UNL     1      -0.287 -24.426  26.102  1.00  0.00     0.046 C
HETATM    7  C11 UNL     1       1.501 -22.763  25.984  1.00  0.00     0.038 C
HETATM    8  C12 UNL     1       1.933 -23.091  27.373  1.00  0.00     0.008 C
HETATM    9  C13 UNL     1       0.904 -22.633  28.338  1.00  0.00    -0.003 C
HETATM   10  C14 UNL     1       1.463 -21.959  29.569  1.00  0.00     0.021 C
HETATM   11  C17 UNL     1       0.379 -20.993  29.993  1.00  0.00     0.008 C
HETATM   12  C18 UNL     1      -0.656 -20.987  28.887  1.00  0.00     0.006 C
HETATM   13  C19 UNL     1       0.125 -21.500  27.704  1.00  0.00    -0.003 C
HETATM   14  C20 UNL     1      -0.786 -22.014  26.596  1.00  0.00     0.027 C
HETATM   15  C21 UNL     1      -1.120 -20.833  25.725  1.00  0.00     0.040 C
HETATM   16  C22 UNL     1      -2.348 -21.029  24.891  1.00  0.00     0.126 C
HETATM   17  C23 UNL     1      -2.643 -22.473  24.670  1.00  0.00     0.053 C
HETATM   18  C24 UNL     1      -3.723 -22.723  23.646  1.00  0.00    -0.018 C
HETATM   19  C25 UNL     1      -4.288 -24.117  23.944  1.00  0.00     0.017 C
HETATM   20  C26 UNL     1      -4.855 -21.749  23.736  1.00  0.00     0.017 C
ENDROOT
BRANCH   1  21
HETATM   21  N1  UNL     1      -3.365 -23.915  21.540  1.00  0.00    -0.314 N
ATOM     22  H1  UNL     1      -2.936 -24.809  21.782  1.00  0.00     0.172 HD
BRANCH  21  23
HETATM   23  S1  UNL     1      -4.427 -23.734  20.226  1.00  0.00     0.226 S
HETATM   24  O1  UNL     1      -4.012 -24.693  19.144  1.00  0.00    -0.206 OA
HETATM   25  O2  UNL     1      -5.811 -24.077  20.693  1.00  0.00    -0.206 OA
BRANCH  23  26
HETATM   26  C5  UNL     1      -4.421 -22.091  19.520  1.00  0.00     0.163 C
BRANCH  26  27
HETATM   27  C4  UNL     1      -5.792 -21.562  19.342  1.00  0.00     0.017 C
BRANCH  27  28
HETATM   28  C3  UNL     1      -6.487 -21.805  18.055  1.00  0.00     0.001 C
BRANCH  28  29
HETATM   29  C2  UNL     1      -5.742 -22.473  16.954  1.00  0.00    -0.005 C
HETATM   30  C1  UNL     1      -6.172 -22.134  15.568  1.00  0.00     0.005 C
ENDBRANCH  28  29
ENDBRANCH  27  28
ENDBRANCH  26  27
ENDBRANCH  23  26
ENDBRANCH  21  23
ENDBRANCH   1  21
BRANCH  16  31
HETATM   31  O6  UNL     1      -3.374 -20.327  25.512  1.00  0.00    -0.395 OA
ATOM     32  H6  UNL     1      -3.854 -20.952  26.042  1.00  0.00     0.210 HD
ENDBRANCH  16  31
BRANCH  10  33
HETATM   33  C15 UNL     1       1.589 -23.032  30.651  1.00  0.00     0.146 C
BRANCH  33  34
HETATM   34  O4  UNL     1       2.923 -23.392  30.841  1.00  0.00    -0.393 OA
ATOM     35  H4  UNL     1       3.112 -24.223  30.420  1.00  0.00     0.210 HD
ENDBRANCH  33  34
BRANCH  33  36
HETATM   36  C16 UNL     1       1.054 -22.537  31.972  1.00  0.00     0.196 C
BRANCH  36  37
HETATM   37  O5  UNL     1       0.917 -23.575  32.892  1.00  0.00    -0.398 OA
ATOM     38  H5  UNL     1       1.158 -23.301  33.769  1.00  0.00     0.209 HD
ENDBRANCH  36  37
ENDBRANCH  33  36
ENDBRANCH  10  33
TORSDOF 11
ENDMDL