MODEL 4
REMARK VINA RESULT: -7.733133238      1.787      2.870
REMARK  11 active torsions:
REMARK  status: ('A' for Active; 'I' for Inactive)
REMARK    1  A    between atoms: C2_2  and  S1_4
REMARK    2  A    between atoms: S1_4  and  O3_7
REMARK    3  A    between atoms: O3_7  and  C4_8
REMARK    4  A    between atoms: C14_18  and  O4_19
REMARK    5  A    between atoms: C18_24  and  O5_25
REMARK    6  A    between atoms: C19_27  and  N1_28
REMARK    7  A    between atoms: N1_28  and  C20_30
REMARK    8  A    between atoms: C20_30  and  C21_31
REMARK    9  A    between atoms: C21_31  and  C22_32
REMARK   10  A    between atoms: C22_32  and  C23_33
REMARK   11  A    between atoms: C23_33  and  N2_34
ROOT
HETATM    1  C4  UNL     1      -0.075 -11.543  23.604  1.00  0.00     0.146 C
HETATM    2  C5  UNL     1      -0.153 -12.927  24.248  1.00  0.00     0.034 C
HETATM    3  C6  UNL     1       1.167 -13.298  24.900  1.00  0.00     0.012 C
HETATM    4  C7  UNL     1       2.223 -13.219  23.839  1.00  0.00     0.019 C
HETATM    5  C8  UNL     1       1.641 -12.857  22.535  1.00  0.00    -0.077 C
HETATM    6  C9  UNL     1       1.710 -13.649  21.494  1.00  0.00    -0.023 C
HETATM    7  C10 UNL     1       2.360 -14.986  21.477  1.00  0.00     0.033 C
HETATM    8  C11 UNL     1       2.595 -15.461  22.892  1.00  0.00    -0.001 C
HETATM    9  C12 UNL     1       3.130 -14.388  23.762  1.00  0.00     0.001 C
HETATM   10  C13 UNL     1       4.424 -13.867  23.141  1.00  0.00     0.037 C
HETATM   11  C14 UNL     1       5.578 -14.793  23.448  1.00  0.00     0.119 C
HETATM   12  C15 UNL     1       5.613 -15.865  22.433  1.00  0.00     0.044 C
HETATM   13  C16 UNL     1       4.630 -16.924  22.383  1.00  0.00    -0.010 C
HETATM   14  C17 UNL     1       4.566 -17.398  20.914  1.00  0.00     0.018 C
HETATM   15  C18 UNL     1       5.190 -18.145  23.157  1.00  0.00     0.149 C
HETATM   16  C19 UNL     1       4.034 -18.719  23.881  1.00  0.00     0.106 C
HETATM   17  C24 UNL     1       3.145 -17.536  24.219  1.00  0.00     0.033 C
HETATM   18  C25 UNL     1       3.273 -16.770  22.888  1.00  0.00     0.003 C
HETATM   19  C26 UNL     1       0.957 -11.522  22.500  1.00  0.00     0.067 C
ENDROOT
BRANCH  16  20
HETATM   20  N1  UNL     1       4.349 -19.565  24.927  1.00  0.00    -0.415 N
ATOM     21  H1  UNL     1       4.953 -19.205  25.666  1.00  0.00     0.153 HD
BRANCH  20  22
HETATM   22  C20 UNL     1       3.894 -20.877  25.039  1.00  0.00     0.114 C
BRANCH  22  23
HETATM   23  C21 UNL     1       2.555 -20.821  25.809  1.00  0.00     0.021 C
BRANCH  23  24
HETATM   24  C22 UNL     1       2.082 -22.206  26.157  1.00  0.00     0.029 C
BRANCH  24  25
HETATM   25  C23 UNL     1       1.240 -22.239  27.411  1.00  0.00     0.229 C
BRANCH  25  26
HETATM   26  N2  UNL     1       0.977 -20.862  27.810  1.00  0.00    -0.079 N
ATOM     27  H23 UNL     1       1.753 -20.444  28.325  1.00  0.00     0.274 HD
ATOM     28  H22 UNL     1       0.975 -20.216  27.021  1.00  0.00     0.274 HD
ATOM     29  H21 UNL     1       0.102 -20.849  28.334  1.00  0.00     0.274 HD
ENDBRANCH  25  26
ENDBRANCH  24  25
ENDBRANCH  23  24
ENDBRANCH  22  23
ENDBRANCH  20  22
ENDBRANCH  16  20
BRANCH  15  30
HETATM   30  O5  UNL     1       6.296 -17.806  23.875  1.00  0.00    -0.393 OA
ATOM     31  H5  UNL     1       6.071 -17.606  24.775  1.00  0.00     0.210 HD
ENDBRANCH  15  30
BRANCH  11  32
HETATM   32  O4  UNL     1       5.661 -15.146  24.762  1.00  0.00    -0.396 OA
ATOM     33  H4  UNL     1       6.494 -15.536  25.000  1.00  0.00     0.210 HD
ENDBRANCH  11  32
BRANCH   1  34
HETATM   34  O3  UNL     1      -1.294 -11.067  23.234  1.00  0.00    -0.270 OA
BRANCH  34  35
HETATM   35  S1  UNL     1      -1.408  -9.776  22.251  1.00  0.00     0.269 S
HETATM   36  O1  UNL     1      -1.519 -10.110  20.789  1.00  0.00    -0.198 OA
HETATM   37  O2  UNL     1      -2.723  -9.066  22.579  1.00  0.00    -0.198 OA
BRANCH  35  38
HETATM   38  C2  UNL     1      -0.142  -8.560  22.544  1.00  0.00     0.128 C
HETATM   39  C1  UNL     1      -0.215  -7.469  21.460  1.00  0.00     0.028 C
HETATM   40  C3  UNL     1      -0.423  -7.860  23.853  1.00  0.00     0.028 C
ENDBRANCH  35  38
ENDBRANCH  34  35
ENDBRANCH   1  34
TORSDOF 11
ENDMDL