MODEL 1
REMARK VINA RESULT: -10.614121836      0.000      0.000
REMARK  12 active torsions:
REMARK  status: ('A' for Active; 'I' for Inactive)
REMARK    1  A    between atoms: C4_4  and  C5_5
REMARK    2  A    between atoms: C5_5  and  C6_6
REMARK    3  A    between atoms: C5_5  and  C8_12
REMARK       I    between atoms: N1_7  and  C7_9
REMARK    4  A    between atoms: C14_18  and  C15_19
REMARK    5  A    between atoms: C15_19  and  C16_20
REMARK    6  A    between atoms: C15_19  and  O3_26
REMARK    7  A    between atoms: C16_20  and  C17_21
REMARK    8  A    between atoms: C17_21  and  C18_22
REMARK    9  A    between atoms: C18_22  and  O2_24
REMARK   10  A    between atoms: O3_26  and  C20_27
REMARK   11  A    between atoms: C22_31  and  O5_32
REMARK   12  A    between atoms: C24_35  and  O6_36
ROOT
HETATM    1  C8  UNL     1       3.533 -16.638  23.414  1.00  0.00     0.021 C
HETATM    2  C9  UNL     1       3.019 -15.575  24.307  1.00  0.00    -0.018 C
HETATM    3  C10 UNL     1       1.846 -15.025  24.034  1.00  0.00    -0.072 C
HETATM    4  C11 UNL     1       1.363 -13.943  24.976  1.00  0.00     0.035 C
HETATM    5  C12 UNL     1       1.056 -12.685  24.113  1.00  0.00     0.012 C
HETATM    6  C13 UNL     1      -0.045 -13.105  23.174  1.00  0.00     0.028 C
HETATM    7  C14 UNL     1      -0.964 -12.109  22.673  1.00  0.00     0.025 C
HETATM    8  C21 UNL     1      -1.416 -12.322  21.233  1.00  0.00     0.039 C
HETATM    9  C22 UNL     1      -1.715 -13.830  21.148  1.00  0.00     0.121 C
HETATM   10  C23 UNL     1      -0.368 -14.499  21.091  1.00  0.00     0.071 C
HETATM   11  C24 UNL     1       0.565 -14.071  22.178  1.00  0.00     0.075 C
HETATM   12  C25 UNL     1       0.964 -15.365  22.906  1.00  0.00     0.011 C
HETATM   13  C26 UNL     1      -0.212 -16.128  23.426  1.00  0.00     0.023 C
HETATM   14  C27 UNL     1       1.637 -16.207  21.843  1.00  0.00     0.017 C
HETATM   15  C28 UNL     1       3.138 -16.277  22.014  1.00  0.00     0.010 C
ENDROOT
BRANCH   1  16
HETATM   16  C5  UNL     1       5.060 -16.738  23.442  1.00  0.00     0.054 C
BRANCH  16  17
HETATM   17  C4  UNL     1       5.528 -18.099  23.350  1.00  0.00    -0.014 C
HETATM   18  C2  UNL     1       5.103 -19.152  23.973  1.00  0.00    -0.091 C
HETATM   19  C1  UNL     1       4.009 -19.234  24.959  1.00  0.00     0.042 C
HETATM   20  C3  UNL     1       5.847 -20.454  23.624  1.00  0.00     0.042 C
ENDBRANCH  16  17
BRANCH  16  21
HETATM   21  C6  UNL     1       5.562 -15.721  22.525  1.00  0.00     0.074 C
HETATM   22  N1  UNL     1       5.356 -14.447  22.677  1.00  0.00    -0.324 N
HETATM   23  C7  UNL     1       5.851 -13.479  21.777  1.00  0.00     0.332 C
ATOM     24  H1  UNL     1       4.812 -14.134  23.481  1.00  0.00     0.169 HD
HETATM   25  N2  UNL     1       6.426 -13.841  20.537  1.00  0.00    -0.040 NA
HETATM   26  O1  UNL     1       5.780 -12.272  22.084  1.00  0.00    -0.251 OA
ENDBRANCH  16  21
ENDBRANCH   1  16
BRANCH  11  27
HETATM   27  O6  UNL     1       1.749 -13.604  21.614  1.00  0.00    -0.388 OA
ATOM     28  H6  UNL     1       2.170 -14.239  21.046  1.00  0.00     0.210 HD
ENDBRANCH  11  27
BRANCH   7  29
HETATM   29  C15 UNL     1      -0.636 -10.620  22.774  1.00  0.00     0.138 C
BRANCH  29  30
HETATM   30  C16 UNL     1      -1.169  -9.809  21.691  1.00  0.00     0.035 C
BRANCH  30  31
HETATM   31  C17 UNL     1      -0.285  -8.899  20.903  1.00  0.00     0.034 C
BRANCH  31  32
HETATM   32  C18 UNL     1      -0.343  -7.448  21.245  1.00  0.00     0.114 C
HETATM   33  C19 UNL     1      -0.661  -6.645  19.980  1.00  0.00     0.039 C
BRANCH  32  34
HETATM   34  O2  UNL     1      -1.416  -7.307  22.159  1.00  0.00    -0.396 OA
ATOM     35  H2  UNL     1      -1.026  -7.333  23.025  1.00  0.00     0.210 HD
ENDBRANCH  32  34
ENDBRANCH  31  32
ENDBRANCH  30  31
ENDBRANCH  29  30
BRANCH  29  36
HETATM   36  O3  UNL     1      -1.161 -10.285  24.042  1.00  0.00    -0.301 OA
BRANCH  36  37
HETATM   37  C20 UNL     1      -0.800  -9.092  24.698  1.00  0.00     0.373 C
HETATM   38  N3  UNL     1       0.481  -8.972  25.254  1.00  0.00    -0.032 NA
HETATM   39  O4  UNL     1      -1.678  -8.200  24.736  1.00  0.00    -0.242 OA
ENDBRANCH  36  37
ENDBRANCH  29  36
ENDBRANCH   7  29
BRANCH   9  40
HETATM   40  O5  UNL     1      -2.440 -14.006  19.979  1.00  0.00    -0.395 OA
ATOM     41  H5  UNL     1      -1.797 -14.111  19.289  1.00  0.00     0.210 HD
ENDBRANCH   9  40
TORSDOF 12
ENDMDL