MODEL 4
REMARK VINA RESULT: -8.612855953      1.454      2.496
REMARK  12 active torsions:
REMARK  status: ('A' for Active; 'I' for Inactive)
REMARK    1  A    between atoms: C2_2  and  C3_3
REMARK    2  A    between atoms: C3_3  and  O1_4
REMARK    3  A    between atoms: C3_3  and  C4_6
REMARK    4  A    between atoms: C4_6  and  N1_7
REMARK    5  A    between atoms: C4_6  and  C27_39
REMARK       I    between atoms: N1_7  and  C5_9
REMARK    6  A    between atoms: C5_9  and  C6_11
REMARK    7  A    between atoms: C6_11  and  C7_12
REMARK    8  A    between atoms: C22_27  and  O3_28
REMARK    9  A    between atoms: C22_27  and  C23_30
REMARK   10  A    between atoms: C23_30  and  O4_31
REMARK   11  A    between atoms: C23_30  and  C24_33
REMARK   12  A    between atoms: C24_33  and  O5_34
ROOT
HETATM    1  C7  UNL     1       3.980 -15.681  21.082  1.00  0.00     0.131 C
HETATM    2  C8  UNL     1       2.849 -16.713  21.245  1.00  0.00     0.040 C
HETATM    3  C9  UNL     1       1.852 -15.856  21.882  1.00  0.00     0.023 C
HETATM    4  C10 UNL     1       0.427 -16.099  21.876  1.00  0.00     0.008 C
HETATM    5  C11 UNL     1      -0.149 -15.167  22.967  1.00  0.00     0.010 C
HETATM    6  C12 UNL     1       0.415 -13.752  22.837  1.00  0.00    -0.033 C
HETATM    7  C13 UNL     1       1.305 -13.521  24.019  1.00  0.00     0.016 C
HETATM    8  C14 UNL     1       1.129 -13.536  21.546  1.00  0.00     0.029 C
HETATM    9  C15 UNL     1       1.635 -12.146  21.445  1.00  0.00     0.009 C
HETATM   10  C16 UNL     1       0.861 -11.110  22.215  1.00  0.00     0.013 C
HETATM   11  C17 UNL     1      -0.583 -11.446  22.355  1.00  0.00    -0.006 C
HETATM   12  C18 UNL     1      -1.137 -11.379  20.919  1.00  0.00     0.019 C
HETATM   13  C19 UNL     1      -0.818 -12.858  22.836  1.00  0.00     0.005 C
HETATM   14  C20 UNL     1      -1.491 -12.785  24.161  1.00  0.00     0.009 C
HETATM   15  C21 UNL     1      -2.288 -11.499  24.061  1.00  0.00     0.042 C
HETATM   16  C22 UNL     1      -1.419 -10.585  23.203  1.00  0.00     0.093 C
HETATM   17  C25 UNL     1       2.092 -14.564  21.096  1.00  0.00     0.066 C
HETATM   18  C26 UNL     1       1.986 -14.800  19.608  1.00  0.00     0.047 C
HETATM   19  O6  UNL     1       3.418 -14.422  21.388  1.00  0.00    -0.374 OA
ENDROOT
BRANCH   1  20
HETATM   20  C6  UNL     1       5.026 -16.054  22.121  1.00  0.00     0.135 C
BRANCH  20  21
HETATM   21  C5  UNL     1       5.006 -17.514  22.328  1.00  0.00     0.224 C
HETATM   22  N1  UNL     1       5.112 -18.114  23.608  1.00  0.00    -0.328 N
ATOM     23  H1  UNL     1       5.207 -17.510  24.424  1.00  0.00     0.168 HD
HETATM   24  O2  UNL     1       4.891 -18.271  21.336  1.00  0.00    -0.273 OA
BRANCH  22  25
HETATM   25  C4  UNL     1       5.091 -19.562  23.809  1.00  0.00     0.048 C
BRANCH  25  26
HETATM   26  C3  UNL     1       4.061 -19.910  24.773  1.00  0.00     0.087 C
BRANCH  26  27
HETATM   27  C2  UNL     1       3.418 -21.126  25.141  1.00  0.00     0.028 C
HETATM   28  C1  UNL     1       3.725 -22.372  25.006  1.00  0.00     0.014 C
ENDBRANCH  26  27
BRANCH  26  29
HETATM   29  O1  UNL     1       3.641 -18.840  25.453  1.00  0.00    -0.359 OA
ATOM     30  H1  UNL     1       4.102 -18.692  26.270  1.00  0.00     0.217 HD
ENDBRANCH  26  29
ENDBRANCH  25  26
BRANCH  25  31
HETATM   31  C27 UNL     1       6.394 -20.240  23.766  1.00  0.00     0.030 C
HETATM   32  C28 UNL     1       6.741 -20.795  22.396  1.00  0.00     0.016 C
HETATM   33  C29 UNL     1       7.539 -19.289  24.151  1.00  0.00     0.016 C
ENDBRANCH  25  31
ENDBRANCH  22  25
ENDBRANCH  20  21
ENDBRANCH   1  20
BRANCH  16  34
HETATM   34  O3  UNL     1      -2.379  -9.858  22.424  1.00  0.00    -0.386 OA
ATOM     35  H3  UNL     1      -2.730 -10.391  21.721  1.00  0.00     0.210 HD
ENDBRANCH  16  34
BRANCH  16  36
HETATM   36  C23 UNL     1      -0.789  -9.539  24.036  1.00  0.00     0.176 C
BRANCH  36  37
HETATM   37  O4  UNL     1      -1.233  -9.434  25.350  1.00  0.00    -0.390 OA
ATOM     38  H4  UNL     1      -0.566  -9.384  26.025  1.00  0.00     0.210 HD
ENDBRANCH  36  37
BRANCH  36  39
HETATM   39  C24 UNL     1      -0.921  -8.147  23.502  1.00  0.00     0.198 C
BRANCH  39  40
HETATM   40  O5  UNL     1      -0.263  -7.856  22.360  1.00  0.00    -0.398 OA
ATOM     41  H5  UNL     1      -0.470  -7.032  21.935  1.00  0.00     0.209 HD
ENDBRANCH  39  40
ENDBRANCH  36  39
ENDBRANCH  16  36
TORSDOF 12
ENDMDL