MODEL 5
REMARK VINA RESULT: -5.479355465      2.001      3.967
REMARK  4 active torsions:
REMARK  status: ('A' for Active; 'I' for Inactive)
REMARK    1  A    between atoms: O1_1  and  C1_3
REMARK    2  A    between atoms: C2_4  and  O2_5
REMARK    3  A    between atoms: C3_7  and  O3_8
REMARK    4  A    between atoms: C9_15  and  O4_16
ROOT
HETATM    1  C1  UNL     1      13.112  14.907  18.231  1.00  0.00     0.178 C
HETATM    2  C2  UNL     1      14.547  15.035  17.813  1.00  0.00     0.178 C
HETATM    3  C3  UNL     1      14.905  16.509  17.866  1.00  0.00     0.154 C
HETATM    4  C4  UNL     1      14.049  17.341  16.986  1.00  0.00     0.024 C
HETATM    5  C5  UNL     1      14.516  17.244  15.536  1.00  0.00     0.007 C
HETATM    6  C6  UNL     1      13.383  17.938  14.818  1.00  0.00     0.001 C
HETATM    7  C7  UNL     1      12.179  17.464  15.563  1.00  0.00     0.007 C
HETATM    8  C8  UNL     1      12.625  16.990  16.920  1.00  0.00     0.024 C
HETATM    9  C9  UNL     1      12.278  15.562  17.135  1.00  0.00     0.154 C
ENDROOT
BRANCH   1  10
HETATM   10  O1  UNL     1      12.851  15.531  19.450  1.00  0.00    -0.390 OA
ATOM     11  H1  UNL     1      13.143  15.017  20.194  1.00  0.00     0.210 HD
ENDBRANCH   1  10
BRANCH   2  12
HETATM   12  O2  UNL     1      15.426  14.313  18.582  1.00  0.00    -0.390 OA
ATOM     13  H2  UNL     1      15.014  13.666  19.143  1.00  0.00     0.210 HD
ENDBRANCH   2  12
BRANCH   9  14
HETATM   14  O4  UNL     1      12.372  14.776  15.988  1.00  0.00    -0.393 OA
ATOM     15  H4  UNL     1      12.631  13.900  16.248  1.00  0.00     0.210 HD
ENDBRANCH   9  14
BRANCH   3  16
HETATM   16  O3  UNL     1      14.943  16.976  19.176  1.00  0.00    -0.393 OA
ATOM     17  H3  UNL     1      14.101  16.877  19.605  1.00  0.00     0.210 HD
ENDBRANCH   3  16
TORSDOF 4
ENDMDL