MODEL 3
REMARK VINA RESULT: -5.783523991      1.369      3.162
REMARK  5 active torsions:
REMARK  status: ('A' for Active; 'I' for Inactive)
REMARK    1  A    between atoms: C2_2  and  C4_4
REMARK    2  A    between atoms: C5_5  and  O1_6
REMARK    3  A    between atoms: C7_9  and  O2_10
REMARK    4  A    between atoms: C8_12  and  O3_13
REMARK    5  A    between atoms: C9_15  and  O4_16
ROOT
HETATM    1  C4  UNL     1      16.419  16.460  21.026  1.00  0.00     0.049 C
HETATM    2  C5  UNL     1      17.640  17.319  20.852  1.00  0.00     0.127 C
HETATM    3  C6  UNL     1      18.359  17.615  22.105  1.00  0.00     0.066 C
HETATM    4  C7  UNL     1      17.522  17.884  23.299  1.00  0.00     0.151 C
HETATM    5  C8  UNL     1      16.439  16.817  23.428  1.00  0.00     0.176 C
HETATM    6  C9  UNL     1      15.578  16.977  22.197  1.00  0.00     0.156 C
ENDROOT
BRANCH   1   7
HETATM    7  C2  UNL     1      15.534  16.437  19.826  1.00  0.00    -0.014 C
HETATM    8  C1  UNL     1      16.046  17.316  18.703  1.00  0.00     0.010 C
HETATM    9  C3  UNL     1      15.222  15.053  19.324  1.00  0.00     0.010 C
ENDBRANCH   1   7
BRANCH   2  10
HETATM   10  O1  UNL     1      18.533  16.640  19.995  1.00  0.00    -0.395 OA
ATOM     11  H1  UNL     1      18.940  15.940  20.491  1.00  0.00     0.210 HD
ENDBRANCH   2  10
BRANCH   6  12
HETATM   12  O4  UNL     1      14.361  16.370  22.280  1.00  0.00    -0.392 OA
ATOM     13  H4  UNL     1      13.705  16.916  22.697  1.00  0.00     0.210 HD
ENDBRANCH   6  12
BRANCH   5  14
HETATM   14  O3  UNL     1      15.734  16.913  24.601  1.00  0.00    -0.390 OA
ATOM     15  H3  UNL     1      14.801  17.023  24.463  1.00  0.00     0.210 HD
ENDBRANCH   5  14
BRANCH   4  16
HETATM   16  O2  UNL     1      18.311  17.858  24.446  1.00  0.00    -0.393 OA
ATOM     17  H2  UNL     1      19.205  18.094  24.228  1.00  0.00     0.210 HD
ENDBRANCH   4  16
TORSDOF 5
ENDMDL