MODEL 4
REMARK VINA RESULT: -5.567533414      1.435      2.672
REMARK  3 active torsions:
REMARK  status: ('A' for Active; 'I' for Inactive)
REMARK    1  A    between atoms: C3_3  and  O1_4
REMARK    2  A    between atoms: C6_8  and  O2_9
REMARK    3  A    between atoms: C10_14  and  O3_15
ROOT
HETATM    1  C1  UNL     1      14.555  16.594  18.700  1.00  0.00     0.021 C
HETATM    2  C2  UNL     1      13.804  16.262  17.473  1.00  0.00     0.020 C
HETATM    3  C3  UNL     1      13.196  14.881  17.455  1.00  0.00     0.136 C
HETATM    4  C4  UNL     1      12.057  15.505  16.635  1.00  0.00     0.053 C
HETATM    5  C5  UNL     1      12.503  15.450  15.194  1.00  0.00     0.042 C
HETATM    6  C6  UNL     1      13.925  15.844  15.029  1.00  0.00     0.123 C
HETATM    7  C7  UNL     1      14.432  16.663  16.187  1.00  0.00     0.028 C
HETATM    8  C8  UNL     1      13.872  18.078  15.989  1.00  0.00     0.011 C
HETATM    9  C9  UNL     1      12.433  17.953  16.405  1.00  0.00     0.040 C
HETATM   10  C10 UNL     1      12.401  16.807  17.351  1.00  0.00     0.074 C
ENDROOT
BRANCH   3  11
HETATM   11  O1  UNL     1      12.697  14.569  18.718  1.00  0.00    -0.394 OA
ATOM     12  H1  UNL     1      11.903  14.054  18.631  1.00  0.00     0.210 HD
ENDBRANCH   3  11
BRANCH  10  13
HETATM   13  O3  UNL     1      11.707  16.969  18.523  1.00  0.00    -0.388 OA
ATOM     14  H3  UNL     1      12.037  17.629  19.121  1.00  0.00     0.210 HD
ENDBRANCH  10  13
BRANCH   6  15
HETATM   15  O2  UNL     1      14.798  14.795  14.819  1.00  0.00    -0.395 OA
ATOM     16  H2  UNL     1      15.405  14.918  14.098  1.00  0.00     0.210 HD
ENDBRANCH   6  15
TORSDOF 3
ENDMDL