MODEL 5
REMARK VINA RESULT: -5.667074696      1.396      4.147
REMARK  4 active torsions:
REMARK  status: ('A' for Active; 'I' for Inactive)
REMARK    1  A    between atoms: C2_2  and  O1_3
REMARK    2  A    between atoms: C5_7  and  O2_8
REMARK    3  A    between atoms: C6_10  and  O3_11
REMARK    4  A    between atoms: C8_14  and  O4_15
ROOT
HETATM    1  C1  UNL     1      15.150  16.271  20.751  1.00  0.00     0.046 C
HETATM    2  C2  UNL     1      14.261  15.696  19.711  1.00  0.00     0.057 C
HETATM    3  C3  UNL     1      13.055  16.597  19.402  1.00  0.00     0.047 C
HETATM    4  C4  UNL     1      13.313  17.012  18.020  1.00  0.00     0.054 C
HETATM    5  C5  UNL     1      12.198  17.264  17.105  1.00  0.00     0.154 C
HETATM    6  C6  UNL     1      12.760  16.811  15.749  1.00  0.00     0.150 C
HETATM    7  C7  UNL     1      14.105  16.133  16.069  1.00  0.00     0.072 C
HETATM    8  C8  UNL     1      13.843  15.677  17.444  1.00  0.00     0.069 C
HETATM    9  C9  UNL     1      14.982  15.500  18.364  1.00  0.00     0.075 C
ENDROOT
BRANCH   2  10
HETATM   10  O1  UNL     1      13.743  14.444  20.044  1.00  0.00    -0.390 OA
ATOM     11  H1  UNL     1      13.130  14.463  20.769  1.00  0.00     0.210 HD
ENDBRANCH   2  10
BRANCH   8  12
HETATM   12  O4  UNL     1      12.862  14.709  17.561  1.00  0.00    -0.389 OA
ATOM     13  H4  UNL     1      12.765  14.260  16.730  1.00  0.00     0.210 HD
ENDBRANCH   8  12
BRANCH   5  14
HETATM   14  O2  UNL     1      11.036  16.596  17.426  1.00  0.00    -0.393 OA
ATOM     15  H2  UNL     1      10.810  15.892  16.830  1.00  0.00     0.210 HD
ENDBRANCH   5  14
BRANCH   6  16
HETATM   16  O3  UNL     1      12.906  17.854  14.872  1.00  0.00    -0.393 OA
ATOM     17  H3  UNL     1      12.072  18.231  14.618  1.00  0.00     0.210 HD
ENDBRANCH   6  16
TORSDOF 4
ENDMDL