MODEL 2
REMARK VINA RESULT: -5.354795687      1.206      3.040
REMARK  4 active torsions:
REMARK  status: ('A' for Active; 'I' for Inactive)
REMARK    1  A    between atoms: C2_2  and  O1_3
REMARK    2  A    between atoms: C4_6  and  O2_7
REMARK    3  A    between atoms: C5_9  and  O3_10
REMARK    4  A    between atoms: C9_15  and  O4_16
ROOT
HETATM    1  C1  UNL     1      14.803  16.223  19.831  1.00  0.00     0.049 C
HETATM    2  C2  UNL     1      14.646  15.924  18.331  1.00  0.00     0.088 C
HETATM    3  C3  UNL     1      15.442  16.962  17.612  1.00  0.00     0.075 C
HETATM    4  C4  UNL     1      15.191  17.068  16.161  1.00  0.00     0.150 C
HETATM    5  C5  UNL     1      13.946  16.452  15.653  1.00  0.00     0.154 C
HETATM    6  C6  UNL     1      12.842  16.288  16.621  1.00  0.00     0.054 A
HETATM    7  C7  UNL     1      12.121  14.953  16.429  1.00  0.00     0.013 A
HETATM    8  C8  UNL     1      12.591  14.535  17.794  1.00  0.00     0.042 A
HETATM    9  C9  UNL     1      13.200  15.902  17.994  1.00  0.00     0.094 A
ENDROOT
BRANCH   2  10
HETATM   10  O1  UNL     1      15.151  14.627  18.161  1.00  0.00    -0.387 OA
ATOM     11  H1  UNL     1      15.940  14.733  17.642  1.00  0.00     0.210 HD
ENDBRANCH   2  10
BRANCH   9  12
HETATM   12  O4  UNL     1      12.442  16.597  18.956  1.00  0.00    -0.386 OA
ATOM     13  H4  UNL     1      11.792  17.153  18.544  1.00  0.00     0.210 HD
ENDBRANCH   9  12
BRANCH   4  14
HETATM   14  O2  UNL     1      15.247  18.438  15.813  1.00  0.00    -0.393 OA
ATOM     15  H2  UNL     1      15.326  18.494  14.868  1.00  0.00     0.210 HD
ENDBRANCH   4  14
BRANCH   5  16
HETATM   16  O3  UNL     1      13.473  17.273  14.601  1.00  0.00    -0.393 OA
ATOM     17  H3  UNL     1      12.598  16.974  14.384  1.00  0.00     0.210 HD
ENDBRANCH   5  16
TORSDOF 4
ENDMDL