MODEL 5
REMARK VINA RESULT: -5.881002802      3.425      5.108
REMARK  3 active torsions:
REMARK  status: ('A' for Active; 'I' for Inactive)
REMARK    1  A    between atoms: C8_8  and  O1_9
REMARK    2  A    between atoms: C9_11  and  O2_12
REMARK    3  A    between atoms: C10_14  and  O3_15
ROOT
HETATM    1  C1  UNL     1      17.942  17.610  19.292  1.00  0.00     0.012 C
HETATM    2  C2  UNL     1      16.996  16.935  18.959  1.00  0.00    -0.110 C
HETATM    3  C3  UNL     1      15.827  16.130  18.546  1.00  0.00     0.095 C
HETATM    4  C4  UNL     1      15.229  15.485  19.762  1.00  0.00     0.020 C
HETATM    5  C5  UNL     1      14.591  16.466  20.695  1.00  0.00     0.001 C
HETATM    6  C6  UNL     1      13.102  16.444  20.692  1.00  0.00     0.003 C
HETATM    7  C7  UNL     1      12.504  17.133  19.464  1.00  0.00     0.034 C
HETATM    8  C8  UNL     1      12.522  16.284  18.256  1.00  0.00     0.149 C
HETATM    9  C9  UNL     1      13.654  16.453  17.329  1.00  0.00     0.176 C
HETATM   10  C10 UNL     1      14.882  17.080  17.850  1.00  0.00     0.165 C
ENDROOT
BRANCH  10  11
HETATM   11  O3  UNL     1      15.611  17.545  16.725  1.00  0.00    -0.392 OA
ATOM     12  H3  UNL     1      14.962  17.619  16.035  1.00  0.00     0.210 HD
ENDBRANCH  10  11
BRANCH   9  13
HETATM   13  O2  UNL     1      13.257  17.178  16.180  1.00  0.00    -0.390 OA
ATOM     14  H2  UNL     1      13.938  17.159  15.518  1.00  0.00     0.210 HD
ENDBRANCH   9  13
BRANCH   8  15
HETATM   15  O1  UNL     1      11.328  16.506  17.523  1.00  0.00    -0.393 OA
ATOM     16  H1  UNL     1      11.545  16.948  16.711  1.00  0.00     0.210 HD
ENDBRANCH   8  15
TORSDOF 3
ENDMDL