MODEL 4
REMARK VINA RESULT: -5.090938482      2.011      3.978
REMARK  4 active torsions:
REMARK  status: ('A' for Active; 'I' for Inactive)
REMARK    1  A    between atoms: C6_6  and  O1_7
REMARK    2  A    between atoms: C7_9  and  O2_10
REMARK    3  A    between atoms: C8_12  and  O3_13
REMARK    4  A    between atoms: C9_15  and  O4_16
ROOT
HETATM    1  C1  UNL     1      11.385  15.582  15.231  1.00  0.00     0.012 C
HETATM    2  C2  UNL     1      11.950  16.894  15.760  1.00  0.00     0.013 C
HETATM    3  C3  UNL     1      11.846  17.019  17.225  1.00  0.00     0.007 C
HETATM    4  C4  UNL     1      12.568  16.055  18.064  1.00  0.00     0.003 C
HETATM    5  C5  UNL     1      13.904  16.669  18.451  1.00  0.00     0.034 C
HETATM    6  C6  UNL     1      15.057  16.064  17.736  1.00  0.00     0.149 C
HETATM    7  C7  UNL     1      15.323  16.499  16.362  1.00  0.00     0.178 C
HETATM    8  C8  UNL     1      14.370  16.307  15.274  1.00  0.00     0.178 C
HETATM    9  C9  UNL     1      13.248  17.275  15.141  1.00  0.00     0.153 C
ENDROOT
BRANCH   6  10
HETATM   10  O1  UNL     1      15.101  14.664  17.927  1.00  0.00    -0.393 OA
ATOM     11  H1  UNL     1      15.935  14.394  18.294  1.00  0.00     0.210 HD
ENDBRANCH   6  10
BRANCH   7  12
HETATM   12  O2  UNL     1      15.658  17.874  16.407  1.00  0.00    -0.390 OA
ATOM     13  H2  UNL     1      15.742  18.177  15.510  1.00  0.00     0.210 HD
ENDBRANCH   7  12
BRANCH   8  14
HETATM   14  O3  UNL     1      13.919  15.025  15.052  1.00  0.00    -0.390 OA
ATOM     15  H3  UNL     1      13.057  14.929  14.665  1.00  0.00     0.210 HD
ENDBRANCH   8  14
BRANCH   9  16
HETATM   16  O4  UNL     1      13.558  18.568  15.537  1.00  0.00    -0.393 OA
ATOM     17  H4  UNL     1      13.428  19.147  14.795  1.00  0.00     0.210 HD
ENDBRANCH   9  16
TORSDOF 4
ENDMDL