MODEL 2
REMARK VINA RESULT: -5.693882926      1.818      3.147
REMARK  4 active torsions:
REMARK  status: ('A' for Active; 'I' for Inactive)
REMARK    1  A    between atoms: C3_3  and  O1_4
REMARK    2  A    between atoms: C4_6  and  O2_7
REMARK    3  A    between atoms: C5_9  and  O3_10
REMARK    4  A    between atoms: C9_15  and  O4_16
ROOT
HETATM    1  C1  UNL     1      16.593  17.013  18.587  1.00  0.00     0.015 C
HETATM    2  C2  UNL     1      15.473  16.325  17.801  1.00  0.00     0.042 C
HETATM    3  C3  UNL     1      14.720  15.452  18.730  1.00  0.00     0.155 C
HETATM    4  C4  UNL     1      13.267  15.333  18.486  1.00  0.00     0.176 C
HETATM    5  C5  UNL     1      12.766  15.749  17.166  1.00  0.00     0.159 C
HETATM    6  C6  UNL     1      13.387  16.935  16.538  1.00  0.00     0.007 C
HETATM    7  C7  UNL     1      12.437  18.141  16.558  1.00  0.00     0.020 C
HETATM    8  C8  UNL     1      13.594  16.627  15.047  1.00  0.00     0.020 C
HETATM    9  C9  UNL     1      14.675  17.383  17.130  1.00  0.00     0.134 C
ENDROOT
BRANCH   3  10
HETATM   10  O1  UNL     1      15.363  14.192  18.732  1.00  0.00    -0.392 OA
ATOM     11  H1  UNL     1      14.779  13.578  18.303  1.00  0.00     0.210 HD
ENDBRANCH   3  10
BRANCH   4  12
HETATM   12  O2  UNL     1      12.520  16.012  19.477  1.00  0.00    -0.390 OA
ATOM     13  H2  UNL     1      11.711  15.554  19.675  1.00  0.00     0.210 HD
ENDBRANCH   4  12
BRANCH   9  14
HETATM   14  O4  UNL     1      15.525  17.963  16.158  1.00  0.00    -0.394 OA
ATOM     15  H4  UNL     1      15.293  18.883  16.117  1.00  0.00     0.210 HD
ENDBRANCH   9  14
BRANCH   5  16
HETATM   16  O3  UNL     1      11.382  16.018  17.305  1.00  0.00    -0.392 OA
ATOM     17  H3  UNL     1      11.292  16.938  17.523  1.00  0.00     0.210 HD
ENDBRANCH   5  16
TORSDOF 4
ENDMDL