MODEL 4
REMARK VINA RESULT: -6.124376734      1.442      3.194
REMARK  4 active torsions:
REMARK  status: ('A' for Active; 'I' for Inactive)
REMARK    1  A    between atoms: O1_1  and  C1_3
REMARK    2  A    between atoms: C6_8  and  O2_9
REMARK    3  A    between atoms: C8_12  and  O3_13
REMARK    4  A    between atoms: C10_16  and  O4_17
ROOT
HETATM    1  C1  UNL     1      15.969  16.084  19.186  1.00  0.00     0.128 C
HETATM    2  C2  UNL     1      15.979  17.233  18.158  1.00  0.00     0.040 C
HETATM    3  C3  UNL     1      14.571  17.240  17.543  1.00  0.00     0.026 C
HETATM    4  C4  UNL     1      14.510  16.447  16.268  1.00  0.00     0.011 C
HETATM    5  C5  UNL     1      13.403  15.433  16.402  1.00  0.00     0.041 C
HETATM    6  C6  UNL     1      12.802  15.578  17.773  1.00  0.00     0.092 C
HETATM    7  C7  UNL     1      12.840  14.266  18.562  1.00  0.00     0.073 C
HETATM    8  C8  UNL     1      14.102  14.345  19.447  1.00  0.00     0.130 C
HETATM    9  C9  UNL     1      14.887  15.279  18.674  1.00  0.00     0.081 C
HETATM   10  C10 UNL     1      13.824  16.393  18.489  1.00  0.00     0.101 C
ENDROOT
BRANCH   1  11
HETATM   11  O1  UNL     1      15.769  16.663  20.413  1.00  0.00    -0.395 OA
ATOM     12  H1  UNL     1      14.898  16.405  20.693  1.00  0.00     0.210 HD
ENDBRANCH   1  11
BRANCH   8  13
HETATM   13  O3  UNL     1      14.617  13.069  19.586  1.00  0.00    -0.395 OA
ATOM     14  H3  UNL     1      14.204  12.659  20.337  1.00  0.00     0.210 HD
ENDBRANCH   8  13
BRANCH  10  15
HETATM   15  O4  UNL     1      13.442  16.946  19.660  1.00  0.00    -0.386 OA
ATOM     16  H4  UNL     1      12.776  16.494  20.166  1.00  0.00     0.210 HD
ENDBRANCH  10  15
BRANCH   6  17
HETATM   17  O2  UNL     1      11.560  16.163  17.784  1.00  0.00    -0.387 OA
ATOM     18  H2  UNL     1      11.529  17.017  17.369  1.00  0.00     0.210 HD
ENDBRANCH   6  17
TORSDOF 4
ENDMDL