MODEL 5
REMARK VINA RESULT: -5.528410262      1.177      1.727
REMARK  5 active torsions:
REMARK  status: ('A' for Active; 'I' for Inactive)
REMARK    1  A    between atoms: C2_2  and  C4_4
REMARK    2  A    between atoms: C5_5  and  C6_6
REMARK    3  A    between atoms: C6_6  and  O1_7
REMARK    4  A    between atoms: C8_11  and  O3_12
REMARK    5  A    between atoms: C9_14  and  O4_15
ROOT
HETATM    1  C6  UNL     1      14.136  15.930  19.724  1.00  0.00     0.259 C
HETATM    2  O2  UNL     1      13.005  16.691  19.603  1.00  0.00    -0.340 OA
HETATM    3  C7  UNL     1      12.626  16.759  18.292  1.00  0.00     0.207 C
HETATM    4  C8  UNL     1      13.465  15.771  17.507  1.00  0.00     0.177 C
HETATM    5  C9  UNL     1      14.754  15.829  18.341  1.00  0.00     0.224 C
ENDROOT
BRANCH   1   6
HETATM    6  C5  UNL     1      15.111  16.441  20.665  1.00  0.00    -0.035 C
HETATM    7  C4  UNL     1      15.907  16.881  21.451  1.00  0.00    -0.097 C
BRANCH   7   8
HETATM    8  C2  UNL     1      16.862  17.435  22.412  1.00  0.00     0.057 C
HETATM    9  C1  UNL     1      16.391  17.051  23.798  1.00  0.00     0.023 C
HETATM   10  C3  UNL     1      18.265  16.926  22.159  1.00  0.00     0.023 C
ENDBRANCH   7   8
ENDBRANCH   1   6
BRANCH   1  11
HETATM   11  O1  UNL     1      13.723  14.621  20.054  1.00  0.00    -0.353 OA
ATOM     12  H1  UNL     1      12.834  14.605  20.389  1.00  0.00     0.214 HD
ENDBRANCH   1  11
BRANCH   5  13
HETATM   13  O4  UNL     1      15.361  17.037  18.050  1.00  0.00    -0.386 OA
ATOM     14  H4  UNL     1      14.994  17.366  17.238  1.00  0.00     0.210 HD
ENDBRANCH   5  13
BRANCH   4  15
HETATM   15  O3  UNL     1      12.951  14.472  17.596  1.00  0.00    -0.391 OA
ATOM     16  H3  UNL     1      13.037  14.005  16.774  1.00  0.00     0.210 HD
ENDBRANCH   4  15
TORSDOF 5
ENDMDL