MODEL 3
REMARK VINA RESULT: -6.970156004      1.231      1.465
REMARK  10 active torsions:
REMARK  status: ('A' for Active; 'I' for Inactive)
REMARK    1  A    between atoms: C2_2  and  C3_3
REMARK    2  A    between atoms: C3_3  and  C4_4
REMARK    3  A    between atoms: C6_6  and  O1_7
REMARK    4  A    between atoms: O1_7  and  C7_8
REMARK    5  A    between atoms: C9_11  and  N1_12
REMARK    6  A    between atoms: N1_12  and  N2_14
REMARK    7  A    between atoms: C10_19  and  N4_20
REMARK    8  A    between atoms: C15_28  and  O3_29
REMARK    9  A    between atoms: C16_31  and  O4_32
REMARK   10  A    between atoms: C17_34  and  N6_35
ROOT
HETATM    1  C7  UNL     1     -11.933  46.301  35.593  1.00  0.00     0.294 C
HETATM    2  O2  UNL     1     -11.261  46.068  34.414  1.00  0.00    -0.356 OA
HETATM    3  C8  UNL     1     -12.184  45.773  33.447  1.00  0.00     0.203 C
HETATM    4  C9  UNL     1     -13.116  46.910  33.088  1.00  0.00     0.172 C
HETATM    5  C10 UNL     1     -13.620  47.631  34.317  1.00  0.00     0.045 C
HETATM    6  C15 UNL     1     -12.613  47.654  35.437  1.00  0.00     0.220 C
ENDROOT
BRANCH   1   7
HETATM    7  O1  UNL     1     -12.861  45.352  35.924  1.00  0.00    -0.350 OA
BRANCH   7   8
HETATM    8  C6  UNL     1     -12.341  44.085  35.991  1.00  0.00     0.156 C
HETATM    9  C5  UNL     1     -12.088  43.584  37.397  1.00  0.00     0.041 C
HETATM   10  C4  UNL     1     -12.237  42.062  37.288  1.00  0.00     0.024 C
HETATM   11  C17 UNL     1     -12.865  41.801  35.969  1.00  0.00     0.218 C
HETATM   12  C16 UNL     1     -13.454  43.123  35.550  1.00  0.00     0.177 C
BRANCH  10  13
HETATM   13  C3  UNL     1     -13.054  41.617  38.475  1.00  0.00     0.033 C
BRANCH  13  14
HETATM   14  C2  UNL     1     -13.801  40.378  38.245  1.00  0.00    -0.036 C
HETATM   15  C1  UNL     1     -14.059  39.563  39.240  1.00  0.00     0.007 C
ENDBRANCH  13  14
ENDBRANCH  10  13
BRANCH  11  16
HETATM   16  N6  UNL     1     -11.814  41.479  35.026  1.00  0.00    -0.072 N
ATOM     17  H63 UNL     1     -12.159  41.377  34.071  1.00  0.00     0.274 HD
ATOM     18  H62 UNL     1     -11.180  42.260  34.861  1.00  0.00     0.274 HD
ATOM     19  H61 UNL     1     -11.333  40.644  35.361  1.00  0.00     0.274 HD
ENDBRANCH  11  16
BRANCH  12  20
HETATM   20  O4  UNL     1     -14.598  43.454  36.272  1.00  0.00    -0.391 OA
ATOM     21  H4  UNL     1     -15.347  43.198  35.747  1.00  0.00     0.210 HD
ENDBRANCH  12  20
ENDBRANCH   7   8
ENDBRANCH   1   7
BRANCH   6  22
HETATM   22  O3  UNL     1     -11.594  48.562  35.297  1.00  0.00    -0.385 OA
ATOM     23  H3  UNL     1     -11.542  48.744  34.366  1.00  0.00     0.210 HD
ENDBRANCH   6  22
BRANCH   5  24
HETATM   24  N4  UNL     1     -14.363  48.797  34.118  1.00  0.00    -0.380 N
HETATM   25  C11 UNL     1     -14.987  49.289  35.304  1.00  0.00     0.150 C
HETATM   26  C12 UNL     1     -15.832  50.490  35.175  1.00  0.00     0.252 C
HETATM   27  N5  UNL     1     -16.631  50.482  33.959  1.00  0.00    -0.072 N
HETATM   28  C13 UNL     1     -15.669  50.459  32.872  1.00  0.00     0.252 C
ATOM     29  H52 UNL     1     -17.315  49.726  33.919  1.00  0.00     0.277 HD
ATOM     30  H51 UNL     1     -17.300  51.250  33.900  1.00  0.00     0.277 HD
HETATM   31  C14 UNL     1     -15.017  49.064  32.908  1.00  0.00     0.150 C
ENDBRANCH   5  24
BRANCH   4  32
HETATM   32  N1  UNL     1     -12.414  47.759  32.163  1.00  0.00    -0.310 N
ATOM     33  H1  UNL     1     -12.965  48.306  31.500  1.00  0.00     0.182 HD
BRANCH  32  34
HETATM   34  N2  UNL     1     -11.188  47.865  32.124  1.00  0.00    -0.253 N
HETATM   35  N3  UNL     1     -10.062  48.160  32.541  1.00  0.00    -0.331 N
ATOM     36  H32 UNL     1     -10.322  48.535  33.454  1.00  0.00     0.178 HD
ATOM     37  H31 UNL     1      -9.047  48.247  32.509  1.00  0.00     0.178 HD
ATOM     38  H2  UNL     1     -10.976  47.482  31.203  1.00  0.00     0.207 HD
ENDBRANCH  32  34
ENDBRANCH   4  32
TORSDOF 10
ENDMDL