MODEL 5
REMARK VINA RESULT: -6.466410220      1.966      3.175
REMARK  10 active torsions:
REMARK  status: ('A' for Active; 'I' for Inactive)
REMARK    1  A    between atoms: C2_2  and  C3_3
REMARK    2  A    between atoms: C7_8  and  C8_9
REMARK    3  A    between atoms: C8_9  and  O2_10
REMARK    4  A    between atoms: C9_12  and  O3_13
REMARK    5  A    between atoms: O3_13  and  C10_14
REMARK    6  A    between atoms: C11_15  and  O4_16
REMARK    7  A    between atoms: C12_18  and  O5_19
REMARK    8  A    between atoms: C13_21  and  O6_22
REMARK    9  A    between atoms: C14_24  and  C15_25
REMARK   10  A    between atoms: C15_25  and  C16_26
ROOT
HETATM    1  C10 UNL     1     -12.910  45.764  32.820  1.00  0.00     0.170 C
HETATM    2  C11 UNL     1     -12.726  45.307  31.385  1.00  0.00     0.179 C
HETATM    3  C12 UNL     1     -13.690  46.043  30.516  1.00  0.00     0.182 C
HETATM    4  C13 UNL     1     -13.677  47.564  30.730  1.00  0.00     0.179 C
HETATM    5  C14 UNL     1     -13.821  47.891  32.207  1.00  0.00    -0.037 C
HETATM    6  C18 UNL     1     -12.698  47.242  32.955  1.00  0.00     0.057 C
HETATM    7  C19 UNL     1     -11.300  47.582  32.556  1.00  0.00     0.186 C
HETATM    8  O7  UNL     1     -11.224  48.379  33.723  1.00  0.00    -0.389 OA
HETATM    9  C20 UNL     1     -12.349  47.738  34.293  1.00  0.00     0.186 C
ENDROOT
BRANCH   1  10
HETATM   10  O3  UNL     1     -12.245  45.025  33.726  1.00  0.00    -0.373 OA
BRANCH  10  11
HETATM   11  C9  UNL     1     -13.012  44.429  34.701  1.00  0.00     0.159 C
HETATM   12  C5  UNL     1     -13.033  42.932  34.327  1.00  0.00     0.048 C
HETATM   13  C4  UNL     1     -11.728  42.451  33.701  1.00  0.00     0.020 C
HETATM   14  C6  UNL     1     -12.560  42.247  35.603  1.00  0.00     0.136 C
HETATM   15  C3  UNL     1     -11.672  41.367  34.784  1.00  0.00     0.037 C
HETATM   16  O1  UNL     1     -11.783  43.210  36.257  1.00  0.00    -0.375 OA
HETATM   17  C7  UNL     1     -12.500  44.374  36.074  1.00  0.00     0.174 C
BRANCH  15  18
HETATM   18  C2  UNL     1     -12.182  40.061  34.348  1.00  0.00    -0.030 C
HETATM   19  C1  UNL     1     -11.566  38.938  34.634  1.00  0.00     0.007 C
ENDBRANCH  15  18
BRANCH  17  20
HETATM   20  C8  UNL     1     -13.666  44.324  37.073  1.00  0.00     0.198 C
BRANCH  20  21
HETATM   21  O2  UNL     1     -14.048  45.622  37.392  1.00  0.00    -0.398 OA
ATOM     22  H2  UNL     1     -13.982  45.744  38.332  1.00  0.00     0.209 HD
ENDBRANCH  20  21
ENDBRANCH  17  20
ENDBRANCH  10  11
ENDBRANCH   1  10
BRANCH   2  23
HETATM   23  O4  UNL     1     -11.470  45.422  30.884  1.00  0.00    -0.390 OA
ATOM     24  H4  UNL     1     -11.291  46.216  30.393  1.00  0.00     0.210 HD
ENDBRANCH   2  23
BRANCH   3  25
HETATM   25  O5  UNL     1     -13.518  45.788  29.178  1.00  0.00    -0.390 OA
ATOM     26  H5  UNL     1     -13.517  44.862  28.969  1.00  0.00     0.210 HD
ENDBRANCH   3  25
BRANCH   5  27
HETATM   27  C15 UNL     1     -14.232  49.240  32.548  1.00  0.00    -0.021 C
BRANCH  27  28
HETATM   28  C16 UNL     1     -15.408  49.606  33.306  1.00  0.00     0.023 C
HETATM   29  C17 UNL     1     -16.333  48.525  33.793  1.00  0.00     0.009 C
ENDBRANCH  27  28
ENDBRANCH   5  27
BRANCH   4  30
HETATM   30  O6  UNL     1     -14.923  47.940  30.157  1.00  0.00    -0.389 OA
ATOM     31  H6  UNL     1     -15.129  48.725  30.652  1.00  0.00     0.210 HD
ENDBRANCH   4  30
TORSDOF 10
ENDMDL