MODEL 2
REMARK VINA RESULT: -6.768458149      2.542      5.198
REMARK  9 active torsions:
REMARK  status: ('A' for Active; 'I' for Inactive)
REMARK    1  A    between atoms: O1_2  and  C2_3
REMARK    2  A    between atoms: C2_3  and  C3_5
REMARK    3  A    between atoms: C3_5  and  C4_6
REMARK    4  A    between atoms: C4_6  and  C5_7
REMARK    5  A    between atoms: C5_7  and  N1_8
REMARK    6  A    between atoms: C5_7  and  C6_12
REMARK    7  A    between atoms: C7_14  and  C8_15
REMARK    8  A    between atoms: C12_19  and  N2_20
REMARK    9  A    between atoms: C15_28  and  N3_29
ROOT
HETATM    1  C6  UNL     1     -12.958  45.126  33.919  1.00  0.00     0.177 C
HETATM    2  O3  UNL     1     -11.828  44.834  34.666  1.00  0.00    -0.363 OA
HETATM    3  C7  UNL     1     -11.992  44.979  36.022  1.00  0.00     0.212 C
HETATM    4  S1  UNL     1     -13.599  45.789  36.367  1.00  0.00    -0.128 SA
HETATM    5  C13 UNL     1     -13.973  46.990  35.054  1.00  0.00     0.071 C
HETATM    6  C14 UNL     1     -13.736  48.369  35.558  1.00  0.00     0.024 C
HETATM    7  C15 UNL     1     -13.105  46.628  33.836  1.00  0.00     0.128 C
ENDROOT
BRANCH   1   8
HETATM    8  C5  UNL     1     -12.892  44.437  32.592  1.00  0.00     0.215 C
BRANCH   8   9
HETATM    9  C4  UNL     1     -13.126  42.973  32.747  1.00  0.00     0.045 C
BRANCH   9  10
HETATM   10  C3  UNL     1     -12.072  42.257  31.924  1.00  0.00     0.113 C
BRANCH  10  11
HETATM   11  C2  UNL     1     -11.447  41.151  32.689  1.00  0.00     0.258 C
HETATM   12  O2  UNL     1     -10.256  40.822  32.481  1.00  0.00    -0.265 OA
BRANCH  11  13
HETATM   13  O1  UNL     1     -12.171  40.467  33.643  1.00  0.00    -0.326 OA
HETATM   14  C1  UNL     1     -11.634  39.366  34.369  1.00  0.00     0.213 C
ENDBRANCH  11  13
ENDBRANCH  10  11
ENDBRANCH   9  10
ENDBRANCH   8   9
BRANCH   8  15
HETATM   15  N1  UNL     1     -11.697  44.685  31.845  1.00  0.00    -0.072 N
ATOM     16  H13 UNL     1     -11.145  43.836  31.724  1.00  0.00     0.274 HD
ATOM     17  H12 UNL     1     -11.898  44.879  30.864  1.00  0.00     0.274 HD
ATOM     18  H11 UNL     1     -11.150  45.432  32.273  1.00  0.00     0.274 HD
ENDBRANCH   8  15
ENDBRANCH   1   8
BRANCH   7  19
HETATM   19  N3  UNL     1     -11.823  47.292  33.922  1.00  0.00    -0.359 N
HETATM   20  C16 UNL     1     -11.201  47.854  32.956  1.00  0.00     0.197 C
HETATM   21  N4  UNL     1      -9.946  48.460  33.222  1.00  0.00    -0.067 NA
HETATM   22  N5  UNL     1     -11.688  47.907  31.627  1.00  0.00    -0.067 NA
ATOM     23  H3  UNL     1     -11.373  47.313  34.836  1.00  0.00     0.162 HD
ENDBRANCH   7  19
BRANCH   3  24
HETATM   24  C8  UNL     1     -11.800  43.733  36.822  1.00  0.00     0.163 C
HETATM   25  C9  UNL     1     -12.464  42.522  36.264  1.00  0.00     0.035 C
HETATM   26  C10 UNL     1     -13.726  42.176  37.066  1.00  0.00     0.007 C
HETATM   27  C11 UNL     1     -13.283  41.821  38.476  1.00  0.00     0.061 C
HETATM   28  C12 UNL     1     -12.219  42.785  38.889  1.00  0.00     0.318 C
HETATM   29  O4  UNL     1     -12.207  43.958  38.132  1.00  0.00    -0.350 OA
BRANCH  28  30
HETATM   30  N2  UNL     1     -12.478  43.165  40.270  1.00  0.00    -0.053 N
ATOM     31  H23 UNL     1     -13.467  43.121  40.515  1.00  0.00     0.277 HD
ATOM     32  H22 UNL     1     -12.143  42.473  40.941  1.00  0.00     0.277 HD
ATOM     33  H21 UNL     1     -12.074  44.089  40.420  1.00  0.00     0.277 HD
ENDBRANCH  28  30
ENDBRANCH   3  24
TORSDOF 9
ENDMDL