MODEL 4
REMARK VINA RESULT: -7.755452716      3.129      8.848
REMARK  8 active torsions:
REMARK  status: ('A' for Active; 'I' for Inactive)
REMARK    1  A    between atoms: C2_2  and  O1_3
REMARK    2  A    between atoms: O1_3  and  C3_4
REMARK       I    between atoms: C3_4  and  N1_6
REMARK    3  A    between atoms: N1_6  and  C4_8
REMARK    4  A    between atoms: C5_11  and  S1_12
REMARK    5  A    between atoms: S1_12  and  C6_13
REMARK    6  A    between atoms: C9_16  and  O3_17
REMARK    7  A    between atoms: N4_22  and  C12_24
REMARK    8  A    between atoms: C12_24  and  C13_25
ROOT
HETATM    1  C13 UNL     1     -12.714  42.580  39.450  1.00  0.00     0.092 C
HETATM    2  N5  UNL     1     -13.189  41.575  40.092  1.00  0.00    -0.307 N
ATOM      3  H5  UNL     1     -13.180  41.607  41.112  1.00  0.00     0.177 HD
HETATM    4  C14 UNL     1     -13.717  40.437  39.474  1.00  0.00     0.181 C
HETATM    5  N6  UNL     1     -14.167  39.503  38.959  1.00  0.00    -0.172 NA
ENDROOT
BRANCH   1   6
HETATM    6  C12 UNL     1     -12.705  42.582  37.972  1.00  0.00     0.183 C
BRANCH   6   7
HETATM    7  N4  UNL     1     -12.276  43.880  37.531  1.00  0.00    -0.221 N
HETATM    8  C11 UNL     1     -12.403  44.283  36.305  1.00  0.00     0.680 A
HETATM    9  N3  UNL     1     -12.963  43.508  35.281  1.00  0.00    -0.171 N
HETATM   10  N7  UNL     1     -11.940  45.602  35.976  1.00  0.00    -0.191 N
HETATM   11  C9  UNL     1     -13.109  43.944  33.922  1.00  0.00     0.159 A
ATOM     12  H3  UNL     1     -13.290  42.571  35.518  1.00  0.00     0.186 HD
HETATM   13  C8  UNL     1     -12.674  45.162  33.644  1.00  0.00     0.087 A
HETATM   14  C7  UNL     1     -12.075  46.051  34.633  1.00  0.00     0.059 A
HETATM   15  C6  UNL     1     -11.671  47.253  34.257  1.00  0.00     0.083 C
ATOM     16  H7  UNL     1     -11.525  46.202  36.688  1.00  0.00     0.184 HD
ATOM     17  H4  UNL     1     -11.854  44.512  38.211  1.00  0.00     0.178 HD
BRANCH  11  18
HETATM   18  O3  UNL     1     -13.682  43.103  32.960  1.00  0.00    -0.340 OA
HETATM   19  C10 UNL     1     -12.895  42.839  31.813  1.00  0.00     0.211 C
ENDBRANCH  11  18
BRANCH  15  20
HETATM   20  S1  UNL     1     -11.846  47.796  32.584  1.00  0.00    -0.062 SA
BRANCH  20  21
HETATM   21  C5  UNL     1     -13.524  48.276  32.242  1.00  0.00     0.178 A
HETATM   22  N2  UNL     1     -14.315  48.991  33.057  1.00  0.00    -0.167 N
HETATM   23  C4  UNL     1     -15.520  49.182  32.502  1.00  0.00     0.703 A
ATOM     24  H2  UNL     1     -14.037  49.342  33.973  1.00  0.00     0.186 HD
HETATM   25  N9  UNL     1     -15.458  48.560  31.304  1.00  0.00    -0.130 N
HETATM   26  N8  UNL     1     -14.259  48.015  31.147  1.00  0.00    -0.265 N
ATOM     27  H9  UNL     1     -16.218  48.516  30.624  1.00  0.00     0.205 HD
ATOM     28  H8  UNL     1     -13.947  47.487  30.332  1.00  0.00     0.189 HD
BRANCH  23  29
HETATM   29  N1  UNL     1     -16.520  49.830  33.023  1.00  0.00    -0.134 N
HETATM   30  C3  UNL     1     -16.634  49.968  34.427  1.00  0.00     0.379 C
HETATM   31  O2  UNL     1     -17.690  49.636  35.027  1.00  0.00    -0.238 OA
ATOM     32  H1  UNL     1     -17.227  50.242  32.414  1.00  0.00     0.189 HD
BRANCH  30  33
HETATM   33  O1  UNL     1     -15.609  50.472  35.227  1.00  0.00    -0.304 OA
BRANCH  33  34
HETATM   34  C2  UNL     1     -15.372  49.971  36.544  1.00  0.00     0.176 C
HETATM   35  C1  UNL     1     -14.257  48.949  36.413  1.00  0.00     0.034 C
ENDBRANCH  33  34
ENDBRANCH  30  33
ENDBRANCH  23  29
ENDBRANCH  20  21
ENDBRANCH  15  20
ENDBRANCH   6   7
ENDBRANCH   1   6
TORSDOF 8
ENDMDL