MODEL 4
REMARK VINA RESULT: -6.459287390      4.029      5.763
REMARK  10 active torsions:
REMARK  status: ('A' for Active; 'I' for Inactive)
REMARK    1  A    between atoms: C2_2  and  C3_3
REMARK    2  A    between atoms: C3_3  and  C4_4
REMARK    3  A    between atoms: C4_4  and  N1_5
REMARK    4  A    between atoms: N2_9  and  C7_11
REMARK    5  A    between atoms: N4_14  and  C9_15
REMARK    6  A    between atoms: C10_17  and  C11_18
REMARK    7  A    between atoms: C11_18  and  O1_19
REMARK    8  A    between atoms: C12_21  and  O2_22
REMARK    9  A    between atoms: C13_24  and  O3_25
REMARK   10  A    between atoms: C14_27  and  O4_28
ROOT
HETATM    1  C7  UNL     1     -13.510  40.049  39.338  1.00  0.00     0.246 C
HETATM    2  C8  UNL     1     -13.876  40.701  40.616  1.00  0.00     0.078 C
HETATM    3  N3  UNL     1     -14.164  41.218  41.615  1.00  0.00    -0.196 NA
ENDROOT
BRANCH   1   4
HETATM    4  N2  UNL     1     -13.287  40.983  38.287  1.00  0.00    -0.358 N
HETATM    5  C6  UNL     1     -12.713  40.765  37.179  1.00  0.00     0.143 C
HETATM    6  S1  UNL     1     -12.084  39.141  36.813  1.00  0.00    -0.064 SA
HETATM    7  N4  UNL     1     -12.540  41.770  36.190  1.00  0.00    -0.320 N
HETATM    8  C5  UNL     1     -11.819  39.029  35.025  1.00  0.00     0.356 C
HETATM    9  N1  UNL     1     -12.213  40.259  34.325  1.00  0.00     0.115 N
HETATM   10  C15 UNL     1     -11.751  41.434  35.043  1.00  0.00     0.401 C
ATOM     11  H2  UNL     1     -13.628  41.932  38.443  1.00  0.00     0.162 HD
BRANCH   9  12
HETATM   12  C4  UNL     1     -11.527  40.270  33.061  1.00  0.00     0.275 C
BRANCH  12  13
HETATM   13  C3  UNL     1     -11.518  41.523  32.290  1.00  0.00     0.030 C
BRANCH  13  14
HETATM   14  C2  UNL     1     -12.658  41.755  31.353  1.00  0.00    -0.003 C
HETATM   15  C1  UNL     1     -12.771  40.684  30.326  1.00  0.00     0.005 C
ENDBRANCH  13  14
ENDBRANCH  12  13
ENDBRANCH   9  12
BRANCH   7  16
HETATM   16  C9  UNL     1     -13.159  43.071  36.393  1.00  0.00     0.182 C
HETATM   17  S2  UNL     1     -13.789  43.626  34.785  1.00  0.00    -0.131 SA
HETATM   18  C10 UNL     1     -14.333  45.364  34.976  1.00  0.00     0.104 C
HETATM   19  C12 UNL     1     -13.850  45.823  36.327  1.00  0.00     0.165 C
HETATM   20  C13 UNL     1     -12.408  45.460  36.475  1.00  0.00     0.179 C
HETATM   21  C14 UNL     1     -12.203  44.060  37.005  1.00  0.00     0.182 C
BRANCH  18  22
HETATM   22  C11 UNL     1     -13.776  46.169  33.841  1.00  0.00     0.181 C
BRANCH  22  23
HETATM   23  O1  UNL     1     -14.713  47.138  33.474  1.00  0.00    -0.400 OA
ATOM     24  H1  UNL     1     -15.552  46.913  33.859  1.00  0.00     0.209 HD
ENDBRANCH  22  23
ENDBRANCH  18  22
BRANCH  19  25
HETATM   25  O2  UNL     1     -13.944  47.218  36.445  1.00  0.00    -0.392 OA
ATOM     26  H2  UNL     1     -14.231  47.609  35.628  1.00  0.00     0.210 HD
ENDBRANCH  19  25
BRANCH  20  27
HETATM   27  O3  UNL     1     -11.830  46.342  37.395  1.00  0.00    -0.390 OA
ATOM     28  H3  UNL     1     -12.190  46.151  38.253  1.00  0.00     0.210 HD
ENDBRANCH  20  27
BRANCH  21  29
HETATM   29  O4  UNL     1     -10.890  43.695  36.658  1.00  0.00    -0.390 OA
ATOM     30  H4  UNL     1     -10.673  44.090  35.822  1.00  0.00     0.210 HD
ENDBRANCH  21  29
ENDBRANCH   7  16
ENDBRANCH   1   4
TORSDOF 10
ENDMDL