MODEL 4
REMARK VINA RESULT: -7.078046251      2.160      2.813
REMARK  9 active torsions:
REMARK  status: ('A' for Active; 'I' for Inactive)
REMARK    1  A    between atoms: S1_2  and  C2_3
REMARK    2  A    between atoms: C2_3  and  C3_4
REMARK    3  A    between atoms: C3_4  and  S2_5
REMARK    4  A    between atoms: C3_4  and  C9_11
REMARK    5  A    between atoms: S2_5  and  C4_6
REMARK       I    between atoms: C9_11  and  N1_13
REMARK    6  A    between atoms: N1_13  and  C10_15
REMARK    7  A    between atoms: C10_15  and  C11_16
REMARK    8  A    between atoms: C13_21  and  O4_22
REMARK    9  A    between atoms: C14_24  and  O5_25
ROOT
HETATM    1  C9  UNL     1     -13.529  46.637  35.145  1.00  0.00     0.234 C
HETATM    2  O1  UNL     1     -12.748  47.440  35.711  1.00  0.00    -0.272 OA
HETATM    3  N1  UNL     1     -14.568  47.149  34.344  1.00  0.00    -0.330 N
ATOM      4  H1  UNL     1     -15.212  46.512  33.875  1.00  0.00     0.164 HD
ENDROOT
BRANCH   3   5
HETATM    5  C10 UNL     1     -14.719  48.576  34.188  1.00  0.00     0.199 C
HETATM    6  S3  UNL     1     -16.475  48.805  33.687  1.00  0.00    -0.121 SA
HETATM    7  C12 UNL     1     -17.030  49.722  35.180  1.00  0.00     0.111 C
HETATM    8  C13 UNL     1     -15.686  50.372  35.540  1.00  0.00     0.160 C
HETATM    9  C14 UNL     1     -14.705  49.257  35.539  1.00  0.00     0.197 C
BRANCH   5  10
HETATM   10  C11 UNL     1     -13.819  49.200  33.225  1.00  0.00     0.216 C
HETATM   11  O2  UNL     1     -12.709  48.717  32.932  1.00  0.00    -0.645 OA
HETATM   12  O3  UNL     1     -14.202  50.367  32.608  1.00  0.00    -0.645 OA
ENDBRANCH   5  10
BRANCH   8  13
HETATM   13  O4  UNL     1     -15.734  50.905  36.818  1.00  0.00    -0.392 OA
ATOM     14  H4  UNL     1     -15.263  51.730  36.851  1.00  0.00     0.210 HD
ENDBRANCH   8  13
BRANCH   9  15
HETATM   15  O5  UNL     1     -13.436  49.814  35.803  1.00  0.00    -0.389 OA
ATOM     16  H5  UNL     1     -13.401  50.718  35.514  1.00  0.00     0.210 HD
ENDBRANCH   9  15
ENDBRANCH   3   5
BRANCH   1  17
HETATM   17  C3  UNL     1     -13.308  45.185  35.355  1.00  0.00     0.149 C
BRANCH  17  18
HETATM   18  C2  UNL     1     -14.213  44.363  34.469  1.00  0.00     0.098 C
BRANCH  18  19
HETATM   19  S1  UNL     1     -13.188  43.618  33.167  1.00  0.00    -0.172 SA
HETATM   20  C1  UNL     1     -12.589  44.855  31.999  1.00  0.00     0.089 C
ENDBRANCH  18  19
ENDBRANCH  17  18
BRANCH  17  21
HETATM   21  S2  UNL     1     -13.506  44.783  37.083  1.00  0.00    -0.149 SA
BRANCH  21  22
HETATM   22  C4  UNL     1     -12.330  43.571  37.685  1.00  0.00     0.048 C
HETATM   23  C5  UNL     1     -12.389  42.349  36.796  1.00  0.00     0.015 C
HETATM   24  C6  UNL     1     -13.424  41.493  37.526  1.00  0.00     0.001 C
HETATM   25  C7  UNL     1     -12.985  41.626  38.955  1.00  0.00     0.001 C
HETATM   26  C8  UNL     1     -12.711  43.122  39.072  1.00  0.00     0.015 C
ENDBRANCH  21  22
ENDBRANCH  17  21
ENDBRANCH   1  17
TORSDOF 9
ENDMDL