MODEL 1
REMARK VINA RESULT: -7.063187966      0.000      0.000
REMARK  7 active torsions:
REMARK  status: ('A' for Active; 'I' for Inactive)
REMARK    1  A    between atoms: C2_3  and  N2_4
REMARK    2  A    between atoms: C9_14  and  N4_15
REMARK    3  A    between atoms: N6_21  and  C11_23
REMARK    4  A    between atoms: C11_23  and  C12_24
REMARK    5  A    between atoms: C12_24  and  C13_25
REMARK    6  A    between atoms: C13_25  and  N7_26
REMARK    7  A    between atoms: N7_26  and  C14_28
ROOT
HETATM    1  C1  UNL     1     -14.506  34.791  42.920  1.00  0.00     0.177 C
HETATM    2  N1  UNL     1     -14.357  35.990  42.108  1.00  0.00    -0.171 N
HETATM    3  C2  UNL     1     -14.366  35.940  40.768  1.00  0.00     0.684 A
HETATM    4  N3  UNL     1     -14.226  37.065  40.004  1.00  0.00    -0.185 N
ATOM      5  H3  UNL     1     -14.239  36.974  38.988  1.00  0.00     0.184 HD
HETATM    6  C7  UNL     1     -14.073  38.276  40.539  1.00  0.00     0.123 A
HETATM    7  C8  UNL     1     -14.061  38.367  41.917  1.00  0.00     0.110 A
HETATM    8  C9  UNL     1     -14.205  37.199  42.673  1.00  0.00     0.146 A
HETATM    9  N5  UNL     1     -13.894  39.776  41.947  1.00  0.00    -0.336 N
ATOM     10  H5  UNL     1     -13.808  40.493  42.668  1.00  0.00     0.168 HD
HETATM   11  C10 UNL     1     -13.898  39.742  40.496  1.00  0.00     0.132 A
HETATM   12  N6  UNL     1     -13.762  40.670  39.652  1.00  0.00    -0.374 N
ATOM     13  H6  UNL     1     -13.667  41.605  40.048  1.00  0.00     0.161 HD
ENDROOT
BRANCH  12  14
HETATM   14  C11 UNL     1     -13.720  40.608  38.239  1.00  0.00     0.123 C
BRANCH  14  15
HETATM   15  C12 UNL     1     -12.598  41.574  37.791  1.00  0.00     0.039 C
BRANCH  15  16
HETATM   16  C13 UNL     1     -12.720  41.674  36.278  1.00  0.00     0.115 C
BRANCH  16  17
HETATM   17  N7  UNL     1     -12.189  42.910  35.760  1.00  0.00    -0.417 N
ATOM     18  H7  UNL     1     -11.224  43.202  35.920  1.00  0.00     0.153 HD
BRANCH  17  19
HETATM   19  C14 UNL     1     -13.105  43.693  35.008  1.00  0.00     0.080 C
HETATM   20  C15 UNL     1     -14.345  44.003  35.760  1.00  0.00     0.051 C
HETATM   21  C16 UNL     1     -14.112  44.944  36.907  1.00  0.00     0.169 C
HETATM   22  O2  UNL     1     -12.867  45.582  36.856  1.00  0.00    -0.391 OA
HETATM   23  C17 UNL     1     -12.661  46.100  35.559  1.00  0.00     0.169 C
HETATM   24  C18 UNL     1     -12.397  44.981  34.627  1.00  0.00     0.051 C
ENDBRANCH  17  19
ENDBRANCH  16  17
ENDBRANCH  15  16
ENDBRANCH  14  15
ENDBRANCH  12  14
BRANCH   3  25
HETATM   25  N2  UNL     1     -14.574  34.736  40.097  1.00  0.00    -0.213 N
HETATM   26  C3  UNL     1     -15.924  34.351  39.727  1.00  0.00     0.167 C
HETATM   27  C4  UNL     1     -15.987  33.762  38.354  1.00  0.00     0.188 C
HETATM   28  O1  UNL     1     -14.912  32.926  38.069  1.00  0.00    -0.388 OA
HETATM   29  C5  UNL     1     -14.240  32.554  39.212  1.00  0.00     0.188 C
HETATM   30  C6  UNL     1     -13.529  33.807  39.746  1.00  0.00     0.167 C
ENDBRANCH   3  25
BRANCH   8  31
HETATM   31  N4  UNL     1     -14.187  37.243  43.968  1.00  0.00    -0.383 N
ATOM     32  H42 UNL     1     -15.013  36.990  44.510  1.00  0.00     0.157 HD
ATOM     33  H41 UNL     1     -13.318  37.546  44.407  1.00  0.00     0.157 HD
ENDBRANCH   8  31
TORSDOF 7
ENDMDL