MODEL 3
REMARK VINA RESULT: -8.494053393      2.454      3.182
REMARK  7 active torsions:
REMARK  status: ('A' for Active; 'I' for Inactive)
REMARK    1  A    between atoms: N3_7  and  C4_8
REMARK    2  A    between atoms: C4_8  and  C5_9
REMARK    3  A    between atoms: C5_9  and  C6_10
REMARK    4  A    between atoms: C6_10  and  C7_11
REMARK    5  A    between atoms: C9_13  and  N4_14
REMARK    6  A    between atoms: N4_14  and  C10_16
REMARK    7  A    between atoms: N6_22  and  C14_24
ROOT
HETATM    1  C7  UNL     1     -12.737  41.765  37.838  1.00  0.00     0.031 A
HETATM    2  C8  UNL     1     -13.476  41.145  38.823  1.00  0.00     0.076 A
HETATM    3  C9  UNL     1     -13.485  41.627  40.136  1.00  0.00     0.124 A
HETATM    4  N8  UNL     1     -12.759  42.713  40.430  1.00  0.00    -0.271 N
ATOM      5  H8  UNL     1     -12.745  43.089  41.378  1.00  0.00     0.190 HD
HETATM    6  N9  UNL     1     -12.063  43.284  39.468  1.00  0.00    -0.241 N
ATOM      7  H9  UNL     1     -11.514  44.110  39.704  1.00  0.00     0.208 HD
HETATM    8  N10 UNL     1     -12.029  42.860  38.217  1.00  0.00    -0.290 N
ATOM      9  H10 UNL     1     -11.465  43.359  37.529  1.00  0.00     0.188 HD
ENDROOT
BRANCH   3  10
HETATM   10  N4  UNL     1     -14.177  41.043  41.045  1.00  0.00    -0.327 N
ATOM     11  H4  UNL     1     -14.764  41.593  41.672  1.00  0.00     0.169 HD
BRANCH  10  12
HETATM   12  C10 UNL     1     -14.125  39.632  41.179  1.00  0.00     0.123 A
HETATM   13  C11 UNL     1     -13.906  39.128  42.440  1.00  0.00     0.067 A
HETATM   14  C12 UNL     1     -13.844  37.768  42.625  1.00  0.00     0.110 A
HETATM   15  N5  UNL     1     -13.998  36.938  41.572  1.00  0.00    -0.202 N
HETATM   16  C13 UNL     1     -14.212  37.419  40.343  1.00  0.00     0.679 A
ATOM     17  H5  UNL     1     -13.950  35.929  41.716  1.00  0.00     0.183 HD
HETATM   18  N6  UNL     1     -14.355  36.617  39.359  1.00  0.00    -0.221 N
HETATM   19  N7  UNL     1     -14.273  38.773  40.164  1.00  0.00    -0.177 N
ATOM     20  H6  UNL     1     -14.517  36.995  38.425  1.00  0.00     0.178 HD
ATOM     21  H7  UNL     1     -14.435  39.141  39.225  1.00  0.00     0.186 HD
BRANCH  18  22
HETATM   22  C14 UNL     1     -14.291  35.200  39.544  1.00  0.00     0.099 C
HETATM   23  C15 UNL     1     -13.028  34.721  38.816  1.00  0.00     0.026 C
HETATM   24  C16 UNL     1     -13.581  34.543  37.396  1.00  0.00     0.002 C
HETATM   25  C17 UNL     1     -14.812  33.700  37.703  1.00  0.00     0.002 C
HETATM   26  C18 UNL     1     -15.441  34.493  38.827  1.00  0.00     0.026 C
ENDBRANCH  18  22
ENDBRANCH  10  12
ENDBRANCH   3  10
BRANCH   1  27
HETATM   27  C6  UNL     1     -12.716  41.270  36.450  1.00  0.00     0.060 C
BRANCH  27  28
HETATM   28  C5  UNL     1     -12.179  42.295  35.477  1.00  0.00     0.026 C
BRANCH  28  29
HETATM   29  C4  UNL     1     -13.286  43.202  35.044  1.00  0.00     0.126 C
BRANCH  29  30
HETATM   30  N3  UNL     1     -12.953  44.588  35.153  1.00  0.00    -0.354 N
HETATM   31  C1  UNL     1     -13.083  45.416  36.303  1.00  0.00     0.186 C
HETATM   32  N1  UNL     1     -13.965  45.217  37.411  1.00  0.00    -0.064 NA
HETATM   33  N2  UNL     1     -12.269  46.423  36.228  1.00  0.00    -0.363 N
HETATM   34  C2  UNL     1     -11.503  46.355  34.985  1.00  0.00     0.142 C
ATOM     35  H2  UNL     1     -12.178  47.155  36.932  1.00  0.00     0.162 HD
HETATM   36  C3  UNL     1     -12.404  45.484  34.129  1.00  0.00     0.145 C
ENDBRANCH  29  30
ENDBRANCH  28  29
ENDBRANCH  27  28
ENDBRANCH   1  27
TORSDOF 7
ENDMDL