MODEL 3
REMARK VINA RESULT: -7.234332470      1.801      2.241
REMARK  9 active torsions:
REMARK  status: ('A' for Active; 'I' for Inactive)
REMARK    1  A    between atoms: N1_1  and  C1_4
REMARK    2  A    between atoms: C3_8  and  N3_9
REMARK    3  A    between atoms: N3_9  and  C4_11
REMARK    4  A    between atoms: C4_11  and  C5_12
REMARK    5  A    between atoms: C5_12  and  C6_13
REMARK    6  A    between atoms: C6_13  and  N4_14
REMARK    7  A    between atoms: C11_22  and  N6_23
REMARK    8  A    between atoms: N8_32  and  C18_33
REMARK    9  A    between atoms: C18_33  and  O2_34
ROOT
HETATM    1  C1  UNL     1     -13.099  41.877  39.538  1.00  0.00     0.682 A
HETATM    2  N2  UNL     1     -12.891  43.029  38.924  1.00  0.00    -0.184 N
ATOM      3  H2  UNL     1     -12.900  43.946  39.371  1.00  0.00     0.184 HD
HETATM    4  C2  UNL     1     -12.665  42.802  37.621  1.00  0.00     0.138 A
HETATM    5  C3  UNL     1     -12.394  43.646  36.548  1.00  0.00     0.148 A
HETATM    6  N5  UNL     1     -12.220  43.046  35.361  1.00  0.00    -0.174 N
ATOM      7  H5  UNL     1     -12.020  43.631  34.549  1.00  0.00     0.186 HD
HETATM    8  C11 UNL     1     -12.295  41.721  35.183  1.00  0.00     0.683 A
HETATM    9  N7  UNL     1     -12.560  40.945  36.251  1.00  0.00    -0.173 N
ATOM     10  H7  UNL     1     -12.618  39.936  36.120  1.00  0.00     0.186 HD
HETATM   11  C17 UNL     1     -12.747  41.438  37.459  1.00  0.00     0.172 A
HETATM   12  N8  UNL     1     -13.019  40.867  38.669  1.00  0.00    -0.144 N
ENDROOT
BRANCH   5  13
HETATM   13  N3  UNL     1     -12.339  44.871  36.776  1.00  0.00    -0.374 N
ATOM     14  H3  UNL     1     -12.535  45.108  37.749  1.00  0.00     0.161 HD
BRANCH  13  15
HETATM   15  C4  UNL     1     -12.062  46.001  35.976  1.00  0.00     0.123 C
BRANCH  15  16
HETATM   16  C5  UNL     1     -13.413  46.759  35.889  1.00  0.00     0.050 C
BRANCH  16  17
HETATM   17  C6  UNL     1     -13.270  47.745  34.765  1.00  0.00     0.274 C
BRANCH  17  18
HETATM   18  N4  UNL     1     -13.952  48.982  34.932  1.00  0.00     0.092 N
HETATM   19  C7  UNL     1     -14.479  49.025  36.283  1.00  0.00     0.298 C
HETATM   20  C8  UNL     1     -15.372  50.211  36.433  1.00  0.00     0.198 C
HETATM   21  O1  UNL     1     -16.485  50.042  35.656  1.00  0.00    -0.388 OA
HETATM   22  C9  UNL     1     -16.331  49.398  34.470  1.00  0.00     0.198 C
HETATM   23  C10 UNL     1     -14.930  49.309  33.943  1.00  0.00     0.298 C
ENDBRANCH  17  18
ENDBRANCH  16  17
ENDBRANCH  15  16
ENDBRANCH  13  15
ENDBRANCH   5  13
BRANCH   8  24
HETATM   24  N6  UNL     1     -12.102  41.103  33.937  1.00  0.00    -0.217 N
HETATM   25  C12 UNL     1     -11.686  39.747  33.785  1.00  0.00     0.141 C
HETATM   26  C13 UNL     1     -10.270  39.788  33.185  1.00  0.00     0.020 C
HETATM   27  C14 UNL     1     -10.230  40.673  31.992  1.00  0.00     0.003 C
HETATM   28  C15 UNL     1     -11.546  41.242  31.557  1.00  0.00     0.020 C
HETATM   29  C16 UNL     1     -12.319  41.856  32.703  1.00  0.00     0.141 C
ENDBRANCH   8  24
BRANCH   1  30
HETATM   30  N1  UNL     1     -13.347  41.761  40.821  1.00  0.00    -0.234 N
ATOM     31  H12 UNL     1     -14.275  41.727  41.244  1.00  0.00     0.174 HD
ATOM     32  H11 UNL     1     -12.627  41.691  41.539  1.00  0.00     0.174 HD
ENDBRANCH   1  30
BRANCH  12  33
HETATM   33  C18 UNL     1     -13.178  39.447  38.903  1.00  0.00     0.316 C
BRANCH  33  34
HETATM   34  O2  UNL     1     -12.025  38.825  38.470  1.00  0.00    -0.381 OA
ATOM     35  H2  UNL     1     -12.283  38.113  37.897  1.00  0.00     0.211 HD
ENDBRANCH  33  34
ENDBRANCH  12  33
TORSDOF 9
ENDMDL