MODEL 1
REMARK VINA RESULT: -6.479396561      0.000      0.000
REMARK  11 active torsions:
REMARK  status: ('A' for Active; 'I' for Inactive)
REMARK    1  A    between atoms: N1_2  and  C3_4
REMARK    2  A    between atoms: C3_4  and  C4_5
REMARK    3  A    between atoms: C4_5  and  C5_6
REMARK    4  A    between atoms: C6_9  and  C7_10
REMARK    5  A    between atoms: C7_10  and  C8_11
REMARK    6  A    between atoms: C9_13  and  N3_14
REMARK    7  A    between atoms: C10_19  and  O1_20
REMARK    8  A    between atoms: C11_22  and  N5_23
REMARK    9  A    between atoms: N5_23  and  C12_25
REMARK   10  A    between atoms: C12_25  and  C13_26
REMARK   11  A    between atoms: C13_26  and  N6_27
ROOT
HETATM    1  C5  UNL     1     -13.447  45.389  36.357  1.00  0.00     0.077 A
HETATM    2  N2  UNL     1     -13.829  46.632  36.583  1.00  0.00    -0.348 N
ATOM      3  H2  UNL     1     -14.540  46.834  37.285  1.00  0.00     0.166 HD
HETATM    4  C6  UNL     1     -13.277  47.616  35.885  1.00  0.00     0.068 A
HETATM    5  C11 UNL     1     -12.330  47.279  34.959  1.00  0.00     0.099 A
HETATM    6  S2  UNL     1     -12.278  45.533  35.140  1.00  0.00    -0.053 SA
ENDROOT
BRANCH   4   7
HETATM    7  C7  UNL     1     -13.645  48.914  36.089  1.00  0.00     0.055 C
BRANCH   7   8
HETATM    8  C8  UNL     1     -14.681  49.545  35.252  1.00  0.00     0.061 A
HETATM    9  S1  UNL     1     -15.014  49.400  33.586  1.00  0.00    -0.050 SA
HETATM   10  C9  UNL     1     -16.343  50.458  33.504  1.00  0.00     0.144 A
HETATM   11  N4  UNL     1     -16.480  50.883  34.760  1.00  0.00    -0.317 N
HETATM   12  C10 UNL     1     -15.639  50.425  35.661  1.00  0.00     0.159 A
ATOM     13  H4  UNL     1     -17.216  51.543  35.014  1.00  0.00     0.170 HD
BRANCH  10  14
HETATM   14  N3  UNL     1     -17.088  50.806  32.474  1.00  0.00    -0.380 N
ATOM     15  H32 UNL     1     -17.568  51.697  32.347  1.00  0.00     0.158 HD
ATOM     16  H31 UNL     1     -17.329  50.284  31.632  1.00  0.00     0.158 HD
ENDBRANCH  10  14
BRANCH  12  17
HETATM   17  O1  UNL     1     -15.711  50.823  37.027  1.00  0.00    -0.345 OA
ATOM     18  H1  UNL     1     -15.899  50.183  37.703  1.00  0.00     0.219 HD
ENDBRANCH  12  17
ENDBRANCH   7   8
ENDBRANCH   4   7
BRANCH   5  19
HETATM   19  N5  UNL     1     -11.612  47.933  34.136  1.00  0.00    -0.381 N
ATOM     20  H5  UNL     1     -11.312  48.824  34.534  1.00  0.00     0.160 HD
BRANCH  19  21
HETATM   21  C12 UNL     1     -11.128  47.769  32.854  1.00  0.00     0.150 C
BRANCH  21  22
HETATM   22  C13 UNL     1     -12.229  47.527  31.817  1.00  0.00     0.292 C
BRANCH  22  23
HETATM   23  N6  UNL     1     -11.604  47.404  30.514  1.00  0.00     0.090 N
HETATM   24  C14 UNL     1     -12.173  48.322  29.547  1.00  0.00     0.274 C
HETATM   25  C15 UNL     1     -10.793  48.819  29.218  1.00  0.00     0.060 C
HETATM   26  C16 UNL     1     -10.309  48.055  30.424  1.00  0.00     0.274 C
ENDBRANCH  22  23
ENDBRANCH  21  22
ENDBRANCH  19  21
ENDBRANCH   5  19
BRANCH   1  27
HETATM   27  C4  UNL     1     -13.890  44.267  36.962  1.00  0.00     0.054 C
BRANCH  27  28
HETATM   28  C3  UNL     1     -12.891  43.458  37.684  1.00  0.00     0.087 C
BRANCH  28  29
HETATM   29  N1  UNL     1     -12.782  42.133  37.260  1.00  0.00    -0.398 N
HETATM   30  C1  UNL     1     -12.601  41.788  35.931  1.00  0.00     0.148 C
HETATM   31  C2  UNL     1     -12.790  41.170  38.285  1.00  0.00     0.148 C
ENDBRANCH  28  29
ENDBRANCH  27  28
ENDBRANCH   1  27
TORSDOF 11
ENDMDL