MODEL 4
REMARK VINA RESULT: -5.470769761      2.908      4.231
REMARK  5 active torsions:
REMARK  status: ('A' for Active; 'I' for Inactive)
REMARK    1  A    between atoms: C4_5  and  C5_6
REMARK    2  A    between atoms: C5_6  and  N1_7
REMARK    3  A    between atoms: N2_11  and  C9_12
REMARK    4  A    between atoms: C9_12  and  N3_14
REMARK    5  A    between atoms: N3_14  and  C10_16
ROOT
HETATM    1  C1  UNL     1      32.535  58.016  81.203  1.00  0.00     0.014 C
HETATM    2  C2  UNL     1      33.824  58.777  81.371  1.00  0.00     0.023 C
HETATM    3  C3  UNL     1      34.542  58.395  82.622  1.00  0.00     0.174 C
HETATM    4  O1  UNL     1      35.426  59.264  83.146  1.00  0.00    -0.382 OA
HETATM    5  C4  UNL     1      36.759  59.064  82.847  1.00  0.00     0.167 C
HETATM    6  C8  UNL     1      36.955  58.458  81.474  1.00  0.00     0.159 C
HETATM    7  N2  UNL     1      36.010  58.983  80.518  1.00  0.00    -0.355 N
HETATM    8  C13 UNL     1      34.724  58.378  80.190  1.00  0.00     0.131 C
ENDROOT
BRANCH   7   9
HETATM    9  C9  UNL     1      36.314  60.174  79.839  1.00  0.00     0.170 C
HETATM   10  S1  UNL     1      36.182  61.593  80.632  1.00  0.00    -0.041 SA
BRANCH   9  11
HETATM   11  N3  UNL     1      36.731  60.130  78.486  1.00  0.00    -0.363 N
ATOM     12  H3  UNL     1      36.048  60.061  77.730  1.00  0.00     0.162 HD
BRANCH  11  13
HETATM   13  C10 UNL     1      38.158  60.186  78.202  1.00  0.00     0.075 C
HETATM   14  C11 UNL     1      38.733  58.804  78.037  1.00  0.00     0.032 C
HETATM   15  C12 UNL     1      38.329  60.982  76.907  1.00  0.00     0.032 C
ENDBRANCH  11  13
ENDBRANCH   9  11
ENDBRANCH   7   9
BRANCH   5  16
HETATM   16  C5  UNL     1      37.303  58.058  83.843  1.00  0.00     0.304 C
BRANCH  16  17
HETATM   17  N1  UNL     1      38.252  58.666  84.755  1.00  0.00     0.082 N
HETATM   18  C6  UNL     1      37.471  59.135  85.903  1.00  0.00     0.309 C
HETATM   19  C7  UNL     1      39.093  57.591  85.257  1.00  0.00     0.309 C
ENDBRANCH  16  17
ENDBRANCH   5  16
TORSDOF 5
ENDMDL