MODEL 1
REMARK VINA RESULT: -6.557889368      0.000      0.000
REMARK  4 active torsions:
REMARK  status: ('A' for Active; 'I' for Inactive)
REMARK    1  A    between atoms: N1_1  and  C1_5
REMARK    2  A    between atoms: C1_5  and  C2_6
REMARK    3  A    between atoms: C2_6  and  C3_7
REMARK    4  A    between atoms: C3_7  and  N2_8
ROOT
HETATM    1  N2  UNL     1      37.091  60.141  80.312  1.00  0.00    -0.352 N
HETATM    2  C4  UNL     1      36.937  58.728  80.635  1.00  0.00     0.126 C
HETATM    3  C5  UNL     1      36.376  58.611  82.037  1.00  0.00     0.030 C
HETATM    4  C6  UNL     1      34.974  59.223  82.074  1.00  0.00    -0.021 C
HETATM    5  C7  UNL     1      34.201  58.501  80.961  1.00  0.00     0.011 C
HETATM    6  C8  UNL     1      32.816  58.299  81.535  1.00  0.00     0.002 C
HETATM    7  C9  UNL     1      33.169  57.870  82.965  1.00  0.00     0.012 C
HETATM    8  C10 UNL     1      34.228  58.896  83.310  1.00  0.00    -0.009 C
HETATM    9  C11 UNL     1      35.055  58.380  84.440  1.00  0.00     0.038 C
HETATM   10  C12 UNL     1      35.202  59.556  85.339  1.00  0.00     0.168 C
HETATM   11  O1  UNL     1      34.353  60.548  84.944  1.00  0.00    -0.390 OA
HETATM   12  C13 UNL     1      33.529  60.072  83.946  1.00  0.00     0.177 C
HETATM   13  C14 UNL     1      35.053  60.688  81.754  1.00  0.00     0.113 C
HETATM   14  C15 UNL     1      36.269  61.054  80.990  1.00  0.00     0.220 C
HETATM   15  O2  UNL     1      36.575  62.278  80.957  1.00  0.00    -0.273 OA
ENDROOT
BRANCH   1  16
HETATM   16  C3  UNL     1      38.064  60.562  79.323  1.00  0.00     0.127 C
BRANCH  16  17
HETATM   17  C2  UNL     1      37.471  60.650  77.939  1.00  0.00     0.047 C
BRANCH  17  18
HETATM   18  C1  UNL     1      38.478  60.384  76.862  1.00  0.00     0.231 C
BRANCH  18  19
HETATM   19  N1  UNL     1      38.744  61.602  76.111  1.00  0.00    -0.079 N
ATOM     20  H13 UNL     1      39.329  62.252  76.635  1.00  0.00     0.274 HD
ATOM     21  H12 UNL     1      39.371  61.436  75.325  1.00  0.00     0.274 HD
ATOM     22  H11 UNL     1      37.867  62.032  75.815  1.00  0.00     0.274 HD
ENDBRANCH  18  19
ENDBRANCH  17  18
ENDBRANCH  16  17
ENDBRANCH   1  16
TORSDOF 4
ENDMDL