MODEL 5
REMARK VINA RESULT: -6.694579504      1.494      2.211
REMARK  3 active torsions:
REMARK  status: ('A' for Active; 'I' for Inactive)
REMARK    1  A    between atoms: C1_2  and  C2_3
REMARK       I    between atoms: C1_2  and  N2_10
REMARK    2  A    between atoms: C2_3  and  N1_4
REMARK    3  A    between atoms: N2_10  and  C7_12
ROOT
HETATM    1  O1  UNL     1      36.645  58.931  84.688  1.00  0.00    -0.272 OA
HETATM    2  C1  UNL     1      37.835  58.831  84.343  1.00  0.00     0.235 C
HETATM    3  N2  UNL     1      38.229  59.090  83.017  1.00  0.00    -0.355 N
ATOM      4  H2  UNL     1      39.229  58.978  82.850  1.00  0.00     0.162 HD
ENDROOT
BRANCH   3   5
HETATM    5  C7  UNL     1      37.498  59.475  81.882  1.00  0.00     0.089 C
HETATM    6  C8  UNL     1      36.525  58.491  81.302  1.00  0.00     0.030 C
HETATM    7  C9  UNL     1      35.800  59.173  80.156  1.00  0.00    -0.012 C
HETATM    8  C10 UNL     1      36.341  58.804  78.796  1.00  0.00     0.009 C
HETATM    9  C14 UNL     1      35.879  60.677  80.272  1.00  0.00     0.010 C
HETATM   10  C11 UNL     1      37.663  59.470  78.485  1.00  0.00    -0.013 C
HETATM   11  C12 UNL     1      37.587  60.969  78.594  1.00  0.00     0.010 C
HETATM   12  C16 UNL     1      38.610  59.133  79.634  1.00  0.00     0.011 C
HETATM   13  C13 UNL     1      37.317  61.125  80.079  1.00  0.00    -0.008 C
HETATM   14  C15 UNL     1      38.245  60.089  80.731  1.00  0.00     0.013 C
ENDBRANCH   3   5
BRANCH   2  15
HETATM   15  C2  UNL     1      38.807  58.426  85.404  1.00  0.00     0.219 C
BRANCH  15  16
HETATM   16  N1  UNL     1      38.750  57.052  85.720  1.00  0.00    -0.400 N
HETATM   17  C3  UNL     1      38.569  56.128  84.669  1.00  0.00     0.143 C
HETATM   18  C4  UNL     1      37.859  54.884  85.145  1.00  0.00     0.187 C
HETATM   19  O2  UNL     1      38.384  54.369  86.306  1.00  0.00    -0.388 OA
HETATM   20  C5  UNL     1      38.569  55.266  87.320  1.00  0.00     0.187 C
HETATM   21  C6  UNL     1      38.203  56.687  86.978  1.00  0.00     0.143 C
ENDBRANCH  15  16
ENDBRANCH   2  15
TORSDOF 3
ENDMDL