MODEL 1
REMARK VINA RESULT: -6.824002893      0.000      0.000
REMARK  5 active torsions:
REMARK  status: ('A' for Active; 'I' for Inactive)
REMARK    1  A    between atoms: O1_2  and  C2_3
REMARK    2  A    between atoms: C2_3  and  C3_4
REMARK    3  A    between atoms: C4_5  and  C5_6
REMARK    4  A    between atoms: C9_10  and  O2_11
REMARK    5  A    between atoms: C11_13  and  O3_14
ROOT
HETATM    1  C5  UNL     1      37.497  60.241  78.296  1.00  0.00     0.089 A
HETATM    2  C6  UNL     1      37.458  61.342  79.128  1.00  0.00     0.051 A
HETATM    3  C7  UNL     1      36.778  61.329  80.329  1.00  0.00    -0.019 A
HETATM    4  C8  UNL     1      36.735  62.435  81.170  1.00  0.00     0.052 A
HETATM    5  C9  UNL     1      36.054  62.414  82.369  1.00  0.00     0.102 A
HETATM    6  C11 UNL     1      35.406  61.248  82.715  1.00  0.00     0.102 A
HETATM    7  C13 UNL     1      35.450  60.148  81.876  1.00  0.00     0.053 A
HETATM    8  C14 UNL     1      36.129  60.161  80.676  1.00  0.00    -0.007 A
HETATM    9  C15 UNL     1      36.165  59.058  79.846  1.00  0.00     0.103 A
HETATM   10  N1  UNL     1      36.849  59.138  78.685  1.00  0.00    -0.353 N
HETATM   11  C16 UNL     1      36.878  57.975  77.829  1.00  0.00     0.156 C
ENDROOT
BRANCH   1  12
HETATM   12  C4  UNL     1      38.222  60.315  77.056  1.00  0.00    -0.046 C
HETATM   13  C3  UNL     1      38.815  60.380  76.002  1.00  0.00    -0.073 C
BRANCH  13  14
HETATM   14  C2  UNL     1      39.527  60.472  74.720  1.00  0.00     0.261 C
BRANCH  14  15
HETATM   15  O1  UNL     1      39.728  61.804  74.350  1.00  0.00    -0.384 OA
HETATM   16  C1  UNL     1      39.358  61.991  73.021  1.00  0.00     0.202 C
ENDBRANCH  14  15
ENDBRANCH  13  14
ENDBRANCH   1  12
BRANCH   5  17
HETATM   17  O2  UNL     1      35.994  63.495  83.224  1.00  0.00    -0.353 OA
HETATM   18  C10 UNL     1      36.728  64.670  83.080  1.00  0.00     0.210 C
ENDBRANCH   5  17
BRANCH   6  19
HETATM   19  O3  UNL     1      34.714  61.215  83.925  1.00  0.00    -0.353 OA
HETATM   20  C12 UNL     1      33.868  60.133  84.258  1.00  0.00     0.210 C
ENDBRANCH   6  19
TORSDOF 5
ENDMDL