MODEL 1
REMARK VINA RESULT: -5.735044385      0.000      0.000
REMARK  3 active torsions:
REMARK  status: ('A' for Active; 'I' for Inactive)
REMARK    1  A    between atoms: C2_2  and  N1_3
REMARK    2  A    between atoms: N1_3  and  C5_6
REMARK    3  A    between atoms: C5_6  and  C6_7
REMARK       I    between atoms: N3_12  and  C8_13
ROOT
HETATM    1  C6  UNL     1      36.435  58.577  80.996  1.00  0.00     0.109 C
HETATM    2  N2  UNL     1      35.299  57.949  81.145  1.00  0.00    -0.321 N
ATOM      3  H2  UNL     1      35.142  57.069  80.655  1.00  0.00     0.169 HD
HETATM    4  C7  UNL     1      34.271  58.480  81.988  1.00  0.00     0.183 C
HETATM    5  S1  UNL     1      32.843  57.696  82.175  1.00  0.00    -0.040 SA
HETATM    6  N3  UNL     1      34.525  59.720  82.659  1.00  0.00    -0.273 N
HETATM    7  C8  UNL     1      33.916  59.999  83.901  1.00  0.00     0.223 C
HETATM    8  C9  UNL     1      33.018  59.089  84.640  1.00  0.00     0.117 C
HETATM    9  O1  UNL     1      34.134  61.126  84.470  1.00  0.00    -0.273 OA
HETATM   10  C10 UNL     1      35.434  60.597  81.973  1.00  0.00     0.193 C
HETATM   11  C11 UNL     1      35.809  61.856  82.689  1.00  0.00     0.056 C
HETATM   12  N4  UNL     1      36.628  59.792  81.697  1.00  0.00    -0.352 N
HETATM   13  C12 UNL     1      37.955  60.229  82.140  1.00  0.00     0.153 C
ENDROOT
BRANCH   1  14
HETATM   14  C5  UNL     1      37.516  58.065  80.140  1.00  0.00     0.312 C
BRANCH  14  15
HETATM   15  N1  UNL     1      37.441  58.437  78.755  1.00  0.00    -0.069 N
HETATM   16  C3  UNL     1      36.572  57.500  78.075  1.00  0.00     0.272 C
HETATM   17  C4  UNL     1      38.691  58.487  78.068  1.00  0.00     0.272 C
BRANCH  15  18
HETATM   18  C2  UNL     1      36.820  59.751  78.588  1.00  0.00     0.232 C
HETATM   19  C1  UNL     1      37.804  60.812  78.218  1.00  0.00     0.035 C
ENDBRANCH  15  18
ENDBRANCH  14  15
ENDBRANCH   1  14
TORSDOF 3
ENDMDL