MODEL 3
REMARK VINA RESULT: -6.011065866      0.091      1.013
REMARK  4 active torsions:
REMARK  status: ('A' for Active; 'I' for Inactive)
REMARK    1  A    between atoms: C2_2  and  N1_3
REMARK    2  A    between atoms: N1_3  and  C5_6
REMARK    3  A    between atoms: C5_6  and  C6_7
REMARK       I    between atoms: C6_7  and  N2_9
REMARK    4  A    between atoms: C9_13  and  C10_14
ROOT
HETATM    1  C6  UNL     1      38.337  58.702  85.516  1.00  0.00     0.249 C
HETATM    2  O1  UNL     1      37.686  59.457  86.269  1.00  0.00    -0.271 OA
HETATM    3  N2  UNL     1      38.652  59.193  84.227  1.00  0.00    -0.304 N
ATOM      4  H2  UNL     1      39.632  59.394  84.033  1.00  0.00     0.171 HD
HETATM    5  C7  UNL     1      37.810  59.408  83.282  1.00  0.00     0.174 A
HETATM    6  C8  UNL     1      38.143  59.891  82.021  1.00  0.00     0.086 A
HETATM    7  C9  UNL     1      36.964  59.969  81.337  1.00  0.00     0.044 A
HETATM    8  N3  UNL     1      35.987  59.547  82.166  1.00  0.00    -0.263 N
ATOM      9  H3  UNL     1      34.994  59.489  81.942  1.00  0.00     0.194 HD
HETATM   10  O2  UNL     1      36.538  59.225  83.308  1.00  0.00    -0.220 OA
ENDROOT
BRANCH   1  11
HETATM   11  C5  UNL     1      38.747  57.368  85.970  1.00  0.00     0.339 C
BRANCH  11  12
HETATM   12  N1  UNL     1      38.039  56.268  85.402  1.00  0.00    -0.067 N
HETATM   13  C3  UNL     1      36.621  56.547  85.337  1.00  0.00     0.272 C
HETATM   14  C4  UNL     1      38.538  55.967  84.078  1.00  0.00     0.272 C
BRANCH  12  15
HETATM   15  C2  UNL     1      38.189  55.082  86.262  1.00  0.00     0.232 C
HETATM   16  C1  UNL     1      38.493  55.458  87.675  1.00  0.00     0.035 C
ENDBRANCH  12  15
ENDBRANCH  11  12
ENDBRANCH   1  11
BRANCH   7  17
HETATM   17  C10 UNL     1      36.685  60.415  79.950  1.00  0.00    -0.007 C
HETATM   18  C11 UNL     1      36.104  61.808  79.917  1.00  0.00     0.021 C
HETATM   19  C12 UNL     1      38.016  60.424  79.211  1.00  0.00     0.021 C
HETATM   20  C13 UNL     1      35.771  59.412  79.304  1.00  0.00     0.021 C
ENDBRANCH   7  17
TORSDOF 4
ENDMDL