MODEL 5
REMARK VINA RESULT: -5.234410734      2.584      3.241
REMARK  5 active torsions:
REMARK  status: ('A' for Active; 'I' for Inactive)
REMARK    1  A    between atoms: C1_2  and  N1_3
REMARK    2  A    between atoms: C1_2  and  N3_13
REMARK    3  A    between atoms: N1_3  and  C2_5
REMARK    4  A    between atoms: C2_5  and  C3_6
REMARK    5  A    between atoms: C3_6  and  N2_7
ROOT
HETATM    1  N1  UNL     1      34.864  61.417  81.733  1.00  0.00    -0.365 N
ATOM      2  H1  UNL     1      34.039  61.565  81.152  1.00  0.00     0.161 HD
ENDROOT
BRANCH   1   3
HETATM    3  C1  UNL     1      36.144  61.622  81.131  1.00  0.00     0.169 C
HETATM    4  S1  UNL     1      37.078  62.887  81.631  1.00  0.00    -0.041 SA
BRANCH   3   5
HETATM    5  N3  UNL     1      36.568  60.746  80.115  1.00  0.00    -0.358 N
HETATM    6  C8  UNL     1      35.679  59.736  79.623  1.00  0.00     0.125 C
HETATM    7  C9  UNL     1      36.360  58.726  78.742  1.00  0.00     0.020 C
HETATM    8  C10 UNL     1      37.447  59.246  77.876  1.00  0.00     0.003 C
HETATM    9  C11 UNL     1      37.848  60.678  78.102  1.00  0.00     0.020 C
HETATM   10  C12 UNL     1      37.917  60.928  79.595  1.00  0.00     0.125 C
ENDBRANCH   3   5
ENDBRANCH   1   3
BRANCH   1  11
HETATM   11  C2  UNL     1      34.652  61.019  83.101  1.00  0.00     0.152 C
BRANCH  11  12
HETATM   12  C3  UNL     1      35.155  59.637  83.316  1.00  0.00     0.292 C
BRANCH  12  13
HETATM   13  N2  UNL     1      36.404  59.584  84.043  1.00  0.00     0.091 N
HETATM   14  C4  UNL     1      36.274  58.945  85.327  1.00  0.00     0.282 C
HETATM   15  C5  UNL     1      37.616  59.111  86.064  1.00  0.00     0.104 C
HETATM   16  S2  UNL     1      38.676  57.820  85.278  1.00  0.00    -0.166 SA
HETATM   17  C6  UNL     1      37.869  57.624  83.632  1.00  0.00     0.104 C
HETATM   18  C7  UNL     1      37.483  59.042  83.247  1.00  0.00     0.282 C
ENDBRANCH  12  13
ENDBRANCH  11  12
ENDBRANCH   1  11
TORSDOF 5
ENDMDL