MODEL 4
REMARK VINA RESULT: -6.276384005      1.377      1.574
REMARK  3 active torsions:
REMARK  status: ('A' for Active; 'I' for Inactive)
REMARK    1  A    between atoms: C2_2  and  C3_3
REMARK    2  A    between atoms: C3_3  and  N1_4
REMARK       I    between atoms: N1_4  and  C4_6
REMARK       I    between atoms: C4_6  and  N2_8
REMARK    3  A    between atoms: N3_14  and  C10_15
ROOT
HETATM    1  C10 UNL     1      38.007  54.803  87.092  1.00  0.00     0.395 C
HETATM    2  C11 UNL     1      37.275  53.960  88.010  1.00  0.00     0.089 C
HETATM    3  N4  UNL     1      36.683  53.278  88.727  1.00  0.00    -0.195 NA
ENDROOT
BRANCH   1   4
HETATM    4  N3  UNL     1      37.400  54.860  85.778  1.00  0.00     0.102 N
HETATM    5  C9  UNL     1      38.295  54.542  84.718  1.00  0.00     0.274 C
HETATM    6  C8  UNL     1      38.259  55.635  83.703  1.00  0.00     0.041 C
HETATM    7  C7  UNL     1      37.420  56.724  84.309  1.00  0.00    -0.009 C
HETATM    8  C6  UNL     1      38.222  57.901  84.769  1.00  0.00     0.031 C
HETATM    9  C12 UNL     1      36.745  56.092  85.492  1.00  0.00     0.283 C
HETATM   10  C13 UNL     1      36.373  57.126  83.284  1.00  0.00     0.031 C
HETATM   11  C5  UNL     1      38.061  59.128  83.954  1.00  0.00     0.128 C
HETATM   12  N2  UNL     1      37.723  58.939  82.569  1.00  0.00    -0.334 N
HETATM   13  C4  UNL     1      37.920  59.980  81.642  1.00  0.00     0.318 C
HETATM   14  C14 UNL     1      37.177  57.687  82.103  1.00  0.00     0.128 C
HETATM   15  N1  UNL     1      37.625  59.857  80.263  1.00  0.00    -0.340 N
HETATM   16  O1  UNL     1      38.385  61.080  82.066  1.00  0.00    -0.247 OA
ATOM     17  H1  UNL     1      37.252  58.979  79.902  1.00  0.00     0.164 HD
BRANCH  15  18
HETATM   18  C3  UNL     1      37.853  60.982  79.349  1.00  0.00     0.150 C
BRANCH  18  19
HETATM   19  C2  UNL     1      37.598  60.586  77.950  1.00  0.00    -0.018 C
HETATM   20  C1  UNL     1      38.355  60.995  76.945  1.00  0.00     0.008 C
ENDBRANCH  18  19
ENDBRANCH  15  18
ENDBRANCH   1   4
TORSDOF 3
ENDMDL