MODEL 2
REMARK VINA RESULT: -6.541208784      2.879      5.183
REMARK  16 active torsions:
REMARK  status: ('A' for Active; 'I' for Inactive)
REMARK    1  A    between atoms: C3_3  and  N1_4
REMARK    2  A    between atoms: C4_6  and  C5_7
REMARK    3  A    between atoms: C4_6  and  N4_12
REMARK    4  A    between atoms: C5_7  and  N2_8
REMARK    5  A    between atoms: N2_8  and  N3_9
REMARK    6  A    between atoms: N4_12  and  C6_14
REMARK    7  A    between atoms: C6_14  and  C7_15
REMARK    8  A    between atoms: C7_15  and  C8_16
REMARK    9  A    between atoms: C8_16  and  C9_17
REMARK   10  A    between atoms: C9_17  and  N5_18
REMARK   11  A    between atoms: N5_18  and  C10_20
REMARK   12  A    between atoms: C11_23  and  N7_24
REMARK   13  A    between atoms: N7_24  and  C12_26
REMARK   14  A    between atoms: C12_26  and  C13_27
REMARK   15  A    between atoms: C13_27  and  O1_28
REMARK   16  A    between atoms: C16_34  and  N9_35
ROOT
HETATM    1  C1  UNL     1      16.931  20.343  32.082  1.00  0.00     0.113 C
HETATM    2  C2  UNL     1      17.347  18.991  32.477  1.00  0.00    -0.088 C
HETATM    3  C3  UNL     1      17.671  17.872  32.813  1.00  0.00     0.011 C
ENDROOT
BRANCH   3   4
HETATM    4  N1  UNL     1      18.024  16.592  33.219  1.00  0.00    -0.299 N
HETATM    5  C4  UNL     1      18.633  15.731  32.489  1.00  0.00     0.140 C
ATOM      6  H1  UNL     1      17.780  16.315  34.170  1.00  0.00     0.178 HD
BRANCH   5   7
HETATM    7  C5  UNL     1      18.938  14.418  33.063  1.00  0.00     0.257 C
BRANCH   7   8
HETATM    8  N2  UNL     1      20.032  14.252  33.639  1.00  0.00    -0.342 NA
BRANCH   8   9
HETATM    9  N3  UNL     1      21.032  13.898  34.276  1.00  0.00    -0.281 N
ATOM     10  H32 UNL     1      20.588  14.252  35.123  1.00  0.00     0.191 HD
ATOM     11  H31 UNL     1      21.917  13.549  34.642  1.00  0.00     0.191 HD
ENDBRANCH   8   9
ENDBRANCH   7   8
ENDBRANCH   5   7
BRANCH   5  12
HETATM   12  N4  UNL     1      18.983  16.079  31.167  1.00  0.00    -0.374 N
ATOM     13  H4  UNL     1      19.650  16.837  31.024  1.00  0.00     0.161 HD
BRANCH  12  14
HETATM   14  C6  UNL     1      18.436  15.405  30.000  1.00  0.00     0.121 C
BRANCH  14  15
HETATM   15  C7  UNL     1      17.050  15.873  29.677  1.00  0.00     0.021 C
BRANCH  15  16
HETATM   16  C8  UNL     1      16.127  14.692  29.456  1.00  0.00     0.021 C
BRANCH  16  17
HETATM   17  C9  UNL     1      16.074  13.791  30.665  1.00  0.00     0.121 C
BRANCH  17  18
HETATM   18  N5  UNL     1      14.917  14.107  31.441  1.00  0.00    -0.375 N
ATOM     19  H5  UNL     1      14.028  13.720  31.120  1.00  0.00     0.161 HD
BRANCH  18  20
HETATM   20  C10 UNL     1      14.885  14.824  32.494  1.00  0.00     0.136 A
HETATM   21  N6  UNL     1      15.348  14.393  33.687  1.00  0.00    -0.176 N
HETATM   22  C11 UNL     1      15.229  15.283  34.706  1.00  0.00     0.680 A
ATOM     23  H6  UNL     1      15.758  13.468  33.813  1.00  0.00     0.186 HD
HETATM   24  N8  UNL     1      14.710  16.494  34.604  1.00  0.00    -0.190 N
HETATM   25  C14 UNL     1      14.227  16.973  33.410  1.00  0.00     0.072 A
ATOM     26  H8  UNL     1      14.666  17.087  35.432  1.00  0.00     0.184 HD
HETATM   27  C15 UNL     1      13.673  18.180  33.162  1.00  0.00     0.068 A
HETATM   28  C19 UNL     1      14.328  16.107  32.361  1.00  0.00     0.078 A
HETATM   29  C16 UNL     1      13.264  18.429  31.883  1.00  0.00     0.074 A
HETATM   30  S1  UNL     1      13.658  16.984  31.066  1.00  0.00    -0.067 SA
BRANCH  22  31
HETATM   31  N7  UNL     1      15.679  14.851  35.835  1.00  0.00    -0.224 N
ATOM     32  H7  UNL     1      16.240  15.460  36.432  1.00  0.00     0.177 HD
BRANCH  31  33
HETATM   33  C12 UNL     1      15.388  13.516  36.246  1.00  0.00     0.164 C
BRANCH  33  34
HETATM   34  C13 UNL     1      14.251  13.449  37.244  1.00  0.00     0.184 C
BRANCH  34  35
HETATM   35  O1  UNL     1      14.448  14.260  38.346  1.00  0.00    -0.399 OA
ATOM     36  H1  UNL     1      14.365  13.796  39.171  1.00  0.00     0.209 HD
ENDBRANCH  34  35
ENDBRANCH  33  34
ENDBRANCH  31  33
ENDBRANCH  22  31
BRANCH  29  37
HETATM   37  N9  UNL     1      12.656  19.610  31.345  1.00  0.00    -0.384 N
HETATM   38  C17 UNL     1      13.441  20.453  30.481  1.00  0.00     0.149 C
HETATM   39  C18 UNL     1      11.314  19.936  31.659  1.00  0.00     0.149 C
ENDBRANCH  29  37
ENDBRANCH  18  20
ENDBRANCH  17  18
ENDBRANCH  16  17
ENDBRANCH  15  16
ENDBRANCH  14  15
ENDBRANCH  12  14
ENDBRANCH   5  12
ENDBRANCH   3   4
TORSDOF 16
ENDMDL