MODEL 4
REMARK VINA RESULT: -7.261957495      3.164      6.748
REMARK  11 active torsions:
REMARK  status: ('A' for Active; 'I' for Inactive)
REMARK    1  A    between atoms: N2_6  and  C4_8
REMARK    2  A    between atoms: C4_8  and  C5_9
REMARK    3  A    between atoms: C5_9  and  N3_10
REMARK    4  A    between atoms: C8_16  and  N4_17
REMARK    5  A    between atoms: N4_17  and  C9_18
REMARK    6  A    between atoms: N4_17  and  C12_21
REMARK    7  A    between atoms: C9_18  and  C10_19
REMARK    8  A    between atoms: C12_21  and  C13_22
REMARK    9  A    between atoms: C13_22  and  C14_23
REMARK   10  A    between atoms: C16_25  and  C17_26
REMARK   11  A    between atoms: C17_26  and  C18_27
ROOT
HETATM    1  C1  UNL     1      13.173  17.741  30.467  1.00  0.00     0.044 C
HETATM    2  C2  UNL     1      14.131  18.083  31.285  1.00  0.00     0.044 C
HETATM    3  N1  UNL     1      14.512  19.474  31.326  1.00  0.00    -0.342 N
ATOM      4  H1  UNL     1      13.772  20.176  31.323  1.00  0.00     0.167 HD
HETATM    5  C3  UNL     1      15.866  19.922  31.369  1.00  0.00     0.101 C
HETATM    6  N2  UNL     1      16.053  21.177  31.442  1.00  0.00    -0.375 N
ATOM      7  H2  UNL     1      17.020  21.501  31.475  1.00  0.00     0.161 HD
HETATM    8  C6  UNL     1      17.030  19.011  31.315  1.00  0.00     0.050 C
HETATM    9  C7  UNL     1      17.139  17.742  31.604  1.00  0.00     0.034 C
HETATM   10  C8  UNL     1      16.063  16.821  32.101  1.00  0.00     0.051 C
HETATM   11  C16 UNL     1      14.770  16.896  32.019  1.00  0.00     0.063 C
ENDROOT
BRANCH  11  12
HETATM   12  C17 UNL     1      13.889  15.943  32.461  1.00  0.00    -0.089 C
BRANCH  12  13
HETATM   13  C18 UNL     1      13.054  15.057  32.866  1.00  0.00     0.146 A
HETATM   14  C19 UNL     1      12.303  14.204  31.974  1.00  0.00     0.271 A
HETATM   15  O1  UNL     1      12.325  14.166  30.732  1.00  0.00    -0.266 OA
HETATM   16  N5  UNL     1      11.352  13.211  32.462  1.00  0.00    -0.299 N
HETATM   17  C20 UNL     1      11.166  13.085  33.857  1.00  0.00     0.181 A
ATOM     18  H5  UNL     1      10.834  12.621  31.811  1.00  0.00     0.171 HD
HETATM   19  S1  UNL     1      10.095  11.948  34.338  1.00  0.00    -0.040 SA
HETATM   20  N6  UNL     1      11.847  13.872  34.799  1.00  0.00    -0.299 N
HETATM   21  C21 UNL     1      12.766  14.828  34.317  1.00  0.00     0.271 A
ATOM     22  H6  UNL     1      11.684  13.757  35.799  1.00  0.00     0.171 HD
HETATM   23  O2  UNL     1      13.353  15.497  35.237  1.00  0.00    -0.266 OA
ENDBRANCH  12  13
ENDBRANCH  11  12
BRANCH  10  24
HETATM   24  N4  UNL     1      16.692  15.684  32.680  1.00  0.00    -0.380 N
BRANCH  24  25
HETATM   25  C9  UNL     1      17.203  14.742  31.700  1.00  0.00     0.122 C
BRANCH  25  26
HETATM   26  C10 UNL     1      16.340  13.657  31.218  1.00  0.00     0.015 C
HETATM   27  C11 UNL     1      15.860  14.122  29.813  1.00  0.00     0.006 C
ENDBRANCH  25  26
ENDBRANCH  24  25
BRANCH  24  28
HETATM   28  C12 UNL     1      16.949  15.527  34.076  1.00  0.00     0.123 C
BRANCH  28  29
HETATM   29  C13 UNL     1      17.367  14.139  34.514  1.00  0.00     0.019 C
BRANCH  29  30
HETATM   30  C14 UNL     1      16.111  13.380  34.916  1.00  0.00    -0.003 C
HETATM   31  C15 UNL     1      15.652  13.739  36.304  1.00  0.00     0.005 C
ENDBRANCH  29  30
ENDBRANCH  28  29
ENDBRANCH  24  28
ENDBRANCH  10  24
BRANCH   6  32
HETATM   32  C4  UNL     1      15.033  22.170  31.481  1.00  0.00     0.148 C
BRANCH  32  33
HETATM   33  C5  UNL     1      14.794  22.900  30.195  1.00  0.00     0.249 C
BRANCH  33  34
HETATM   34  N3  UNL     1      13.721  22.240  29.428  1.00  0.00    -0.078 N
ATOM     35  H33 UNL     1      13.698  21.234  29.594  1.00  0.00     0.274 HD
ATOM     36  H32 UNL     1      12.796  22.472  29.789  1.00  0.00     0.274 HD
ATOM     37  H31 UNL     1      13.811  22.461  28.437  1.00  0.00     0.274 HD
ENDBRANCH  33  34
ENDBRANCH  32  33
ENDBRANCH   6  32
TORSDOF 11
ENDMDL