MODEL 5
REMARK VINA RESULT: -7.341314680      1.969      3.054
REMARK  11 active torsions:
REMARK  status: ('A' for Active; 'I' for Inactive)
REMARK    1  A    between atoms: N1_2  and  C3_4
REMARK    2  A    between atoms: C3_4  and  C4_5
REMARK    3  A    between atoms: C4_5  and  O1_6
REMARK    4  A    between atoms: O1_6  and  C5_7
REMARK    5  A    between atoms: C5_7  and  C6_8
REMARK    6  A    between atoms: C6_8  and  O2_9
REMARK    7  A    between atoms: O2_9  and  C7_10
REMARK    8  A    between atoms: C7_10  and  C8_11
REMARK    9  A    between atoms: C8_11  and  N2_12
REMARK   10  A    between atoms: N2_12  and  C9_14
REMARK   11  A    between atoms: C14_21  and  N4_22
REMARK       I    between atoms: N4_22  and  C15_24
ROOT
HETATM    1  C9  UNL     1      15.023  16.039  30.742  1.00  0.00     0.054 A
HETATM    2  C10 UNL     1      14.994  15.357  31.993  1.00  0.00    -0.001 A
HETATM    3  C11 UNL     1      14.279  15.801  33.030  1.00  0.00     0.056 A
HETATM    4  N3  UNL     1      13.570  16.908  32.913  1.00  0.00    -0.354 N
ATOM      5  H3  UNL     1      13.027  17.238  33.710  1.00  0.00     0.166 HD
HETATM    6  C12 UNL     1      13.548  17.613  31.761  1.00  0.00     0.050 A
HETATM    7  C13 UNL     1      12.798  18.783  31.689  1.00  0.00     0.079 A
HETATM    8  C14 UNL     1      12.776  19.522  30.529  1.00  0.00     0.109 A
HETATM    9  N7  UNL     1      13.467  19.142  29.447  1.00  0.00    -0.351 N
ATOM     10  H7  UNL     1      13.442  19.700  28.593  1.00  0.00     0.166 HD
HETATM   11  C16 UNL     1      14.209  17.990  29.506  1.00  0.00     0.105 A
HETATM   12  C17 UNL     1      14.260  17.216  30.650  1.00  0.00     0.033 A
HETATM   13  C18 UNL     1      14.263  15.078  34.315  1.00  0.00     0.115 C
HETATM   14  N8  UNL     1      15.280  14.158  34.562  1.00  0.00    -0.392 N
HETATM   15  C19 UNL     1      15.856  14.198  35.878  1.00  0.00     0.148 C
HETATM   16  C20 UNL     1      16.245  13.896  33.564  1.00  0.00     0.126 C
HETATM   17  C21 UNL     1      15.823  14.142  32.155  1.00  0.00     0.063 C
ENDROOT
BRANCH   1  18
HETATM   18  N2  UNL     1      15.662  15.585  29.811  1.00  0.00    -0.366 N
ATOM     19  H2  UNL     1      14.981  15.034  29.288  1.00  0.00     0.165 HD
BRANCH  18  20
HETATM   20  C8  UNL     1      16.802  15.438  29.120  1.00  0.00     0.087 C
BRANCH  20  21
HETATM   21  C7  UNL     1      17.767  16.589  28.914  1.00  0.00     0.212 C
BRANCH  21  22
HETATM   22  O2  UNL     1      18.966  16.573  29.483  1.00  0.00    -0.384 OA
BRANCH  22  23
HETATM   23  C6  UNL     1      19.375  15.560  30.243  1.00  0.00     0.194 C
BRANCH  23  24
HETATM   24  C5  UNL     1      19.206  15.782  31.734  1.00  0.00     0.193 C
BRANCH  24  25
HETATM   25  O1  UNL     1      19.215  17.065  32.155  1.00  0.00    -0.387 OA
BRANCH  25  26
HETATM   26  C4  UNL     1      18.116  17.567  32.784  1.00  0.00     0.198 C
BRANCH  26  27
HETATM   27  C3  UNL     1      17.280  18.479  31.876  1.00  0.00     0.297 C
BRANCH  27  28
HETATM   28  N1  UNL     1      16.937  19.700  32.538  1.00  0.00     0.082 N
HETATM   29  C1  UNL     1      18.039  20.375  33.159  1.00  0.00     0.309 C
HETATM   30  C2  UNL     1      16.128  20.575  31.723  1.00  0.00     0.309 C
ENDBRANCH  27  28
ENDBRANCH  26  27
ENDBRANCH  25  26
ENDBRANCH  24  25
ENDBRANCH  23  24
ENDBRANCH  22  23
ENDBRANCH  21  22
ENDBRANCH  20  21
ENDBRANCH  18  20
ENDBRANCH   1  18
BRANCH   8  31
HETATM   31  N4  UNL     1      12.085  20.607  30.447  1.00  0.00    -0.317 N
HETATM   32  C15 UNL     1      10.991  20.650  29.549  1.00  0.00     0.187 C
HETATM   33  N5  UNL     1       9.805  20.464  30.012  1.00  0.00    -0.373 N
HETATM   34  N6  UNL     1      11.122  20.887  28.156  1.00  0.00    -0.064 NA
ATOM     35  H52 UNL     1       9.711  20.294  31.013  1.00  0.00     0.158 HD
ATOM     36  H51 UNL     1       9.017  20.495  29.365  1.00  0.00     0.158 HD
ATOM     37  H4  UNL     1      12.322  21.419  31.018  1.00  0.00     0.170 HD
ENDBRANCH   8  31
TORSDOF 11
ENDMDL