MODEL 5
REMARK VINA RESULT: -6.499751953      3.827      8.808
REMARK  14 active torsions:
REMARK  status: ('A' for Active; 'I' for Inactive)
REMARK    1  A    between atoms: C2_2  and  C3_3
REMARK    2  A    between atoms: C3_3  and  N1_4
REMARK    3  A    between atoms: N1_4  and  C4_6
REMARK    4  A    between atoms: C5_9  and  N3_10
REMARK    5  A    between atoms: N3_10  and  C6_12
REMARK    6  A    between atoms: C6_12  and  C7_13
REMARK    7  A    between atoms: C7_13  and  C8_14
REMARK    8  A    between atoms: C8_14  and  O1_15
REMARK    9  A    between atoms: C10_19  and  N5_20
REMARK   10  A    between atoms: N5_20  and  C11_22
REMARK   11  A    between atoms: N6_25  and  C14_26
REMARK   12  A    between atoms: N7_27  and  C15_29
REMARK   13  A    between atoms: C15_29  and  N8_31
REMARK   14  A    between atoms: N8_31  and  C16_33
ROOT
HETATM    1  C4  UNL     1      15.797  14.127  35.322  1.00  0.00     0.707 A
HETATM    2  N2  UNL     1      16.752  13.733  34.466  1.00  0.00    -0.022 N
ATOM      3  H2  UNL     1      17.139  12.793  34.552  1.00  0.00     0.203 HD
HETATM    4  C5  UNL     1      17.211  14.542  33.499  1.00  0.00     0.707 A
HETATM    5  N4  UNL     1      16.703  15.781  33.384  1.00  0.00    -0.022 N
ATOM      6  H4  UNL     1      17.052  16.397  32.650  1.00  0.00     0.203 HD
HETATM    7  C10 UNL     1      15.723  16.236  34.233  1.00  0.00     0.707 A
HETATM    8  N9  UNL     1      15.301  15.392  35.177  1.00  0.00    -0.021 N
ATOM      9  H9  UNL     1      14.574  15.706  35.821  1.00  0.00     0.203 HD
ENDROOT
BRANCH   7  10
HETATM   10  N5  UNL     1      15.258  17.393  34.115  1.00  0.00    -0.220 N
ATOM     11  H5  UNL     1      15.546  18.015  34.870  1.00  0.00     0.178 HD
BRANCH  10  12
HETATM   12  C11 UNL     1      14.424  18.028  33.167  1.00  0.00     0.102 C
HETATM   13  C12 UNL     1      15.095  19.216  32.525  1.00  0.00     0.045 C
HETATM   14  C13 UNL     1      14.179  19.964  31.604  1.00  0.00     0.125 C
HETATM   15  N6  UNL     1      13.662  19.022  30.631  1.00  0.00    -0.377 N
HETATM   16  C18 UNL     1      13.687  17.602  30.798  1.00  0.00     0.125 C
HETATM   17  C19 UNL     1      13.704  17.127  32.213  1.00  0.00     0.045 C
BRANCH  15  18
HETATM   18  C14 UNL     1      13.101  19.591  29.446  1.00  0.00     0.180 C
HETATM   19  N7  UNL     1      12.892  20.860  29.441  1.00  0.00    -0.330 N
ATOM     20  H7  UNL     1      13.140  21.380  30.282  1.00  0.00     0.169 HD
BRANCH  19  21
HETATM   21  C15 UNL     1      12.350  21.586  28.365  1.00  0.00     0.172 C
HETATM   22  S1  UNL     1      10.732  21.819  28.341  1.00  0.00    -0.041 SA
BRANCH  21  23
HETATM   23  N8  UNL     1      13.188  22.087  27.356  1.00  0.00    -0.367 N
ATOM     24  H8  UNL     1      12.819  22.203  26.411  1.00  0.00     0.161 HD
BRANCH  23  25
HETATM   25  C16 UNL     1      14.552  22.437  27.625  1.00  0.00     0.117 C
HETATM   26  C17 UNL     1      15.002  23.640  26.844  1.00  0.00     0.026 C
ENDBRANCH  23  25
ENDBRANCH  21  23
ENDBRANCH  19  21
ENDBRANCH  15  18
ENDBRANCH  10  12
ENDBRANCH   7  10
BRANCH   4  27
HETATM   27  N3  UNL     1      18.120  14.175  32.680  1.00  0.00    -0.225 N
ATOM     28  H3  UNL     1      18.918  13.640  33.021  1.00  0.00     0.177 HD
BRANCH  27  29
HETATM   29  C6  UNL     1      18.032  14.507  31.283  1.00  0.00     0.140 C
BRANCH  29  30
HETATM   30  C7  UNL     1      19.365  15.113  30.865  1.00  0.00     0.046 C
BRANCH  30  31
HETATM   31  C8  UNL     1      19.308  16.599  30.804  1.00  0.00     0.168 C
BRANCH  31  32
HETATM   32  O1  UNL     1      19.149  17.131  32.064  1.00  0.00    -0.396 OA
HETATM   33  C9  UNL     1      18.844  18.470  32.118  1.00  0.00     0.201 C
ENDBRANCH  31  32
ENDBRANCH  30  31
ENDBRANCH  29  30
ENDBRANCH  27  29
ENDBRANCH   4  27
BRANCH   1  34
HETATM   34  N1  UNL     1      15.338  13.370  36.259  1.00  0.00    -0.222 N
ATOM     35  H1  UNL     1      15.788  12.486  36.495  1.00  0.00     0.178 HD
BRANCH  34  36
HETATM   36  C3  UNL     1      14.150  13.829  36.967  1.00  0.00     0.164 C
BRANCH  36  37
HETATM   37  C2  UNL     1      14.023  13.185  38.290  1.00  0.00    -0.017 C
HETATM   38  C1  UNL     1      14.019  13.914  39.382  1.00  0.00     0.008 C
ENDBRANCH  36  37
ENDBRANCH  34  36
ENDBRANCH   1  34
TORSDOF 14
ENDMDL