MODEL 2
REMARK VINA RESULT: -8.528051879      2.580      6.222
REMARK  10 active torsions:
REMARK  status: ('A' for Active; 'I' for Inactive)
REMARK    1  A    between atoms: C2_2  and  N1_4
REMARK    2  A    between atoms: N1_4  and  C4_5
REMARK    3  A    between atoms: N1_4  and  C11_22
REMARK    4  A    between atoms: C4_5  and  C5_6
REMARK    5  A    between atoms: C5_6  and  N2_7
REMARK    6  A    between atoms: N2_7  and  C6_9
REMARK    7  A    between atoms: C6_9  and  C9_12
REMARK    8  A    between atoms: C9_12  and  C10_13
REMARK    9  A    between atoms: C11_22  and  C12_23
REMARK       I    between atoms: C12_23  and  N7_25
REMARK   10  A    between atoms: N7_25  and  C13_27
ROOT
HETATM    1  N1  UNL     1      17.749  17.271  30.727  1.00  0.00    -0.379 N
ENDROOT
BRANCH   1   2
HETATM    2  C2  UNL     1      17.142  16.971  29.516  1.00  0.00     0.075 C
HETATM    3  C1  UNL     1      16.481  15.618  29.417  1.00  0.00     0.032 C
HETATM    4  C3  UNL     1      17.998  17.099  28.267  1.00  0.00     0.032 C
ENDBRANCH   1   2
BRANCH   1   5
HETATM    5  C4  UNL     1      17.170  18.095  31.680  1.00  0.00     0.078 C
BRANCH   5   6
HETATM    6  C5  UNL     1      15.759  17.795  32.071  1.00  0.00     0.159 C
BRANCH   6   7
HETATM    7  N2  UNL     1      14.875  18.913  32.176  1.00  0.00    -0.409 N
ATOM      8  H2  UNL     1      15.009  19.651  32.867  1.00  0.00     0.154 HD
BRANCH   7   9
HETATM    9  C6  UNL     1      13.792  18.925  31.245  1.00  0.00     0.025 C
HETATM   10  C7  UNL     1      13.299  17.547  30.871  1.00  0.00     0.038 C
HETATM   11  C8  UNL     1      12.611  19.746  31.706  1.00  0.00     0.038 C
BRANCH   9  12
HETATM   12  C9  UNL     1      14.325  19.615  29.978  1.00  0.00     0.109 C
BRANCH  12  13
HETATM   13  C10 UNL     1      14.691  21.026  30.231  1.00  0.00     0.115 A
HETATM   14  N3  UNL     1      15.672  21.534  30.988  1.00  0.00    -0.272 N
HETATM   15  N4  UNL     1      15.624  22.852  30.912  1.00  0.00    -0.227 N
ATOM     16  H3  UNL     1      16.344  20.994  31.534  1.00  0.00     0.190 HD
HETATM   17  N5  UNL     1      14.644  23.221  30.129  1.00  0.00    -0.227 N
ATOM     18  H4  UNL     1      16.259  23.489  31.393  1.00  0.00     0.210 HD
HETATM   19  N6  UNL     1      14.059  22.112  29.700  1.00  0.00    -0.272 N
ATOM     20  H5  UNL     1      14.380  24.178  29.893  1.00  0.00     0.210 HD
ATOM     21  H6  UNL     1      13.258  22.077  29.070  1.00  0.00     0.190 HD
ENDBRANCH  12  13
ENDBRANCH   9  12
ENDBRANCH   7   9
ENDBRANCH   6   7
ENDBRANCH   5   6
ENDBRANCH   1   5
BRANCH   1  22
HETATM   22  C11 UNL     1      19.092  16.853  30.986  1.00  0.00     0.225 C
BRANCH  22  23
HETATM   23  C12 UNL     1      19.287  15.465  31.392  1.00  0.00     0.241 C
HETATM   24  O1  UNL     1      20.263  14.862  30.780  1.00  0.00    -0.271 OA
HETATM   25  N7  UNL     1      18.622  14.698  32.302  1.00  0.00    -0.307 N
ATOM     26  H7  UNL     1      19.129  13.826  32.451  1.00  0.00     0.170 HD
BRANCH  25  27
HETATM   27  C13 UNL     1      17.606  14.713  33.005  1.00  0.00     0.178 A
HETATM   28  N8  UNL     1      16.366  14.303  32.710  1.00  0.00    -0.336 N
HETATM   29  C14 UNL     1      15.354  14.373  33.592  1.00  0.00     0.060 A
ATOM     30  H8  UNL     1      16.182  13.924  31.782  1.00  0.00     0.168 HD
HETATM   31  C15 UNL     1      14.091  13.914  33.191  1.00  0.00     0.032 A
HETATM   32  C19 UNL     1      15.526  14.867  34.845  1.00  0.00     0.062 A
HETATM   33  C16 UNL     1      13.015  13.956  34.051  1.00  0.00     0.002 A
HETATM   34  C17 UNL     1      13.216  14.465  35.328  1.00  0.00     0.002 A
HETATM   35  C18 UNL     1      14.464  14.916  35.720  1.00  0.00     0.032 A
HETATM   36  N9  UNL     1      16.761  15.290  35.180  1.00  0.00    -0.318 N
HETATM   37  C20 UNL     1      17.775  15.226  34.310  1.00  0.00     0.290 A
ATOM     38  H9  UNL     1      16.926  15.666  36.113  1.00  0.00     0.169 HD
HETATM   39  O2  UNL     1      18.905  15.640  34.691  1.00  0.00    -0.264 OA
ENDBRANCH  25  27
ENDBRANCH  22  23
ENDBRANCH   1  22
TORSDOF 10
ENDMDL