MODEL 2
REMARK VINA RESULT: -7.947948806      3.786      5.705
REMARK  12 active torsions:
REMARK  status: ('A' for Active; 'I' for Inactive)
REMARK    1  A    between atoms: C2_4  and  N2_5
REMARK    2  A    between atoms: C2_4  and  C14_26
REMARK    3  A    between atoms: N2_5  and  C3_7
REMARK    4  A    between atoms: C3_7  and  C4_8
REMARK    5  A    between atoms: C4_8  and  C5_9
REMARK    6  A    between atoms: C5_9  and  N3_10
REMARK       I    between atoms: C6_12  and  N5_14
REMARK    7  A    between atoms: N5_14  and  C7_16
REMARK    8  A    between atoms: C7_16  and  C8_17
REMARK    9  A    between atoms: N6_20  and  O1_21
REMARK   10  A    between atoms: C16_28  and  O2_29
REMARK   11  A    between atoms: C18_31  and  O3_32
REMARK   12  A    between atoms: C19_34  and  O4_35
ROOT
HETATM    1  C3  UNL     1      15.294  15.455  30.637  1.00  0.00     0.123 C
ENDROOT
BRANCH   1   2
HETATM    2  N2  UNL     1      14.687  16.511  29.916  1.00  0.00    -0.376 N
ATOM      3  H2  UNL     1      14.148  16.295  29.077  1.00  0.00     0.161 HD
BRANCH   2   4
HETATM    4  C2  UNL     1      14.808  17.869  30.333  1.00  0.00     0.107 C
HETATM    5  N1  UNL     1      15.629  18.171  31.252  1.00  0.00    -0.380 N
HETATM    6  C1  UNL     1      15.903  19.459  31.811  1.00  0.00     0.147 C
ATOM      7  H1  UNL     1      16.162  17.395  31.644  1.00  0.00     0.160 HD
BRANCH   4   8
HETATM    8  C14 UNL     1      13.963  18.907  29.707  1.00  0.00     0.013 A
HETATM    9  C15 UNL     1      14.313  19.467  28.492  1.00  0.00     0.055 A
HETATM   10  C16 UNL     1      13.527  20.428  27.865  1.00  0.00     0.105 A
HETATM   11  C18 UNL     1      12.351  20.850  28.461  1.00  0.00     0.133 A
HETATM   12  C19 UNL     1      11.989  20.301  29.671  1.00  0.00     0.105 A
HETATM   13  C21 UNL     1      12.792  19.335  30.288  1.00  0.00     0.055 A
BRANCH  10  14
HETATM   14  O2  UNL     1      13.887  20.985  26.644  1.00  0.00    -0.353 OA
HETATM   15  C17 UNL     1      15.031  21.820  26.574  1.00  0.00     0.210 C
ENDBRANCH  10  14
BRANCH  11  16
HETATM   16  O3  UNL     1      11.587  21.811  27.813  1.00  0.00    -0.356 OA
ATOM     17  H3  UNL     1      11.811  22.726  27.933  1.00  0.00     0.218 HD
ENDBRANCH  11  16
BRANCH  12  18
HETATM   18  O4  UNL     1      10.815  20.725  30.265  1.00  0.00    -0.353 OA
HETATM   19  C20 UNL     1      10.305  20.040  31.392  1.00  0.00     0.210 C
ENDBRANCH  12  18
ENDBRANCH   4   8
ENDBRANCH   2   4
ENDBRANCH   1   2
BRANCH   1  20
HETATM   20  C4  UNL     1      16.555  14.883  30.057  1.00  0.00     0.039 C
BRANCH  20  21
HETATM   21  C5  UNL     1      17.216  14.085  31.198  1.00  0.00     0.123 C
BRANCH  21  22
HETATM   22  N3  UNL     1      18.615  14.392  31.258  1.00  0.00    -0.365 N
HETATM   23  C6  UNL     1      19.310  14.458  32.336  1.00  0.00     0.184 C
HETATM   24  N4  UNL     1      20.702  14.776  32.223  1.00  0.00    -0.064 NA
HETATM   25  N5  UNL     1      18.724  14.223  33.614  1.00  0.00    -0.360 N
ATOM     26  H5  UNL     1      18.665  13.268  33.966  1.00  0.00     0.162 HD
ATOM     27  H3  UNL     1      19.095  14.571  30.376  1.00  0.00     0.162 HD
BRANCH  25  28
HETATM   28  C7  UNL     1      18.210  15.303  34.423  1.00  0.00     0.161 C
BRANCH  28  29
HETATM   29  C8  UNL     1      16.757  15.140  34.609  1.00  0.00    -0.037 A
HETATM   30  C9  UNL     1      16.230  13.972  35.117  1.00  0.00     0.028 A
HETATM   31  C10 UNL     1      14.854  13.857  35.273  1.00  0.00     0.123 A
HETATM   32  N6  UNL     1      14.001  14.842  34.948  1.00  0.00    -0.241 N
HETATM   33  C11 UNL     1      14.489  15.990  34.452  1.00  0.00     0.036 A
HETATM   34  C12 UNL     1      13.564  17.118  34.075  1.00  0.00     0.071 C
HETATM   35  C13 UNL     1      15.845  16.131  34.288  1.00  0.00     0.036 A
BRANCH  32  36
HETATM   36  O1  UNL     1      12.625  14.713  35.110  1.00  0.00    -0.283 OA
ATOM     37  H1  UNL     1      12.030  14.686  34.371  1.00  0.00     0.245 HD
ENDBRANCH  32  36
ENDBRANCH  28  29
ENDBRANCH  25  28
ENDBRANCH  21  22
ENDBRANCH  20  21
ENDBRANCH   1  20
TORSDOF 12
ENDMDL