MODEL 5
REMARK VINA RESULT: -8.267046698      2.342      3.782
REMARK  9 active torsions:
REMARK  status: ('A' for Active; 'I' for Inactive)
REMARK    1  A    between atoms: C5_7  and  C6_8
REMARK    2  A    between atoms: C6_8  and  C7_9
REMARK    3  A    between atoms: C7_9  and  C8_10
REMARK       I    between atoms: C8_10  and  N2_12
REMARK    4  A    between atoms: N2_12  and  C9_14
REMARK    5  A    between atoms: N4_24  and  C15_25
REMARK    6  A    between atoms: C15_25  and  C16_26
REMARK    7  A    between atoms: C16_26  and  C17_27
REMARK    8  A    between atoms: C17_27  and  C18_28
REMARK    9  A    between atoms: C18_28  and  C19_29
ROOT
HETATM    1  C9  UNL     1      15.562  18.284  30.891  1.00  0.00     0.200 C
HETATM    2  C10 UNL     1      16.503  18.090  32.061  1.00  0.00     0.248 C
HETATM    3  O2  UNL     1      16.837  18.813  33.009  1.00  0.00    -0.271 OA
HETATM    4  N3  UNL     1      16.724  16.803  31.498  1.00  0.00    -0.298 N
HETATM    5  C11 UNL     1      15.355  16.805  31.133  1.00  0.00     0.132 C
HETATM    6  C12 UNL     1      15.142  16.029  29.885  1.00  0.00     0.106 C
HETATM    7  S1  UNL     1      16.348  14.669  30.150  1.00  0.00    -0.103 SA
HETATM    8  C13 UNL     1      17.498  15.679  31.160  1.00  0.00     0.248 A
HETATM    9  C14 UNL     1      18.856  15.682  30.769  1.00  0.00     0.284 A
HETATM   10  O3  UNL     1      19.811  15.979  30.010  1.00  0.00    -0.267 OA
HETATM   11  N4  UNL     1      18.377  15.008  32.009  1.00  0.00    -0.304 N
ENDROOT
BRANCH   1  12
HETATM   12  N2  UNL     1      14.449  19.131  31.178  1.00  0.00    -0.346 N
HETATM   13  C8  UNL     1      13.613  19.545  30.118  1.00  0.00     0.218 C
HETATM   14  O1  UNL     1      13.872  19.159  28.956  1.00  0.00    -0.274 OA
ATOM     15  H2  UNL     1      14.261  19.432  32.135  1.00  0.00     0.163 HD
BRANCH  13  16
HETATM   16  C7  UNL     1      12.435  20.424  30.323  1.00  0.00     0.109 C
BRANCH  16  17
HETATM   17  C6  UNL     1      11.146  19.630  30.316  1.00  0.00     0.068 C
BRANCH  17  18
HETATM   18  C5  UNL     1       9.964  20.504  30.420  1.00  0.00     0.033 A
HETATM   19  C3  UNL     1       9.402  21.225  29.411  1.00  0.00     0.029 A
HETATM   20  N1  UNL     1       8.353  21.876  29.943  1.00  0.00    -0.348 N
HETATM   21  C4  UNL     1       9.801  21.332  27.979  1.00  0.00     0.070 C
HETATM   22  C2  UNL     1       8.247  21.585  31.244  1.00  0.00     0.077 A
ATOM     23  H1  UNL     1       7.729  22.500  29.430  1.00  0.00     0.167 HD
HETATM   24  C1  UNL     1       7.210  22.115  32.170  1.00  0.00     0.089 C
HETATM   25  N7  UNL     1       9.246  20.737  31.532  1.00  0.00    -0.348 N
ATOM     26  H7  UNL     1       9.431  20.333  32.450  1.00  0.00     0.167 HD
ENDBRANCH  17  18
ENDBRANCH  16  17
ENDBRANCH  13  16
ENDBRANCH   1  12
BRANCH  11  27
HETATM   27  C15 UNL     1      18.857  14.246  33.121  1.00  0.00     0.130 C
BRANCH  27  28
HETATM   28  C16 UNL     1      18.076  14.575  34.375  1.00  0.00     0.020 C
BRANCH  28  29
HETATM   29  C17 UNL     1      16.771  13.860  34.470  1.00  0.00     0.009 C
BRANCH  29  30
HETATM   30  C18 UNL     1      15.861  14.609  35.411  1.00  0.00     0.072 C
BRANCH  30  31
HETATM   31  C19 UNL     1      14.845  15.293  34.585  1.00  0.00     0.086 C
HETATM   32  N5  UNL     1      14.218  14.644  33.680  1.00  0.00    -0.391 N
ATOM     33  H52 UNL     1      14.401  13.655  33.512  1.00  0.00     0.157 HD
ATOM     34  H51 UNL     1      13.516  15.116  33.109  1.00  0.00     0.157 HD
HETATM   35  N6  UNL     1      14.591  16.665  34.817  1.00  0.00    -0.088 NA
ENDBRANCH  30  31
ENDBRANCH  29  30
ENDBRANCH  28  29
ENDBRANCH  27  28
ENDBRANCH  11  27
TORSDOF 9
ENDMDL