MODEL 2
REMARK VINA RESULT: -7.761413187      2.383      9.023
REMARK  14 active torsions:
REMARK  status: ('A' for Active; 'I' for Inactive)
REMARK    1  A    between atoms: C2_2  and  C3_3
REMARK    2  A    between atoms: C3_3  and  N1_4
REMARK    3  A    between atoms: N1_4  and  C4_6
REMARK    4  A    between atoms: C4_6  and  O1_7
REMARK    5  A    between atoms: C4_6  and  N2_9
REMARK    6  A    between atoms: N2_9  and  C5_10
REMARK    7  A    between atoms: C6_13  and  N4_14
REMARK    8  A    between atoms: N4_14  and  C7_16
REMARK    9  A    between atoms: C9_18  and  O2_19
REMARK   10  A    between atoms: C12_22  and  O3_23
REMARK   11  A    between atoms: C16_29  and  C17_30
REMARK       I    between atoms: C17_30  and  N6_32
REMARK   12  A    between atoms: N6_32  and  C18_34
REMARK   13  A    between atoms: C18_34  and  C19_35
REMARK   14  A    between atoms: C19_35  and  N7_36
ROOT
HETATM    1  C5  UNL     1      15.893  17.160  33.041  1.00  0.00     0.215 A
HETATM    2  N3  UNL     1      15.720  18.321  32.388  1.00  0.00    -0.163 N
ATOM      3  H3  UNL     1      16.534  18.721  31.921  1.00  0.00     0.187 HD
HETATM    4  C6  UNL     1      14.534  19.014  32.298  1.00  0.00     0.684 A
HETATM    5  N5  UNL     1      13.467  18.451  32.937  1.00  0.00    -0.200 N
ATOM      6  H5  UNL     1      12.571  18.938  32.894  1.00  0.00     0.183 HD
HETATM    7  C15 UNL     1      13.523  17.300  33.615  1.00  0.00     0.128 A
HETATM    8  C16 UNL     1      14.718  16.651  33.672  1.00  0.00     0.106 A
ENDROOT
BRANCH   4   9
HETATM    9  N4  UNL     1      14.500  20.067  31.664  1.00  0.00    -0.191 N
ATOM     10  H4  UNL     1      15.068  20.761  32.151  1.00  0.00     0.184 HD
BRANCH   9  11
HETATM   11  C7  UNL     1      13.978  20.636  30.553  1.00  0.00     0.054 A
HETATM   12  C8  UNL     1      14.681  21.802  30.095  1.00  0.00     0.066 A
HETATM   13  C9  UNL     1      14.294  22.507  28.994  1.00  0.00     0.073 A
HETATM   14  C11 UNL     1      13.188  22.068  28.315  1.00  0.00     0.073 A
HETATM   15  C12 UNL     1      12.477  20.958  28.709  1.00  0.00     0.073 A
HETATM   16  C14 UNL     1      12.896  20.260  29.830  1.00  0.00     0.066 A
BRANCH  13  17
HETATM   17  O2  UNL     1      15.023  23.629  28.597  1.00  0.00    -0.356 OA
HETATM   18  C10 UNL     1      15.366  23.774  27.221  1.00  0.00     0.210 C
ENDBRANCH  13  17
BRANCH  15  19
HETATM   19  O3  UNL     1      11.360  20.473  28.068  1.00  0.00    -0.356 OA
HETATM   20  C13 UNL     1      10.057  20.753  28.405  1.00  0.00     0.210 C
ENDBRANCH  15  19
ENDBRANCH   9  11
ENDBRANCH   4   9
BRANCH   1  21
HETATM   21  N2  UNL     1      16.931  16.578  33.187  1.00  0.00    -0.345 NA
BRANCH  21  22
HETATM   22  C4  UNL     1      18.056  15.963  33.268  1.00  0.00     0.296 C
BRANCH  22  23
HETATM   23  N1  UNL     1      18.858  15.541  32.149  1.00  0.00    -0.341 N
ATOM     24  H1  UNL     1      19.872  15.648  32.184  1.00  0.00     0.164 HD
BRANCH  23  25
HETATM   25  C3  UNL     1      18.243  14.972  30.986  1.00  0.00     0.150 C
BRANCH  25  26
HETATM   26  C2  UNL     1      17.550  13.737  31.406  1.00  0.00    -0.018 C
HETATM   27  C1  UNL     1      16.363  13.438  30.952  1.00  0.00     0.008 C
ENDBRANCH  25  26
ENDBRANCH  23  25
ENDBRANCH  22  23
BRANCH  22  28
HETATM   28  O1  UNL     1      18.606  15.649  34.410  1.00  0.00    -0.321 OA
ATOM     29  H1  UNL     1      18.588  16.373  35.025  1.00  0.00     0.222 HD
ENDBRANCH  22  28
ENDBRANCH  21  22
ENDBRANCH   1  21
BRANCH   8  30
HETATM   30  C17 UNL     1      14.808  15.351  34.304  1.00  0.00     0.258 C
HETATM   31  O4  UNL     1      14.308  14.309  33.749  1.00  0.00    -0.267 OA
HETATM   32  N6  UNL     1      15.466  15.196  35.567  1.00  0.00    -0.352 N
ATOM     33  H6  UNL     1      15.882  16.014  36.012  1.00  0.00     0.163 HD
BRANCH  32  34
HETATM   34  C18 UNL     1      15.559  13.919  36.229  1.00  0.00     0.167 C
BRANCH  34  35
HETATM   35  C19 UNL     1      14.616  13.822  37.413  1.00  0.00     0.076 C
BRANCH  35  36
HETATM   36  N7  UNL     1      13.562  12.914  37.224  1.00  0.00    -0.400 N
HETATM   37  C20 UNL     1      12.412  13.372  36.573  1.00  0.00     0.148 C
HETATM   38  C21 UNL     1      13.617  11.662  37.832  1.00  0.00     0.148 C
ENDBRANCH  35  36
ENDBRANCH  34  35
ENDBRANCH  32  34
ENDBRANCH   8  30
TORSDOF 14
ENDMDL