MODEL 4
REMARK VINA RESULT: -7.023636675      2.142      3.505
REMARK  13 active torsions:
REMARK  status: ('A' for Active; 'I' for Inactive)
REMARK    1  A    between atoms: C2_2  and  N1_3
REMARK    2  A    between atoms: N1_3  and  C3_5
REMARK    3  A    between atoms: C3_5  and  N2_7
REMARK    4  A    between atoms: N2_7  and  C4_8
REMARK    5  A    between atoms: N2_7  and  C15_27
REMARK    6  A    between atoms: C4_8  and  C5_9
REMARK    7  A    between atoms: C5_9  and  N3_10
REMARK    8  A    between atoms: N3_10  and  C6_12
REMARK    9  A    between atoms: C9_19  and  O1_20
REMARK   10  A    between atoms: C11_22  and  O2_23
REMARK   11  A    between atoms: C15_27  and  C16_28
REMARK   12  A    between atoms: C16_28  and  S2_29
REMARK   13  A    between atoms: S2_29  and  N6_30
ROOT
HETATM    1  C5  UNL     1      16.662  19.337  32.681  1.00  0.00     0.141 C
ENDROOT
BRANCH   1   2
HETATM    2  C4  UNL     1      17.806  18.603  32.097  1.00  0.00     0.145 C
BRANCH   2   3
HETATM    3  N2  UNL     1      17.626  17.223  31.728  1.00  0.00    -0.356 N
BRANCH   3   4
HETATM    4  C3  UNL     1      18.545  16.683  30.794  1.00  0.00     0.169 C
HETATM    5  S1  UNL     1      19.400  15.379  31.258  1.00  0.00    -0.041 SA
BRANCH   4   6
HETATM    6  N1  UNL     1      18.751  17.215  29.518  1.00  0.00    -0.367 N
ATOM      7  H1  UNL     1      19.490  17.906  29.386  1.00  0.00     0.161 HD
BRANCH   6   8
HETATM    8  C2  UNL     1      17.943  16.815  28.361  1.00  0.00     0.117 C
HETATM    9  C1  UNL     1      18.333  17.532  27.112  1.00  0.00     0.026 C
ENDBRANCH   6   8
ENDBRANCH   4   6
ENDBRANCH   3   4
BRANCH   3  10
HETATM   10  C15 UNL     1      16.577  16.351  32.212  1.00  0.00     0.142 C
BRANCH  10  11
HETATM   11  C16 UNL     1      15.660  15.873  31.152  1.00  0.00     0.182 C
BRANCH  11  12
HETATM   12  S2  UNL     1      13.944  15.933  31.704  1.00  0.00     0.226 S
HETATM   13  O3  UNL     1      13.095  16.664  30.720  1.00  0.00    -0.206 OA
HETATM   14  O4  UNL     1      13.905  16.569  33.062  1.00  0.00    -0.206 OA
BRANCH  12  15
HETATM   15  N6  UNL     1      13.351  14.301  31.830  1.00  0.00    -0.328 N
ATOM     16  H62 UNL     1      13.627  13.529  31.223  1.00  0.00     0.168 HD
ATOM     17  H61 UNL     1      12.689  14.258  32.605  1.00  0.00     0.168 HD
ENDBRANCH  12  15
ENDBRANCH  11  12
ENDBRANCH  10  11
ENDBRANCH   3  10
ENDBRANCH   2   3
ENDBRANCH   1   2
BRANCH   1  18
HETATM   18  N3  UNL     1      15.888  19.915  31.569  1.00  0.00    -0.373 N
ATOM     19  H3  UNL     1      16.378  20.395  30.813  1.00  0.00     0.161 HD
BRANCH  18  20
HETATM   20  C6  UNL     1      14.601  19.826  31.536  1.00  0.00     0.128 A
HETATM   21  N4  UNL     1      13.807  19.342  32.497  1.00  0.00    -0.285 N
HETATM   22  N5  UNL     1      12.567  19.438  32.062  1.00  0.00    -0.298 N
ATOM     23  H4  UNL     1      14.106  18.969  33.398  1.00  0.00     0.188 HD
HETATM   24  C7  UNL     1      12.522  19.972  30.838  1.00  0.00     0.065 A
ATOM     25  H5  UNL     1      11.747  19.143  32.591  1.00  0.00     0.187 HD
HETATM   26  C8  UNL     1      11.502  20.288  29.954  1.00  0.00     0.071 A
HETATM   27  C14 UNL     1      13.825  20.233  30.476  1.00  0.00     0.040 A
HETATM   28  C9  UNL     1      11.774  20.858  28.721  1.00  0.00     0.103 A
HETATM   29  C11 UNL     1      13.083  21.131  28.331  1.00  0.00     0.102 A
HETATM   30  C13 UNL     1      14.077  20.809  29.222  1.00  0.00     0.057 A
BRANCH  28  31
HETATM   31  O1  UNL     1      10.769  21.172  27.843  1.00  0.00    -0.353 OA
HETATM   32  C10 UNL     1       9.404  20.989  28.097  1.00  0.00     0.210 C
ENDBRANCH  28  31
BRANCH  29  33
HETATM   33  O2  UNL     1      13.337  21.702  27.092  1.00  0.00    -0.353 OA
HETATM   34  C12 UNL     1      14.489  22.453  26.784  1.00  0.00     0.210 C
ENDBRANCH  29  33
ENDBRANCH  18  20
ENDBRANCH   1  18
TORSDOF 13
ENDMDL