MODEL 5
REMARK VINA RESULT: -8.357428701      4.637      6.723
REMARK  12 active torsions:
REMARK  status: ('A' for Active; 'I' for Inactive)
REMARK    1  A    between atoms: C2_2  and  C3_3
REMARK    2  A    between atoms: C3_3  and  C4_4
REMARK    3  A    between atoms: C3_3  and  N7_31
REMARK       I    between atoms: C4_4  and  N1_6
REMARK    4  A    between atoms: N1_6  and  C5_8
REMARK    5  A    between atoms: C5_8  and  C7_10
REMARK    6  A    between atoms: C7_10  and  C8_11
REMARK    7  A    between atoms: C8_11  and  C9_12
REMARK    8  A    between atoms: C9_12  and  C10_13
REMARK    9  A    between atoms: C10_13  and  N2_14
REMARK   10  A    between atoms: N3_18  and  C14_19
REMARK       I    between atoms: N7_31  and  C19_33
REMARK   11  A    between atoms: C19_33  and  C20_35
REMARK   12  A    between atoms: C20_35  and  N8_36
REMARK       I    between atoms: N8_36  and  C22_38
ROOT
HETATM    1  C5  UNL     1      15.667  14.715  35.387  1.00  0.00     0.080 C
HETATM    2  C6  UNL     1      14.286  15.424  35.343  1.00  0.00     0.032 C
ENDROOT
BRANCH   1   3
HETATM    3  N1  UNL     1      16.065  14.612  34.002  1.00  0.00    -0.352 N
HETATM    4  C4  UNL     1      17.348  14.999  33.536  1.00  0.00     0.264 C
HETATM    5  O1  UNL     1      18.153  15.460  34.406  1.00  0.00    -0.266 OA
ATOM      6  H1  UNL     1      15.393  14.246  33.328  1.00  0.00     0.163 HD
BRANCH   4   7
HETATM    7  C3  UNL     1      17.827  14.917  32.159  1.00  0.00     0.081 C
BRANCH   7   8
HETATM    8  C2  UNL     1      17.335  13.804  31.325  1.00  0.00     0.059 C
HETATM    9  C1  UNL     1      16.176  13.988  30.441  1.00  0.00     0.011 C
ENDBRANCH   7   8
BRANCH   7  10
HETATM   10  N7  UNL     1      18.028  16.194  31.508  1.00  0.00    -0.320 N
HETATM   11  C18 UNL     1      19.277  16.504  30.767  1.00  0.00     0.159 C
HETATM   12  C19 UNL     1      17.083  17.249  31.503  1.00  0.00     0.241 C
HETATM   13  O2  UNL     1      16.000  17.098  32.099  1.00  0.00    -0.271 OA
BRANCH  12  14
HETATM   14  C20 UNL     1      17.301  18.550  30.821  1.00  0.00     0.228 C
BRANCH  14  15
HETATM   15  N8  UNL     1      17.226  19.658  31.750  1.00  0.00    -0.351 N
HETATM   16  C21 UNL     1      18.110  19.837  32.880  1.00  0.00     0.152 C
HETATM   17  C22 UNL     1      16.227  20.633  31.544  1.00  0.00     0.184 C
HETATM   18  N9  UNL     1      14.984  20.303  31.477  1.00  0.00    -0.374 N
HETATM   19  N10 UNL     1      16.566  21.999  31.406  1.00  0.00    -0.064 NA
ATOM     20  H92 UNL     1      14.741  19.318  31.577  1.00  0.00     0.158 HD
ATOM     21  H91 UNL     1      14.262  21.008  31.328  1.00  0.00     0.158 HD
ENDBRANCH  14  15
ENDBRANCH  12  14
ENDBRANCH   7  10
ENDBRANCH   4   7
ENDBRANCH   1   3
BRANCH   1  22
HETATM   22  C7  UNL     1      15.402  13.404  36.057  1.00  0.00     0.025 C
BRANCH  22  23
HETATM   23  C8  UNL     1      14.206  13.485  36.948  1.00  0.00     0.004 C
BRANCH  23  24
HETATM   24  C9  UNL     1      14.574  13.747  38.389  1.00  0.00     0.028 C
BRANCH  24  25
HETATM   25  C10 UNL     1      13.644  12.994  39.281  1.00  0.00     0.237 C
BRANCH  25  26
HETATM   26  N2  UNL     1      14.017  13.023  40.688  1.00  0.00    -0.068 N
HETATM   27  C11 UNL     1      15.092  14.025  40.817  1.00  0.00     0.272 C
HETATM   28  C12 UNL     1      12.897  13.581  41.413  1.00  0.00     0.257 C
HETATM   29  C13 UNL     1      11.985  12.483  41.922  1.00  0.00     0.153 C
HETATM   30  N3  UNL     1      12.737  11.674  42.857  1.00  0.00    -0.357 N
HETATM   31  C16 UNL     1      14.157  11.548  42.660  1.00  0.00     0.153 C
HETATM   32  C17 UNL     1      14.496  11.774  41.189  1.00  0.00     0.257 C
BRANCH  30  33
HETATM   33  C14 UNL     1      12.038  11.045  43.919  1.00  0.00     0.165 A
HETATM   34  N4  UNL     1      12.498  10.159  44.789  1.00  0.00    -0.278 N
HETATM   35  N5  UNL     1      11.744   9.676  45.686  1.00  0.00    -0.278 N
ATOM     36  H4  UNL     1      13.472   9.861  44.736  1.00  0.00     0.189 HD
HETATM   37  C15 UNL     1      10.471  10.073  45.748  1.00  0.00     0.160 A
ATOM     38  H5  UNL     1      12.105   8.993  46.352  1.00  0.00     0.189 HD
HETATM   39  N6  UNL     1       9.526   9.707  46.580  1.00  0.00    -0.379 N
HETATM   40  S1  UNL     1      10.402  11.186  44.441  1.00  0.00    -0.016 SA
ATOM     41  H62 UNL     1       9.567   9.047  47.356  1.00  0.00     0.158 HD
ATOM     42  H61 UNL     1       8.554  10.010  46.628  1.00  0.00     0.158 HD
ENDBRANCH  30  33
ENDBRANCH  25  26
ENDBRANCH  24  25
ENDBRANCH  23  24
ENDBRANCH  22  23
ENDBRANCH   1  22
TORSDOF 12
ENDMDL