MODEL 2
REMARK VINA RESULT: -9.708567202      2.896      7.969
REMARK  12 active torsions:
REMARK  status: ('A' for Active; 'I' for Inactive)
REMARK    1  A    between atoms: O1_2  and  C2_3
REMARK    2  A    between atoms: C2_3  and  C3_4
REMARK    3  A    between atoms: C3_4  and  C4_5
REMARK    4  A    between atoms: C4_5  and  C5_6
REMARK       I    between atoms: C5_6  and  N1_8
REMARK    5  A    between atoms: N1_8  and  C6_10
REMARK    6  A    between atoms: C6_10  and  C7_11
REMARK    7  A    between atoms: C7_11  and  C8_12
REMARK    8  A    between atoms: C10_15  and  C11_16
REMARK    9  A    between atoms: C11_16  and  C12_17
REMARK   10  A    between atoms: C12_17  and  C13_18
REMARK   11  A    between atoms: C13_18  and  N2_19
REMARK   12  A    between atoms: N2_19  and  O4_21
ROOT
HETATM    1  C8  UNL     1      16.636  15.315  29.804  1.00  0.00     0.102 C
HETATM    2  C9  UNL     1      17.815  16.076  30.370  1.00  0.00     0.193 C
HETATM    3  O3  UNL     1      17.496  17.398  30.392  1.00  0.00    -0.381 OA
HETATM    4  C10 UNL     1      16.391  17.720  31.244  1.00  0.00     0.149 C
HETATM    5  C15 UNL     1      15.190  17.095  30.729  1.00  0.00     0.056 C
HETATM    6  C16 UNL     1      14.135  16.602  31.677  1.00  0.00     0.034 C
HETATM    7  C17 UNL     1      13.141  17.698  31.939  1.00  0.00     0.013 C
HETATM    8  C18 UNL     1      13.693  18.863  31.158  1.00  0.00     0.043 C
HETATM    9  C19 UNL     1      12.636  19.726  30.569  1.00  0.00     0.030 A
HETATM   10  N3  UNL     1      11.391  19.822  31.105  1.00  0.00    -0.311 N
ATOM     11  H3  UNL     1      11.163  19.289  31.944  1.00  0.00     0.170 HD
HETATM   12  C20 UNL     1      10.450  20.611  30.544  1.00  0.00     0.327 A
HETATM   13  O5  UNL     1       9.286  20.729  31.005  1.00  0.00    -0.247 OA
HETATM   14  N4  UNL     1      10.763  21.313  29.432  1.00  0.00    -0.275 N
ATOM     15  H4  UNL     1      10.058  21.911  29.001  1.00  0.00     0.173 HD
HETATM   16  C21 UNL     1      12.008  21.234  28.875  1.00  0.00     0.257 A
HETATM   17  O6  UNL     1      12.254  21.909  27.836  1.00  0.00    -0.267 OA
HETATM   18  C22 UNL     1      12.979  20.430  29.439  1.00  0.00     0.033 A
HETATM   19  C23 UNL     1      14.342  20.321  28.869  1.00  0.00     0.047 C
HETATM   20  C24 UNL     1      14.938  18.936  28.969  1.00  0.00     0.013 C
HETATM   21  C25 UNL     1      14.301  18.118  29.978  1.00  0.00     0.026 C
HETATM   22  N5  UNL     1      15.428  15.980  29.837  1.00  0.00    -0.404 N
ATOM     23  H5  UNL     1      14.679  15.677  29.214  1.00  0.00     0.154 HD
ENDROOT
BRANCH   4  24
HETATM   24  C11 UNL     1      16.932  17.599  32.598  1.00  0.00     0.036 C
BRANCH  24  25
HETATM   25  C12 UNL     1      18.109  18.397  33.043  1.00  0.00     0.019 C
BRANCH  25  26
HETATM   26  C13 UNL     1      17.564  19.805  33.464  1.00  0.00     0.120 C
BRANCH  26  27
HETATM   27  N2  UNL     1      17.979  20.788  32.517  1.00  0.00    -0.204 NA
HETATM   28  C14 UNL     1      16.958  21.295  31.662  1.00  0.00     0.143 C
BRANCH  27  29
HETATM   29  O4  UNL     1      19.097  20.381  31.875  1.00  0.00    -0.314 OA
ATOM     30  H4  UNL     1      19.285  20.956  31.142  1.00  0.00     0.237 HD
ENDBRANCH  27  29
ENDBRANCH  26  27
ENDBRANCH  25  26
ENDBRANCH  24  25
ENDBRANCH   4  24
BRANCH   1  31
HETATM   31  C7  UNL     1      16.578  13.991  30.578  1.00  0.00     0.046 C
BRANCH  31  32
HETATM   32  C6  UNL     1      17.519  14.035  31.762  1.00  0.00     0.124 C
BRANCH  32  33
HETATM   33  N1  UNL     1      16.831  14.038  33.012  1.00  0.00    -0.361 N
HETATM   34  C5  UNL     1      17.341  14.489  34.248  1.00  0.00     0.217 C
HETATM   35  O2  UNL     1      18.499  14.946  34.324  1.00  0.00    -0.274 OA
ATOM     36  H1  UNL     1      15.876  13.680  33.012  1.00  0.00     0.162 HD
BRANCH  34  37
HETATM   37  C4  UNL     1      16.496  14.416  35.449  1.00  0.00     0.105 C
BRANCH  37  38
HETATM   38  C3  UNL     1      15.188  15.133  35.378  1.00  0.00     0.035 C
BRANCH  38  39
HETATM   39  C2  UNL     1      13.990  14.255  35.180  1.00  0.00     0.167 C
BRANCH  39  40
HETATM   40  O1  UNL     1      13.956  13.604  33.979  1.00  0.00    -0.396 OA
HETATM   41  C1  UNL     1      12.707  13.571  33.416  1.00  0.00     0.201 C
ENDBRANCH  39  40
ENDBRANCH  38  39
ENDBRANCH  37  38
ENDBRANCH  34  37
ENDBRANCH  32  33
ENDBRANCH  31  32
ENDBRANCH   1  31
TORSDOF 12
ENDMDL