MODEL 5
REMARK VINA RESULT: -9.435634995      1.953      6.656
REMARK  16 active torsions:
REMARK  status: ('A' for Active; 'I' for Inactive)
REMARK    1  A    between atoms: C2_2  and  C3_3
REMARK    2  A    between atoms: C6_6  and  C7_7
REMARK    3  A    between atoms: C7_7  and  C8_8
REMARK    4  A    between atoms: C8_8  and  N1_9
REMARK    5  A    between atoms: C8_8  and  C14_27
REMARK       I    between atoms: N1_9  and  C9_11
REMARK    6  A    between atoms: C9_11  and  C10_13
REMARK    7  A    between atoms: C10_13  and  N2_14
REMARK    8  A    between atoms: C10_13  and  C11_18
REMARK    9  A    between atoms: C11_18  and  C12_19
REMARK       I    between atoms: C14_27  and  N6_29
REMARK   10  A    between atoms: N6_29  and  C16_31
REMARK   11  A    between atoms: C16_31  and  C17_32
REMARK   12  A    between atoms: C23_38  and  C24_39
REMARK   13  A    between atoms: C24_39  and  C25_40
REMARK   14  A    between atoms: C25_40  and  C26_41
REMARK   15  A    between atoms: C26_41  and  O3_42
REMARK   16  A    between atoms: C26_41  and  O4_44
ROOT
HETATM    1  C8  UNL     1      14.019  17.738  30.805  1.00  0.00     0.201 C
ENDROOT
BRANCH   1   2
HETATM    2  C7  UNL     1      15.275  17.411  30.144  1.00  0.00     0.021 C
BRANCH   2   3
HETATM    3  C6  UNL     1      16.439  16.861  30.796  1.00  0.00    -0.011 A
HETATM    4  C5  UNL     1      16.773  15.582  30.422  1.00  0.00     0.015 A
HETATM    5  C4  UNL     1      17.894  14.859  30.966  1.00  0.00     0.026 A
HETATM    6  C3  UNL     1      18.702  15.353  31.881  1.00  0.00     0.009 A
HETATM    7  N7  UNL     1      18.424  16.663  32.338  1.00  0.00    -0.359 N
HETATM    8  C23 UNL     1      17.305  17.403  31.803  1.00  0.00     0.038 A
ATOM      9  H7  UNL     1      19.020  17.087  33.050  1.00  0.00     0.166 HD
BRANCH   6  10
HETATM   10  C2  UNL     1      19.861  14.560  32.419  1.00  0.00     0.052 C
HETATM   11  C1  UNL     1      19.498  13.958  33.768  1.00  0.00     0.011 C
ENDBRANCH   6  10
BRANCH   8  12
HETATM   12  C24 UNL     1      17.003  18.555  32.388  1.00  0.00     0.008 C
BRANCH  12  13
HETATM   13  C25 UNL     1      17.532  19.857  31.973  1.00  0.00     0.089 C
BRANCH  13  14
HETATM   14  C26 UNL     1      16.549  20.903  31.581  1.00  0.00     0.257 C
BRANCH  14  15
HETATM   15  O3  UNL     1      15.857  20.610  30.415  1.00  0.00    -0.371 OA
ATOM     16  H3  UNL     1      15.198  19.934  30.523  1.00  0.00     0.212 HD
ENDBRANCH  14  15
BRANCH  14  17
HETATM   17  O4  UNL     1      17.075  22.194  31.609  1.00  0.00    -0.371 OA
ATOM     18  H4  UNL     1      17.516  22.440  30.803  1.00  0.00     0.212 HD
ENDBRANCH  14  17
ENDBRANCH  13  14
ENDBRANCH  12  13
ENDBRANCH   8  12
ENDBRANCH   2   3
ENDBRANCH   1   2
BRANCH   1  19
HETATM   19  N1  UNL     1      12.982  18.382  30.068  1.00  0.00    -0.343 N
HETATM   20  C9  UNL     1      12.544  19.654  30.580  1.00  0.00     0.249 C
HETATM   21  O1  UNL     1      13.092  20.151  31.617  1.00  0.00    -0.271 OA
ATOM     22  H1  UNL     1      12.576  17.968  29.230  1.00  0.00     0.163 HD
BRANCH  20  23
HETATM   23  C10 UNL     1      11.468  20.408  29.941  1.00  0.00     0.281 C
BRANCH  23  24
HETATM   24  N2  UNL     1      10.308  19.552  29.891  1.00  0.00    -0.066 N
ATOM     25  H23 UNL     1      10.000  19.354  28.939  1.00  0.00     0.275 HD
ATOM     26  H22 UNL     1      10.511  18.591  30.169  1.00  0.00     0.275 HD
ATOM     27  H21 UNL     1       9.582  19.986  30.462  1.00  0.00     0.275 HD
ENDBRANCH  23  24
BRANCH  23  28
HETATM   28  C11 UNL     1      11.881  20.767  28.541  1.00  0.00     0.120 C
BRANCH  28  29
HETATM   29  C12 UNL     1      13.118  21.568  28.440  1.00  0.00     0.099 A
HETATM   30  N3  UNL     1      13.814  21.792  27.287  1.00  0.00    -0.340 N
HETATM   31  C13 UNL     1      14.860  22.559  27.555  1.00  0.00     0.198 A
ATOM     32  H3  UNL     1      13.567  21.427  26.367  1.00  0.00     0.168 HD
HETATM   33  N4  UNL     1      14.858  22.838  28.866  1.00  0.00    -0.295 N
HETATM   34  N5  UNL     1      13.816  22.241  29.370  1.00  0.00    -0.288 N
ATOM     35  H4  UNL     1      15.538  23.407  29.370  1.00  0.00     0.187 HD
ATOM     36  H5  UNL     1      13.560  22.280  30.357  1.00  0.00     0.188 HD
ENDBRANCH  28  29
ENDBRANCH  23  28
ENDBRANCH  20  23
ENDBRANCH   1  19
BRANCH   1  37
HETATM   37  C14 UNL     1      13.432  16.530  31.519  1.00  0.00     0.246 C
HETATM   38  O2  UNL     1      12.990  15.625  30.778  1.00  0.00    -0.271 OA
HETATM   39  N6  UNL     1      13.358  16.377  32.900  1.00  0.00    -0.350 N
HETATM   40  C15 UNL     1      13.743  17.321  33.923  1.00  0.00     0.153 C
BRANCH  39  41
HETATM   41  C16 UNL     1      12.859  15.099  33.452  1.00  0.00     0.164 C
BRANCH  41  42
HETATM   42  C17 UNL     1      13.905  14.459  34.298  1.00  0.00    -0.040 A
HETATM   43  C18 UNL     1      15.152  14.186  33.720  1.00  0.00     0.009 A
HETATM   44  C19 UNL     1      16.155  13.595  34.448  1.00  0.00     0.001 A
HETATM   45  C20 UNL     1      15.982  13.242  35.789  1.00  0.00     0.000 A
HETATM   46  C21 UNL     1      14.753  13.517  36.346  1.00  0.00     0.001 A
HETATM   47  C22 UNL     1      13.731  14.116  35.607  1.00  0.00     0.009 A
ENDBRANCH  41  42
ENDBRANCH  39  41
ENDBRANCH   1  37
TORSDOF 16
ENDMDL