MODEL 4
REMARK VINA RESULT: -7.398987860      2.680      7.839
REMARK  16 active torsions:
REMARK  status: ('A' for Active; 'I' for Inactive)
REMARK    1  A    between atoms: S1_2  and  C2_3
REMARK    2  A    between atoms: C3_4  and  O1_5
REMARK    3  A    between atoms: C4_7  and  C5_8
REMARK    4  A    between atoms: C5_8  and  N1_9
REMARK    5  A    between atoms: N1_9  and  C8_12
REMARK    6  A    between atoms: C8_12  and  C9_13
REMARK    7  A    between atoms: C9_13  and  C10_14
REMARK    8  A    between atoms: C10_14  and  C11_15
REMARK    9  A    between atoms: C11_15  and  N2_16
REMARK   10  A    between atoms: N2_16  and  C12_17
REMARK   11  A    between atoms: C12_17  and  C13_18
REMARK   12  A    between atoms: C18_25  and  C19_26
REMARK   13  A    between atoms: C19_26  and  O4_27
REMARK   14  A    between atoms: C20_29  and  O5_30
REMARK   15  A    between atoms: O5_30  and  C21_31
REMARK   16  A    between atoms: C22_34  and  O7_35
ROOT
HETATM    1  C2  UNL     1      15.740  20.386  31.730  1.00  0.00     0.107 C
HETATM    2  C3  UNL     1      15.537  19.105  31.015  1.00  0.00     0.140 C
HETATM    3  C4  UNL     1      14.069  18.621  31.160  1.00  0.00     0.050 C
HETATM    4  C18 UNL     1      13.275  19.688  30.483  1.00  0.00     0.050 C
HETATM    5  C20 UNL     1      14.034  20.900  30.065  1.00  0.00     0.169 C
HETATM    6  C22 UNL     1      15.053  21.478  30.970  1.00  0.00     0.164 C
ENDROOT
BRANCH   3   7
HETATM    7  C5  UNL     1      14.065  17.273  30.560  1.00  0.00     0.244 C
BRANCH   7   8
HETATM    8  N1  UNL     1      13.572  16.147  31.232  1.00  0.00    -0.074 N
HETATM    9  C6  UNL     1      12.230  15.760  30.887  1.00  0.00     0.272 C
HETATM   10  C7  UNL     1      13.622  16.227  32.680  1.00  0.00     0.272 C
BRANCH   8  11
HETATM   11  C8  UNL     1      14.384  14.937  30.911  1.00  0.00     0.236 C
BRANCH  11  12
HETATM   12  C9  UNL     1      15.498  15.215  29.971  1.00  0.00     0.029 C
BRANCH  12  13
HETATM   13  C10 UNL     1      16.746  14.560  30.413  1.00  0.00     0.029 C
BRANCH  13  14
HETATM   14  C11 UNL     1      16.939  14.162  31.810  1.00  0.00     0.238 C
BRANCH  14  15
HETATM   15  N2  UNL     1      17.757  14.905  32.678  1.00  0.00    -0.058 N
HETATM   16  C14 UNL     1      18.341  13.945  33.647  1.00  0.00     0.238 C
HETATM   17  C15 UNL     1      17.176  13.628  34.573  1.00  0.00     0.029 C
HETATM   18  C16 UNL     1      16.335  14.869  34.578  1.00  0.00     0.029 C
HETATM   19  C17 UNL     1      17.014  15.754  33.606  1.00  0.00     0.238 C
BRANCH  15  20
HETATM   20  C12 UNL     1      18.792  15.698  32.090  1.00  0.00     0.349 C
BRANCH  20  21
HETATM   21  C13 UNL     1      20.017  15.046  31.672  1.00  0.00     0.199 C
HETATM   22  O2  UNL     1      20.187  14.768  30.447  1.00  0.00    -0.647 OA
HETATM   23  O3  UNL     1      21.030  14.704  32.525  1.00  0.00    -0.647 OA
ENDBRANCH  20  21
ENDBRANCH  15  20
ENDBRANCH  14  15
ENDBRANCH  13  14
ENDBRANCH  12  13
ENDBRANCH  11  12
ENDBRANCH   8  11
ENDBRANCH   7   8
ENDBRANCH   3   7
BRANCH   2  24
HETATM   24  O1  UNL     1      16.403  18.169  31.563  1.00  0.00    -0.394 OA
ATOM     25  H1  UNL     1      17.066  17.969  30.913  1.00  0.00     0.210 HD
ENDBRANCH   2  24
BRANCH   4  26
HETATM   26  C19 UNL     1      12.072  20.162  31.270  1.00  0.00     0.172 C
BRANCH  26  27
HETATM   27  O4  UNL     1      11.971  19.551  32.511  1.00  0.00    -0.400 OA
ATOM     28  H4  UNL     1      11.974  20.175  33.227  1.00  0.00     0.209 HD
ENDBRANCH  26  27
ENDBRANCH   4  26
BRANCH   1  29
HETATM   29  S1  UNL     1      17.517  20.679  31.913  1.00  0.00    -0.163 SA
HETATM   30  C1  UNL     1      18.152  20.100  33.483  1.00  0.00     0.090 C
ENDBRANCH   1  29
BRANCH   5  31
HETATM   31  O5  UNL     1      14.503  20.777  28.720  1.00  0.00    -0.298 OA
BRANCH  31  32
HETATM   32  C21 UNL     1      14.539  21.784  27.802  1.00  0.00     0.373 C
HETATM   33  N3  UNL     1      15.477  22.857  27.837  1.00  0.00    -0.032 NA
HETATM   34  O6  UNL     1      13.694  21.769  26.863  1.00  0.00    -0.242 OA
ENDBRANCH  31  32
ENDBRANCH   5  31
BRANCH   6  35
HETATM   35  O7  UNL     1      14.500  22.444  31.814  1.00  0.00    -0.392 OA
ATOM     36  H7  UNL     1      15.139  23.091  32.091  1.00  0.00     0.210 HD
ENDBRANCH   6  35
TORSDOF 16
ENDMDL