MODEL 2
REMARK VINA RESULT: -8.255928217      0.888      1.037
REMARK  13 active torsions:
REMARK  status: ('A' for Active; 'I' for Inactive)
REMARK    1  A    between atoms: C2_2  and  C3_3
REMARK    2  A    between atoms: C3_3  and  C4_4
REMARK    3  A    between atoms: C4_4  and  N1_5
REMARK       I    between atoms: N1_5  and  C5_7
REMARK    4  A    between atoms: N3_9  and  C6_11
REMARK    5  A    between atoms: C6_11  and  C7_12
REMARK    6  A    between atoms: C7_12  and  C8_13
REMARK    7  A    between atoms: C8_13  and  C9_14
REMARK    8  A    between atoms: N4_16  and  S1_17
REMARK    9  A    between atoms: S1_17  and  N5_20
REMARK   10  A    between atoms: C17_31  and  C18_32
REMARK   11  A    between atoms: C18_32  and  C19_33
REMARK   12  A    between atoms: C19_33  and  C20_34
REMARK   13  A    between atoms: C20_34  and  N7_35
ROOT
HETATM    1  C9  UNL     1      14.397  18.387  31.913  1.00  0.00     0.098 C
HETATM    2  C10 UNL     1      15.369  17.874  30.943  1.00  0.00     0.167 C
HETATM    3  N4  UNL     1      16.686  18.547  30.861  1.00  0.00    -0.221 N
HETATM    4  C15 UNL     1      16.506  19.877  30.905  1.00  0.00    -0.001 C
HETATM    5  C16 UNL     1      16.183  21.221  31.048  1.00  0.00     0.090 C
HETATM    6  N6  UNL     1      17.140  22.041  31.224  1.00  0.00    -0.393 N
ATOM      7  H61 UNL     1      16.903  23.027  31.329  1.00  0.00     0.156 HD
ATOM      8  H62 UNL     1      18.042  21.563  31.219  1.00  0.00     0.156 HD
HETATM    9  C17 UNL     1      14.823  21.942  31.054  1.00  0.00     0.144 C
HETATM   10  N8  UNL     1      13.815  21.006  31.598  1.00  0.00    -0.350 N
ATOM     11  H8  UNL     1      13.014  21.522  31.963  1.00  0.00     0.163 HD
HETATM   12  C21 UNL     1      13.615  19.593  31.771  1.00  0.00     0.224 C
HETATM   13  O4  UNL     1      12.341  19.457  31.801  1.00  0.00    -0.273 OA
ENDROOT
BRANCH   1  14
HETATM   14  C8  UNL     1      13.381  17.221  32.048  1.00  0.00     0.017 C
BRANCH  14  15
HETATM   15  C7  UNL     1      13.484  16.273  30.884  1.00  0.00     0.020 C
BRANCH  15  16
HETATM   16  C6  UNL     1      13.200  14.877  31.440  1.00  0.00     0.122 C
BRANCH  16  17
HETATM   17  N3  UNL     1      14.099  14.553  32.535  1.00  0.00    -0.365 N
HETATM   18  C5  UNL     1      13.690  13.891  33.572  1.00  0.00     0.183 C
HETATM   19  N1  UNL     1      14.606  13.601  34.609  1.00  0.00    -0.365 N
HETATM   20  N2  UNL     1      12.348  13.451  33.688  1.00  0.00    -0.064 NA
ATOM     21  H1  UNL     1      15.291  12.853  34.500  1.00  0.00     0.162 HD
ATOM     22  H3  UNL     1      15.073  14.853  32.487  1.00  0.00     0.162 HD
BRANCH  19  23
HETATM   23  C4  UNL     1      14.558  14.380  35.828  1.00  0.00     0.122 C
BRANCH  23  24
HETATM   24  C3  UNL     1      14.933  13.564  37.050  1.00  0.00     0.019 C
BRANCH  24  25
HETATM   25  C2  UNL     1      13.609  13.077  37.647  1.00  0.00    -0.003 C
HETATM   26  C1  UNL     1      13.754  13.063  39.135  1.00  0.00     0.005 C
ENDBRANCH  24  25
ENDBRANCH  23  24
ENDBRANCH  19  23
ENDBRANCH  16  17
ENDBRANCH  15  16
ENDBRANCH  14  15
ENDBRANCH   1  14
BRANCH   3  27
HETATM   27  S1  UNL     1      17.980  17.740  31.518  1.00  0.00     0.333 S
HETATM   28  O1  UNL     1      19.185  17.740  30.562  1.00  0.00    -0.181 OA
HETATM   29  O2  UNL     1      18.489  18.623  32.679  1.00  0.00    -0.181 OA
BRANCH  27  30
HETATM   30  N5  UNL     1      17.754  16.209  32.172  1.00  0.00    -0.269 N
HETATM   31  C11 UNL     1      18.167  15.164  31.316  1.00  0.00     0.168 C
HETATM   32  C12 UNL     1      17.545  13.826  31.693  1.00  0.00     0.189 C
HETATM   33  O3  UNL     1      17.162  13.771  33.006  1.00  0.00    -0.385 OA
HETATM   34  C13 UNL     1      17.944  14.497  33.891  1.00  0.00     0.213 C
HETATM   35  C14 UNL     1      17.959  15.980  33.540  1.00  0.00     0.103 C
ENDBRANCH  27  30
ENDBRANCH   3  27
BRANCH   9  36
HETATM   36  C18 UNL     1      14.451  22.374  29.679  1.00  0.00     0.034 C
BRANCH  36  37
HETATM   37  C19 UNL     1      13.983  21.228  28.831  1.00  0.00     0.029 C
BRANCH  37  38
HETATM   38  C20 UNL     1      12.648  21.550  28.156  1.00  0.00     0.230 C
BRANCH  38  39
HETATM   39  N7  UNL     1      11.609  21.171  29.095  1.00  0.00    -0.079 N
ATOM     40  H73 UNL     1      11.385  20.176  29.071  1.00  0.00     0.274 HD
ATOM     41  H72 UNL     1      11.911  21.210  30.069  1.00  0.00     0.274 HD
ATOM     42  H71 UNL     1      10.807  21.769  28.897  1.00  0.00     0.274 HD
ENDBRANCH  38  39
ENDBRANCH  37  38
ENDBRANCH  36  37
ENDBRANCH   9  36
TORSDOF 13
ENDMDL