MODEL 5
REMARK VINA RESULT: -8.221227820      2.094      3.789
REMARK  16 active torsions:
REMARK  status: ('A' for Active; 'I' for Inactive)
REMARK    1  A    between atoms: N1_2  and  C3_4
REMARK    2  A    between atoms: C3_4  and  C4_5
REMARK    3  A    between atoms: C3_4  and  C22_36
REMARK    4  A    between atoms: C4_5  and  C5_6
REMARK    5  A    between atoms: C5_6  and  C6_7
REMARK    6  A    between atoms: C5_6  and  C10_15
REMARK    7  A    between atoms: C6_7  and  C7_8
REMARK    8  A    between atoms: C7_8  and  C8_9
REMARK    9  A    between atoms: C8_9  and  N2_10
REMARK   10  A    between atoms: C10_15  and  O1_16
REMARK   11  A    between atoms: C10_15  and  N5_18
REMARK   12  A    between atoms: N5_18  and  C11_19
REMARK   13  A    between atoms: N5_18  and  C18_32
REMARK   14  A    between atoms: C11_19  and  C12_20
REMARK       I    between atoms: C22_36  and  N9_38
REMARK   15  A    between atoms: N9_38  and  N10_40
REMARK   16  A    between atoms: N10_40  and  C23_42
ROOT
HETATM    1  C5  UNL     1      14.510  18.004  31.411  1.00  0.00     0.063 C
ENDROOT
BRANCH   1   2
HETATM    2  C4  UNL     1      15.555  18.864  32.058  1.00  0.00     0.058 C
BRANCH   2   3
HETATM    3  C3  UNL     1      16.508  19.575  31.203  1.00  0.00     0.315 C
BRANCH   3   4
HETATM    4  N1  UNL     1      17.804  19.589  31.908  1.00  0.00     0.093 N
HETATM    5  C1  UNL     1      18.633  18.464  31.504  1.00  0.00     0.310 C
HETATM    6  C2  UNL     1      17.548  19.377  33.343  1.00  0.00     0.310 C
ENDBRANCH   3   4
BRANCH   3   7
HETATM    7  C22 UNL     1      16.208  20.964  30.846  1.00  0.00     0.269 C
HETATM    8  O2  UNL     1      16.676  21.959  31.484  1.00  0.00    -0.269 OA
HETATM    9  N9  UNL     1      15.358  21.236  29.745  1.00  0.00    -0.266 N
ATOM     10  H9  UNL     1      14.970  20.449  29.224  1.00  0.00     0.190 HD
BRANCH   9  11
HETATM   11  N10 UNL     1      15.027  22.528  29.341  1.00  0.00    -0.275 N
ATOM     12  H10 UNL     1      14.954  23.251  30.058  1.00  0.00     0.189 HD
BRANCH  11  13
HETATM   13  C23 UNL     1      14.788  22.897  28.003  1.00  0.00     0.368 C
HETATM   14  O3  UNL     1      15.114  24.043  27.597  1.00  0.00    -0.282 OA
ENDBRANCH  11  13
ENDBRANCH   9  11
ENDBRANCH   3   7
ENDBRANCH   2   3
ENDBRANCH   1   2
BRANCH   1  15
HETATM   15  C6  UNL     1      13.200  18.407  32.029  1.00  0.00     0.014 C
BRANCH  15  16
HETATM   16  C7  UNL     1      12.600  19.674  31.539  1.00  0.00     0.020 C
BRANCH  16  17
HETATM   17  C8  UNL     1      11.910  19.588  30.208  1.00  0.00     0.122 C
BRANCH  17  18
HETATM   18  N2  UNL     1      11.907  20.913  29.568  1.00  0.00    -0.367 N
HETATM   19  C9  UNL     1      11.162  21.169  28.556  1.00  0.00     0.196 C
HETATM   20  N3  UNL     1      10.298  20.164  28.010  1.00  0.00    -0.067 NA
HETATM   21  N4  UNL     1      11.138  22.433  27.918  1.00  0.00    -0.067 NA
ATOM     22  H2  UNL     1      12.512  21.646  29.938  1.00  0.00     0.161 HD
ENDBRANCH  17  18
ENDBRANCH  16  17
ENDBRANCH  15  16
ENDBRANCH   1  15
BRANCH   1  23
HETATM   23  C10 UNL     1      14.685  16.577  31.448  1.00  0.00     0.122 C
BRANCH  23  24
HETATM   24  O1  UNL     1      13.721  15.930  30.823  1.00  0.00    -0.349 OA
ATOM     25  H1  UNL     1      13.800  14.987  30.904  1.00  0.00     0.219 HD
ENDBRANCH  23  24
BRANCH  23  26
HETATM   26  N5  UNL     1      15.632  15.710  31.986  1.00  0.00    -0.332 N
BRANCH  26  27
HETATM   27  C11 UNL     1      15.898  15.500  33.351  1.00  0.00     0.105 C
BRANCH  27  28
HETATM   28  C12 UNL     1      14.985  14.763  34.191  1.00  0.00    -0.018 A
HETATM   29  C13 UNL     1      13.849  14.121  33.813  1.00  0.00     0.015 A
HETATM   30  C14 UNL     1      13.030  13.433  34.704  1.00  0.00     0.034 A
HETATM   31  C15 UNL     1      13.363  13.388  36.023  1.00  0.00     0.077 A
HETATM   32  N6  UNL     1      12.792  12.823  37.087  1.00  0.00    -0.284 N
HETATM   33  C16 UNL     1      14.502  14.025  36.436  1.00  0.00     0.078 A
HETATM   34  N7  UNL     1      13.564  13.109  38.126  1.00  0.00    -0.242 N
ATOM     35  H6  UNL     1      11.930  12.277  37.099  1.00  0.00     0.188 HD
HETATM   36  N8  UNL     1      14.591  13.829  37.748  1.00  0.00    -0.284 N
ATOM     37  H7  UNL     1      13.383  12.811  39.084  1.00  0.00     0.208 HD
ATOM     38  H8  UNL     1      15.331  14.179  38.356  1.00  0.00     0.188 HD
HETATM   39  C17 UNL     1      15.296  14.695  35.557  1.00  0.00     0.046 A
ENDBRANCH  27  28
ENDBRANCH  26  27
BRANCH  26  40
HETATM   40  C18 UNL     1      16.470  14.989  30.997  1.00  0.00     0.027 C
HETATM   41  C19 UNL     1      15.958  13.625  30.689  1.00  0.00     0.038 C
HETATM   42  C20 UNL     1      17.845  14.812  31.666  1.00  0.00     0.038 C
HETATM   43  C21 UNL     1      16.681  15.734  29.734  1.00  0.00     0.038 C
ENDBRANCH  26  40
ENDBRANCH  23  26
ENDBRANCH   1  23
TORSDOF 16
ENDMDL