MODEL 3
REMARK VINA RESULT: -8.019108078      2.634      5.161
REMARK  12 active torsions:
REMARK  status: ('A' for Active; 'I' for Inactive)
REMARK    1  A    between atoms: C2_2  and  C3_3
REMARK    2  A    between atoms: C3_3  and  C4_4
REMARK    3  A    between atoms: C4_4  and  N8_35
REMARK    4  A    between atoms: N1_5  and  C5_7
REMARK    5  A    between atoms: C5_7  and  C6_8
REMARK    6  A    between atoms: C6_8  and  C7_9
REMARK    7  A    between atoms: C7_9  and  C8_10
REMARK       I    between atoms: C8_10  and  N2_12
REMARK    8  A    between atoms: C12_22  and  N5_23
REMARK    9  A    between atoms: C13_25  and  C14_26
REMARK   10  A    between atoms: N8_35  and  N9_37
REMARK   11  A    between atoms: N9_37  and  S1_39
REMARK   12  A    between atoms: S1_39  and  N10_40
ROOT
HETATM    1  C8  UNL     1      16.511  18.028  30.412  1.00  0.00     0.223 C
HETATM    2  O1  UNL     1      15.864  16.971  30.608  1.00  0.00    -0.273 OA
HETATM    3  N2  UNL     1      16.041  19.225  30.031  1.00  0.00    -0.311 N
ATOM      4  H2  UNL     1      16.866  19.784  29.812  1.00  0.00     0.170 HD
HETATM    5  C9  UNL     1      15.083  19.961  29.825  1.00  0.00     0.141 A
HETATM    6  N3  UNL     1      15.381  21.239  29.385  1.00  0.00    -0.292 N
ATOM      7  H3  UNL     1      16.351  21.523  29.242  1.00  0.00     0.172 HD
HETATM    8  C10 UNL     1      14.396  22.087  29.151  1.00  0.00     0.326 A
HETATM    9  O2  UNL     1      14.697  23.259  28.745  1.00  0.00    -0.247 OA
HETATM   10  N4  UNL     1      13.079  21.782  29.316  1.00  0.00    -0.303 N
ATOM     11  H4  UNL     1      12.360  22.477  29.118  1.00  0.00     0.171 HD
HETATM   12  C11 UNL     1      12.735  20.544  29.744  1.00  0.00     0.111 A
HETATM   13  C12 UNL     1      11.366  20.214  29.907  1.00  0.00     0.135 A
HETATM   14  N6  UNL     1      11.075  18.965  30.323  1.00  0.00    -0.337 N
ATOM     15  H6  UNL     1      10.107  18.674  30.456  1.00  0.00     0.168 HD
HETATM   16  C17 UNL     1      12.091  18.107  30.561  1.00  0.00     0.182 A
HETATM   17  N7  UNL     1      13.381  18.429  30.404  1.00  0.00    -0.347 N
ATOM     18  H7  UNL     1      14.103  17.736  30.599  1.00  0.00     0.167 HD
HETATM   19  C18 UNL     1      13.728  19.648  29.995  1.00  0.00     0.108 A
ENDROOT
BRANCH   1  20
HETATM   20  C7  UNL     1      18.002  17.885  30.647  1.00  0.00     0.105 C
BRANCH  20  21
HETATM   21  C6  UNL     1      18.396  18.516  31.955  1.00  0.00     0.029 C
BRANCH  21  22
HETATM   22  C5  UNL     1      18.047  17.674  33.144  1.00  0.00     0.121 C
BRANCH  22  23
HETATM   23  N1  UNL     1      18.134  16.253  32.804  1.00  0.00    -0.379 N
HETATM   24  C4  UNL     1      17.222  15.429  33.272  1.00  0.00     0.088 C
ATOM     25  H1  UNL     1      18.890  15.907  32.213  1.00  0.00     0.160 HD
BRANCH  24  26
HETATM   26  C3  UNL     1      17.332  14.015  32.914  1.00  0.00     0.076 C
BRANCH  26  27
HETATM   27  C2  UNL     1      17.488  13.826  31.400  1.00  0.00     0.003 C
HETATM   28  C1  UNL     1      16.173  13.246  30.918  1.00  0.00     0.005 C
ENDBRANCH  26  27
ENDBRANCH  24  26
BRANCH  24  29
HETATM   29  N8  UNL     1      16.158  15.925  34.099  1.00  0.00    -0.298 N
ATOM     30  H8  UNL     1      16.360  16.183  35.064  1.00  0.00     0.183 HD
BRANCH  29  31
HETATM   31  N9  UNL     1      14.855  16.064  33.620  1.00  0.00    -0.159 NA
HETATM   32  C19 UNL     1      14.322  17.302  34.219  1.00  0.00     0.152 C
BRANCH  31  33
HETATM   33  S1  UNL     1      13.824  14.782  34.142  1.00  0.00     0.029 SA
BRANCH  33  34
HETATM   34  N10 UNL     1      13.039  13.865  32.915  1.00  0.00    -0.252 NA
HETATM   35  C20 UNL     1      12.804  14.573  31.682  1.00  0.00     0.125 C
HETATM   36  C21 UNL     1      11.818  13.227  33.393  1.00  0.00     0.125 C
ENDBRANCH  33  34
ENDBRANCH  31  33
ENDBRANCH  29  31
ENDBRANCH  24  29
ENDBRANCH  22  23
ENDBRANCH  21  22
ENDBRANCH  20  21
ENDBRANCH   1  20
BRANCH  13  37
HETATM   37  N5  UNL     1      10.551  21.108  29.662  1.00  0.00    -0.354 N
HETATM   38  C13 UNL     1       9.219  21.356  29.507  1.00  0.00     0.066 C
ATOM     39  H5  UNL     1      11.061  21.981  29.523  1.00  0.00     0.166 HD
BRANCH  38  40
HETATM   40  C14 UNL     1       8.279  20.967  30.626  1.00  0.00     0.016 C
HETATM   41  C15 UNL     1       7.298  19.897  30.144  1.00  0.00     0.015 C
HETATM   42  C16 UNL     1       7.505  22.129  31.178  1.00  0.00     0.015 C
ENDBRANCH  38  40
ENDBRANCH  13  37
TORSDOF 12
ENDMDL