MODEL 3
REMARK VINA RESULT: -8.216710790      3.520      7.626
REMARK  15 active torsions:
REMARK  status: ('A' for Active; 'I' for Inactive)
REMARK    1  A    between atoms: S1_2  and  C3_4
REMARK    2  A    between atoms: C3_4  and  C4_5
REMARK    3  A    between atoms: C4_5  and  O1_6
REMARK    4  A    between atoms: C4_5  and  C5_8
REMARK    5  A    between atoms: C5_8  and  N1_11
REMARK    6  A    between atoms: N1_11  and  C8_13
REMARK    7  A    between atoms: C8_13  and  C9_17
REMARK    8  A    between atoms: C9_17  and  C10_18
REMARK    9  A    between atoms: C9_17  and  N3_27
REMARK   10  A    between atoms: C10_18  and  C11_19
REMARK   11  A    between atoms: C11_19  and  C12_20
REMARK   12  A    between atoms: C12_20  and  C13_21
REMARK   13  A    between atoms: C13_21  and  C14_22
REMARK   14  A    between atoms: C14_22  and  S2_23
REMARK   15  A    between atoms: C18_32  and  N5_33
ROOT
HETATM    1  C9  UNL     1      15.239  15.251  31.631  1.00  0.00     0.058 C
ENDROOT
BRANCH   1   2
HETATM    2  C8  UNL     1      16.134  14.250  31.040  1.00  0.00     0.118 C
HETATM    3  N2  UNL     1      15.680  13.313  30.282  1.00  0.00    -0.384 N
ATOM      4  H22 UNL     1      16.302  12.618  29.871  1.00  0.00     0.157 HD
ATOM      5  H21 UNL     1      14.669  13.344  30.145  1.00  0.00     0.157 HD
BRANCH   2   6
HETATM    6  N1  UNL     1      17.535  14.208  31.231  1.00  0.00    -0.364 N
ATOM      7  H1  UNL     1      17.943  13.273  31.263  1.00  0.00     0.162 HD
BRANCH   6   8
HETATM    8  C5  UNL     1      18.456  15.277  31.383  1.00  0.00     0.051 C
HETATM    9  C6  UNL     1      18.508  16.037  30.038  1.00  0.00     0.041 C
HETATM   10  C7  UNL     1      19.859  14.805  31.688  1.00  0.00     0.041 C
BRANCH   8  11
HETATM   11  C4  UNL     1      18.081  16.324  32.395  1.00  0.00     0.154 C
BRANCH  11  12
HETATM   12  C3  UNL     1      18.425  17.706  31.975  1.00  0.00     0.096 C
BRANCH  12  13
HETATM   13  S1  UNL     1      17.762  18.996  32.983  1.00  0.00    -0.225 SA
HETATM   14  C1  UNL     1      17.899  20.528  32.086  1.00  0.00     0.078 C
HETATM   15  C2  UNL     1      16.005  18.698  33.188  1.00  0.00     0.078 C
ENDBRANCH  12  13
ENDBRANCH  11  12
BRANCH  11  16
HETATM   16  O1  UNL     1      18.452  16.083  33.691  1.00  0.00    -0.392 OA
ATOM     17  H1  UNL     1      19.389  16.187  33.812  1.00  0.00     0.210 HD
ENDBRANCH  11  16
ENDBRANCH   8  11
ENDBRANCH   6   8
ENDBRANCH   2   6
ENDBRANCH   1   2
BRANCH   1  18
HETATM   18  C10 UNL     1      14.460  16.029  30.642  1.00  0.00     0.061 C
BRANCH  18  19
HETATM   19  C11 UNL     1      15.062  17.221  30.005  1.00  0.00     0.006 C
BRANCH  19  20
HETATM   20  C12 UNL     1      14.120  18.444  30.150  1.00  0.00     0.001 C
BRANCH  20  21
HETATM   21  C13 UNL     1      14.584  19.516  29.206  1.00  0.00     0.015 C
BRANCH  21  22
HETATM   22  C14 UNL     1      15.075  20.770  29.832  1.00  0.00     0.140 C
BRANCH  22  23
HETATM   23  S2  UNL     1      14.387  22.250  29.201  1.00  0.00     0.140 S
HETATM   24  C15 UNL     1      15.164  22.571  27.618  1.00  0.00     0.161 C
HETATM   25  O2  UNL     1      12.919  22.037  28.922  1.00  0.00    -0.228 OA
HETATM   26  O3  UNL     1      14.597  23.440  30.056  1.00  0.00    -0.228 OA
ENDBRANCH  22  23
ENDBRANCH  21  22
ENDBRANCH  20  21
ENDBRANCH  19  20
ENDBRANCH  18  19
ENDBRANCH   1  18
BRANCH   1  27
HETATM   27  N3  UNL     1      14.540  14.819  32.805  1.00  0.00    -0.308 N
HETATM   28  C16 UNL     1      13.116  14.793  32.971  1.00  0.00     0.191 A
HETATM   29  C17 UNL     1      12.842  14.121  34.272  1.00  0.00     0.066 A
HETATM   30  N4  UNL     1      11.682  13.803  34.833  1.00  0.00    -0.193 N
HETATM   31  C20 UNL     1      14.032  13.874  34.910  1.00  0.00     0.125 A
HETATM   32  C18 UNL     1      11.621  13.228  36.047  1.00  0.00     0.679 A
ATOM     33  H4  UNL     1      10.816  14.000  34.331  1.00  0.00     0.184 HD
HETATM   34  N6  UNL     1      12.768  12.965  36.721  1.00  0.00    -0.155 N
HETATM   35  C19 UNL     1      13.965  13.287  36.151  1.00  0.00     0.277 A
ATOM     36  H6  UNL     1      12.736  12.530  37.643  1.00  0.00     0.187 HD
HETATM   37  O4  UNL     1      15.001  13.024  36.813  1.00  0.00    -0.267 OA
HETATM   38  C21 UNL     1      15.085  14.304  34.016  1.00  0.00     0.266 A
HETATM   39  O5  UNL     1      16.315  14.206  34.332  1.00  0.00    -0.267 OA
BRANCH  32  40
HETATM   40  N5  UNL     1      10.508  12.910  36.612  1.00  0.00    -0.234 N
ATOM     41  H52 UNL     1      10.434  11.982  37.027  1.00  0.00     0.174 HD
ATOM     42  H51 UNL     1       9.712  13.546  36.658  1.00  0.00     0.174 HD
ENDBRANCH  32  40
ENDBRANCH   1  27
TORSDOF 15
ENDMDL