MODEL 2
REMARK VINA RESULT: -8.382248246      1.348      1.496
REMARK  17 active torsions:
REMARK  status: ('A' for Active; 'I' for Inactive)
REMARK    1  A    between atoms: N1_2  and  C2_3
REMARK    2  A    between atoms: N1_2  and  C4_7
REMARK    3  A    between atoms: C2_3  and  C3_4
REMARK    4  A    between atoms: C4_7  and  O2_8
REMARK    5  A    between atoms: C4_7  and  C5_10
REMARK    6  A    between atoms: C6_11  and  O3_12
REMARK    7  A    between atoms: O3_12  and  C7_13
REMARK    8  A    between atoms: C7_13  and  C8_14
REMARK    9  A    between atoms: C8_14  and  C9_15
REMARK   10  A    between atoms: C9_15  and  C10_16
REMARK   11  A    between atoms: C10_16  and  C11_17
REMARK   12  A    between atoms: C11_17  and  N3_18
REMARK   13  A    between atoms: C14_24  and  O4_25
REMARK   14  A    between atoms: C16_28  and  C17_29
REMARK   15  A    between atoms: C17_29  and  C18_30
REMARK   16  A    between atoms: C18_30  and  N4_31
REMARK   17  A    between atoms: C25_41  and  C26_42
ROOT
HETATM    1  C5  UNL     1      13.651  19.735  31.164  1.00  0.00     0.035 C
HETATM    2  C6  UNL     1      14.313  18.828  31.967  1.00  0.00     0.066 C
HETATM    3  C12 UNL     1      15.757  18.727  31.574  1.00  0.00     0.083 C
HETATM    4  C13 UNL     1      16.434  17.495  32.091  1.00  0.00    -0.008 A
HETATM    5  C14 UNL     1      17.440  17.534  33.033  1.00  0.00     0.073 A
HETATM    6  C15 UNL     1      18.079  16.387  33.474  1.00  0.00     0.044 A
HETATM    7  C16 UNL     1      17.728  15.148  32.982  1.00  0.00    -0.053 A
HETATM    8  C19 UNL     1      16.725  15.095  32.044  1.00  0.00     0.015 A
HETATM    9  C20 UNL     1      16.080  16.261  31.598  1.00  0.00    -0.048 A
HETATM   10  C21 UNL     1      15.008  16.141  30.594  1.00  0.00     0.039 C
HETATM   11  C22 UNL     1      14.858  17.309  29.696  1.00  0.00     0.010 C
HETATM   12  C23 UNL     1      15.739  18.453  30.059  1.00  0.00     0.002 C
HETATM   13  C24 UNL     1      15.402  19.711  29.367  1.00  0.00     0.024 C
HETATM   14  C25 UNL     1      14.403  20.512  30.183  1.00  0.00     0.115 C
ENDROOT
BRANCH   2  15
HETATM   15  O3  UNL     1      13.850  18.111  32.936  1.00  0.00    -0.354 OA
BRANCH  15  16
HETATM   16  C7  UNL     1      13.405  17.425  33.940  1.00  0.00     0.175 C
BRANCH  16  17
HETATM   17  C8  UNL     1      13.467  15.881  33.910  1.00  0.00     0.027 C
BRANCH  17  18
HETATM   18  C9  UNL     1      14.477  15.553  35.021  1.00  0.00     0.004 C
BRANCH  18  19
HETATM   19  C10 UNL     1      14.806  14.085  35.039  1.00  0.00     0.027 C
BRANCH  19  20
HETATM   20  C11 UNL     1      15.589  13.667  36.235  1.00  0.00     0.229 C
BRANCH  20  21
HETATM   21  N3  UNL     1      14.821  14.021  37.417  1.00  0.00    -0.079 N
ATOM     22  H33 UNL     1      15.168  13.570  38.264  1.00  0.00     0.274 HD
ATOM     23  H32 UNL     1      14.967  14.988  37.709  1.00  0.00     0.274 HD
ATOM     24  H31 UNL     1      13.841  13.810  37.230  1.00  0.00     0.274 HD
ENDBRANCH  20  21
ENDBRANCH  19  20
ENDBRANCH  18  19
ENDBRANCH  17  18
ENDBRANCH  16  17
ENDBRANCH  15  16
ENDBRANCH   2  15
BRANCH   1  25
HETATM   25  C4  UNL     1      12.263  19.947  31.373  1.00  0.00     0.151 C
BRANCH  25  26
HETATM   26  N1  UNL     1      11.115  20.073  30.599  1.00  0.00    -0.337 N
HETATM   27  C1  UNL     1       9.832  20.396  31.363  1.00  0.00     0.158 C
BRANCH  26  28
HETATM   28  C2  UNL     1      10.920  19.943  29.213  1.00  0.00     0.163 C
BRANCH  28  29
HETATM   29  C3  UNL     1      10.756  21.237  28.466  1.00  0.00     0.270 C
HETATM   30  N2  UNL     1       9.618  21.339  27.601  1.00  0.00    -0.057 NA
HETATM   31  O1  UNL     1      11.562  22.166  28.591  1.00  0.00    -0.270 OA
ENDBRANCH  28  29
ENDBRANCH  26  28
ENDBRANCH  25  26
BRANCH  25  32
HETATM   32  O2  UNL     1      11.947  20.051  32.656  1.00  0.00    -0.345 OA
ATOM     33  H2  UNL     1      12.584  19.581  33.180  1.00  0.00     0.219 HD
ENDBRANCH  25  32
ENDBRANCH   1  25
BRANCH  14  34
HETATM   34  C26 UNL     1      15.205  21.640  30.800  1.00  0.00     0.239 C
HETATM   35  N5  UNL     1      14.619  22.546  31.699  1.00  0.00    -0.062 NA
HETATM   36  O5  UNL     1      16.438  21.791  30.514  1.00  0.00    -0.276 OA
ENDBRANCH  14  34
BRANCH   5  37
HETATM   37  O4  UNL     1      17.778  18.806  33.515  1.00  0.00    -0.360 OA
ATOM     38  H4  UNL     1      18.706  18.984  33.600  1.00  0.00     0.217 HD
ENDBRANCH   5  37
BRANCH   7  39
HETATM   39  C17 UNL     1      18.409  13.899  33.453  1.00  0.00     0.066 C
BRANCH  39  40
HETATM   40  C18 UNL     1      19.877  14.160  33.704  1.00  0.00     0.234 C
BRANCH  40  41
HETATM   41  N4  UNL     1      20.511  14.277  32.391  1.00  0.00    -0.079 N
ATOM     42  H43 UNL     1      19.871  14.101  31.617  1.00  0.00     0.274 HD
ATOM     43  H42 UNL     1      20.750  15.237  32.144  1.00  0.00     0.274 HD
ATOM     44  H41 UNL     1      21.316  13.651  32.400  1.00  0.00     0.274 HD
ENDBRANCH  40  41
ENDBRANCH  39  40
ENDBRANCH   7  39
TORSDOF 17
ENDMDL