MODEL 1
REMARK VINA RESULT: -7.706258877      0.000      0.000
REMARK  18 active torsions:
REMARK  status: ('A' for Active; 'I' for Inactive)
REMARK    1  A    between atoms: C2_3  and  O1_4
REMARK    2  A    between atoms: C3_6  and  C4_7
REMARK    3  A    between atoms: C4_7  and  N2_8
REMARK       I    between atoms: N2_8  and  C5_10
REMARK    4  A    between atoms: C5_10  and  C6_12
REMARK    5  A    between atoms: C6_12  and  C7_13
REMARK    6  A    between atoms: C7_13  and  N3_14
REMARK    7  A    between atoms: C7_13  and  C8_18
REMARK    8  A    between atoms: C8_18  and  C9_19
REMARK    9  A    between atoms: C9_19  and  C10_20
REMARK   10  A    between atoms: C10_20  and  C11_21
REMARK   11  A    between atoms: C11_21  and  N4_22
REMARK   12  A    between atoms: C15_29  and  O3_30
REMARK   13  A    between atoms: C21_38  and  O4_39
REMARK   14  A    between atoms: C22_41  and  C23_42
REMARK   15  A    between atoms: C23_42  and  C24_43
REMARK   16  A    between atoms: C24_43  and  C25_44
REMARK   17  A    between atoms: C25_44  and  C26_45
REMARK   18  A    between atoms: C26_45  and  N6_46
ROOT
HETATM    1  C1  UNL     1      15.078  13.941  31.057  1.00  0.00     0.152 C
HETATM    2  N1  UNL     1      15.417  14.594  32.358  1.00  0.00    -0.354 N
HETATM    3  C2  UNL     1      14.465  15.496  32.852  1.00  0.00     0.146 C
HETATM    4  C3  UNL     1      14.426  16.725  33.591  1.00  0.00     0.007 C
HETATM    5  C12 UNL     1      15.319  17.844  33.486  1.00  0.00    -0.009 C
HETATM    6  C13 UNL     1      16.530  17.809  32.623  1.00  0.00     0.013 C
HETATM    7  C14 UNL     1      17.307  19.143  32.677  1.00  0.00     0.040 C
HETATM    8  C15 UNL     1      18.717  19.006  32.274  1.00  0.00     0.124 C
HETATM    9  C16 UNL     1      19.177  18.045  31.300  1.00  0.00     0.034 C
HETATM   10  C17 UNL     1      18.414  17.710  30.088  1.00  0.00     0.034 C
HETATM   11  C18 UNL     1      17.419  16.678  30.671  1.00  0.00     0.087 C
HETATM   12  C19 UNL     1      16.322  17.551  31.198  1.00  0.00     0.034 C
HETATM   13  N5  UNL     1      18.175  15.891  31.589  1.00  0.00    -0.359 N
HETATM   14  C20 UNL     1      19.436  16.637  31.814  1.00  0.00     0.132 C
HETATM   15  C21 UNL     1      17.873  14.650  32.165  1.00  0.00     0.137 C
HETATM   16  C22 UNL     1      16.676  14.169  32.886  1.00  0.00     0.160 C
ENDROOT
BRANCH   4  17
HETATM   17  C4  UNL     1      12.993  17.298  33.722  1.00  0.00     0.165 C
BRANCH  17  18
HETATM   18  N2  UNL     1      12.813  18.553  33.125  1.00  0.00    -0.357 N
HETATM   19  C5  UNL     1      12.563  18.682  31.743  1.00  0.00     0.219 C
HETATM   20  O2  UNL     1      12.503  17.631  31.052  1.00  0.00    -0.274 OA
ATOM     21  H2  UNL     1      12.864  19.392  33.703  1.00  0.00     0.162 HD
BRANCH  19  22
HETATM   22  C6  UNL     1      12.366  19.991  31.071  1.00  0.00     0.135 C
BRANCH  22  23
HETATM   23  C7  UNL     1      12.189  19.786  29.582  1.00  0.00     0.192 C
BRANCH  23  24
HETATM   24  N3  UNL     1      10.797  19.856  29.196  1.00  0.00    -0.075 N
ATOM     25  H33 UNL     1      10.325  20.640  29.647  1.00  0.00     0.274 HD
ATOM     26  H32 UNL     1      10.694  20.147  28.224  1.00  0.00     0.274 HD
ATOM     27  H31 UNL     1      10.313  18.977  29.376  1.00  0.00     0.274 HD
ENDBRANCH  23  24
BRANCH  23  28
HETATM   28  C8  UNL     1      12.970  20.778  28.785  1.00  0.00     0.033 C
BRANCH  28  29
HETATM   29  C9  UNL     1      14.441  20.571  29.021  1.00  0.00     0.004 C
BRANCH  29  30
HETATM   30  C10 UNL     1      15.159  21.805  29.462  1.00  0.00     0.027 C
BRANCH  30  31
HETATM   31  C11 UNL     1      15.449  21.844  30.936  1.00  0.00     0.229 C
BRANCH  31  32
HETATM   32  N4  UNL     1      16.794  22.239  31.246  1.00  0.00    -0.079 N
ATOM     33  H43 UNL     1      17.424  22.005  30.480  1.00  0.00     0.274 HD
ATOM     34  H42 UNL     1      16.883  23.255  31.235  1.00  0.00     0.274 HD
ATOM     35  H41 UNL     1      17.140  21.856  32.126  1.00  0.00     0.274 HD
ENDBRANCH  31  32
ENDBRANCH  30  31
ENDBRANCH  29  30
ENDBRANCH  28  29
ENDBRANCH  23  28
ENDBRANCH  22  23
ENDBRANCH  19  22
ENDBRANCH  17  18
ENDBRANCH   4  17
BRANCH   3  36
HETATM   36  O1  UNL     1      13.258  15.086  32.543  1.00  0.00    -0.346 OA
ATOM     37  H1  UNL     1      12.611  15.611  33.001  1.00  0.00     0.219 HD
ENDBRANCH   3  36
BRANCH  16  38
HETATM   38  C23 UNL     1      16.801  14.313  34.391  1.00  0.00     0.034 C
BRANCH  38  39
HETATM   39  C24 UNL     1      16.034  13.232  35.110  1.00  0.00     0.004 C
BRANCH  39  40
HETATM   40  C25 UNL     1      15.401  13.775  36.365  1.00  0.00     0.027 C
BRANCH  40  41
HETATM   41  C26 UNL     1      13.920  13.994  36.227  1.00  0.00     0.229 C
BRANCH  41  42
HETATM   42  N6  UNL     1      13.359  13.229  35.124  1.00  0.00    -0.079 N
ATOM     43  H63 UNL     1      12.897  12.381  35.457  1.00  0.00     0.274 HD
ATOM     44  H62 UNL     1      12.551  13.701  34.717  1.00  0.00     0.274 HD
ATOM     45  H61 UNL     1      14.059  13.015  34.415  1.00  0.00     0.274 HD
ENDBRANCH  41  42
ENDBRANCH  40  41
ENDBRANCH  39  40
ENDBRANCH  38  39
ENDBRANCH  16  38
BRANCH  15  46
HETATM   46  O4  UNL     1      18.814  13.759  32.050  1.00  0.00    -0.348 OA
ATOM     47  H4  UNL     1      19.166  13.448  32.875  1.00  0.00     0.219 HD
ENDBRANCH  15  46
BRANCH   8  48
HETATM   48  O3  UNL     1      19.144  20.296  31.862  1.00  0.00    -0.395 OA
ATOM     49  H3  UNL     1      20.094  20.287  31.893  1.00  0.00     0.210 HD
ENDBRANCH   8  48
TORSDOF 18
ENDMDL