MODEL 4
REMARK VINA RESULT: -6.053818623      0.715      1.481
REMARK  5 active torsions:
REMARK  status: ('A' for Active; 'I' for Inactive)
REMARK    1  A    between atoms: C1_2  and  C2_4
REMARK    2  A    between atoms: C2_4  and  N2_5
REMARK    3  A    between atoms: N2_5  and  S1_7
REMARK    4  A    between atoms: S1_7  and  C3_10
REMARK    5  A    between atoms: C6_13  and  C7_14
ROOT
HETATM    1  C3  UNL     1      -9.842 -22.852  17.596  1.00  0.00     0.081 A
HETATM    2  C4  UNL     1      -9.866 -22.658  16.227  1.00  0.00     0.026 A
HETATM    3  C5  UNL     1     -11.078 -22.480  15.611  1.00  0.00     0.019 A
HETATM    4  C6  UNL     1     -12.264 -22.486  16.292  1.00  0.00     0.035 A
HETATM    5  C8  UNL     1     -12.241 -22.679  17.643  1.00  0.00     0.061 A
HETATM    6  N7  UNL     1     -13.422 -22.699  18.416  1.00  0.00    -0.101 NA
HETATM    7  C9  UNL     1     -11.035 -22.860  18.293  1.00  0.00     0.052 A
ENDROOT
BRANCH   1   8
HETATM    8  S1  UNL     1      -8.309 -23.081  18.402  1.00  0.00     0.259 S
HETATM    9  O2  UNL     1      -8.364 -22.339  19.728  1.00  0.00    -0.201 OA
HETATM   10  O3  UNL     1      -8.030 -24.525  18.602  1.00  0.00    -0.201 OA
BRANCH   8  11
HETATM   11  N2  UNL     1      -7.091 -22.302  17.461  1.00  0.00    -0.307 N
ATOM     12  H2  UNL     1      -6.641 -22.719  16.646  1.00  0.00     0.172 HD
BRANCH  11  13
HETATM   13  C2  UNL     1      -6.790 -20.991  17.968  1.00  0.00     0.231 C
BRANCH  13  14
HETATM   14  C1  UNL     1      -7.471 -19.985  17.144  1.00  0.00     0.249 C
HETATM   15  N1  UNL     1      -8.645 -19.373  17.613  1.00  0.00    -0.061 NA
HETATM   16  O1  UNL     1      -7.006 -19.678  16.031  1.00  0.00    -0.275 OA
ENDBRANCH  13  14
ENDBRANCH  11  13
ENDBRANCH   8  11
ENDBRANCH   1   8
BRANCH   4  17
HETATM   17  C7  UNL     1     -13.555 -22.296  15.625  1.00  0.00     0.149 A
HETATM   18  N3  UNL     1     -14.474 -21.409  16.031  1.00  0.00    -0.268 N
HETATM   19  N4  UNL     1     -15.486 -21.521  15.202  1.00  0.00    -0.227 N
ATOM     20  H3  UNL     1     -14.401 -20.773  16.825  1.00  0.00     0.190 HD
HETATM   21  N5  UNL     1     -15.239 -22.436  14.300  1.00  0.00    -0.227 N
ATOM     22  H4  UNL     1     -16.344 -20.972  15.254  1.00  0.00     0.210 HD
HETATM   23  N6  UNL     1     -14.040 -22.930  14.548  1.00  0.00    -0.268 N
ATOM     24  H5  UNL     1     -15.861 -22.718  13.543  1.00  0.00     0.210 HD
ATOM     25  H6  UNL     1     -13.568 -23.662  14.017  1.00  0.00     0.190 HD
ENDBRANCH   4  17
TORSDOF 5
ENDMDL