MODEL 1
REMARK VINA RESULT: -6.037455722      0.000      0.000
REMARK  6 active torsions:
REMARK  status: ('A' for Active; 'I' for Inactive)
REMARK    1  A    between atoms: C5_9  and  C6_10
REMARK    2  A    between atoms: C6_10  and  N2_11
REMARK    3  A    between atoms: N2_11  and  C7_14
REMARK    4  A    between atoms: C7_14  and  C8_15
REMARK    5  A    between atoms: C8_15  and  N3_16
REMARK    6  A    between atoms: N3_16  and  S1_18
ROOT
HETATM    1  O1  UNL     1      -7.000 -19.550  15.581  1.00  0.00    -0.267 OA
HETATM    2  C1  UNL     1      -7.307 -20.247  16.594  1.00  0.00     0.260 A
HETATM    3  N1  UNL     1      -6.459 -20.613  17.671  1.00  0.00    -0.289 N
ATOM      4  H1  UNL     1      -5.477 -20.357  17.771  1.00  0.00     0.172 HD
HETATM    5  C2  UNL     1      -7.214 -21.397  18.585  1.00  0.00     0.259 A
HETATM    6  O2  UNL     1      -6.869 -21.925  19.663  1.00  0.00    -0.267 OA
HETATM    7  C3  UNL     1      -8.583 -21.517  18.044  1.00  0.00     0.051 A
HETATM    8  C4  UNL     1      -9.709 -22.163  18.525  1.00  0.00     0.044 A
HETATM    9  C5  UNL     1     -10.901 -22.134  17.830  1.00  0.00     0.035 A
HETATM   10  N4  UNL     1     -10.909 -21.451  16.671  1.00  0.00    -0.367 N
ATOM     11  H4  UNL     1     -11.779 -21.415  16.139  1.00  0.00     0.165 HD
HETATM   12  C9  UNL     1      -9.836 -20.811  16.174  1.00  0.00     0.106 A
HETATM   13  C10 UNL     1      -8.622 -20.823  16.852  1.00  0.00     0.063 A
ENDROOT
BRANCH   9  14
HETATM   14  C6  UNL     1     -12.126 -22.829  18.338  1.00  0.00     0.289 C
BRANCH  14  15
HETATM   15  N2  UNL     1     -13.297 -21.962  18.202  1.00  0.00    -0.068 N
ATOM     16  H22 UNL     1     -13.602 -21.544  19.081  1.00  0.00     0.277 HD
ATOM     17  H21 UNL     1     -13.105 -21.087  17.713  1.00  0.00     0.277 HD
BRANCH  15  18
HETATM   18  C7  UNL     1     -14.322 -22.789  17.553  1.00  0.00     0.253 C
BRANCH  18  19
HETATM   19  C8  UNL     1     -14.936 -21.988  16.414  1.00  0.00     0.162 C
BRANCH  19  20
HETATM   20  N3  UNL     1     -14.921 -22.857  15.251  1.00  0.00    -0.299 N
ATOM     21  H3  UNL     1     -15.638 -23.535  14.997  1.00  0.00     0.174 HD
BRANCH  20  22
HETATM   22  S1  UNL     1     -13.468 -22.531  14.377  1.00  0.00     0.204 S
HETATM   23  O3  UNL     1     -13.063 -21.109  14.669  1.00  0.00    -0.578 OA
HETATM   24  O4  UNL     1     -13.733 -22.711  12.908  1.00  0.00    -0.578 OA
HETATM   25  O5  UNL     1     -12.250 -23.562  14.907  1.00  0.00    -0.578 OA
ENDBRANCH  20  22
ENDBRANCH  19  20
ENDBRANCH  18  19
ENDBRANCH  15  18
ENDBRANCH  14  15
ENDBRANCH   9  14
TORSDOF 6
ENDMDL