MODEL 1
REMARK VINA RESULT: -5.619461200      0.000      0.000
REMARK  8 active torsions:
REMARK  status: ('A' for Active; 'I' for Inactive)
REMARK    1  A    between atoms: C3_3  and  O1_4
REMARK    2  A    between atoms: O1_4  and  N1_5
REMARK    3  A    between atoms: N2_9  and  C5_10
REMARK    4  A    between atoms: C5_10  and  C6_11
REMARK    5  A    between atoms: N3_15  and  C9_16
REMARK    6  A    between atoms: C9_16  and  C10_17
REMARK    7  A    between atoms: C10_17  and  N4_18
REMARK    8  A    between atoms: N4_18  and  C11_20
ROOT
HETATM    1  C1  UNL     1      -9.657 -25.178  15.674  1.00  0.00     0.102 C
HETATM    2  C2  UNL     1      -9.751 -24.031  16.098  1.00  0.00    -0.124 C
HETATM    3  C3  UNL     1      -9.834 -22.643  16.613  1.00  0.00     0.241 C
HETATM    4  C4  UNL     1      -8.440 -22.096  16.690  1.00  0.00     0.350 C
HETATM    5  N2  UNL     1      -7.894 -21.973  17.989  1.00  0.00     0.105 N
HETATM    6  C7  UNL     1      -8.813 -21.408  18.952  1.00  0.00     0.317 C
HETATM    7  C8  UNL     1     -10.026 -22.276  19.003  1.00  0.00     0.092 C
HETATM    8  N3  UNL     1     -10.590 -22.654  17.787  1.00  0.00    -0.347 N
ENDROOT
BRANCH   3   9
HETATM    9  O1  UNL     1     -10.490 -21.917  15.616  1.00  0.00    -0.239 OA
BRANCH   9  10
HETATM   10  N1  UNL     1     -10.434 -20.586  15.840  1.00  0.00    -0.307 N
ATOM     11  H12 UNL     1      -9.682 -20.140  16.366  1.00  0.00     0.184 HD
ATOM     12  H11 UNL     1     -11.224 -20.095  15.422  1.00  0.00     0.184 HD
ENDBRANCH   9  10
ENDBRANCH   3   9
BRANCH   8  13
HETATM   13  C9  UNL     1     -11.539 -23.715  17.965  1.00  0.00     0.145 C
BRANCH  13  14
HETATM   14  C10 UNL     1     -12.967 -23.280  18.079  1.00  0.00     0.141 C
BRANCH  14  15
HETATM   15  N4  UNL     1     -13.316 -22.141  17.268  1.00  0.00    -0.374 N
ATOM     16  H4  UNL     1     -13.213 -21.222  17.698  1.00  0.00     0.161 HD
BRANCH  15  17
HETATM   17  C11 UNL     1     -13.784 -22.173  15.946  1.00  0.00     0.117 A
HETATM   18  C12 UNL     1     -14.912 -21.567  15.438  1.00  0.00     0.137 A
HETATM   19  N5  UNL     1     -15.021 -21.828  14.107  1.00  0.00    -0.358 N
HETATM   20  C13 UNL     1     -13.974 -22.591  13.779  1.00  0.00     0.182 A
ATOM     21  H5  UNL     1     -15.758 -21.504  13.481  1.00  0.00     0.166 HD
HETATM   22  N6  UNL     1     -13.232 -22.800  14.871  1.00  0.00    -0.338 N
ATOM     23  H6  UNL     1     -12.374 -23.352  14.897  1.00  0.00     0.168 HD
ENDBRANCH  15  17
ENDBRANCH  14  15
ENDBRANCH  13  14
ENDBRANCH   8  13
BRANCH   5  24
HETATM   24  C5  UNL     1      -6.715 -21.142  17.997  1.00  0.00     0.342 C
BRANCH  24  25
HETATM   25  C6  UNL     1      -6.617 -20.179  16.901  1.00  0.00     0.261 C
HETATM   26  O2  UNL     1      -7.097 -19.067  16.922  1.00  0.00    -0.305 OA
ENDBRANCH  24  25
ENDBRANCH   5  24
TORSDOF 8
ENDMDL