MODEL 5
REMARK VINA RESULT: -5.368375093      2.081      5.327
REMARK  8 active torsions:
REMARK  status: ('A' for Active; 'I' for Inactive)
REMARK    1  A    between atoms: C2_2  and  C3_3
REMARK    2  A    between atoms: C2_2  and  C6_11
REMARK    3  A    between atoms: C3_3  and  N1_4
REMARK    4  A    between atoms: C7_12  and  C8_13
REMARK    5  A    between atoms: C9_17  and  N6_18
REMARK    6  A    between atoms: N6_18  and  C10_20
REMARK    7  A    between atoms: C10_20  and  C11_21
REMARK    8  A    between atoms: C11_21  and  N7_22
ROOT
HETATM    1  C6  UNL     1      -8.407 -21.027  18.908  1.00  0.00     0.064 A
HETATM    2  C7  UNL     1      -8.409 -21.333  20.290  1.00  0.00     0.078 A
HETATM    3  N5  UNL     1      -9.220 -20.670  21.102  1.00  0.00    -0.190 N
ATOM      4  H5  UNL     1      -9.207 -20.909  22.094  1.00  0.00     0.184 HD
HETATM    5  C9  UNL     1     -10.075 -19.686  20.690  1.00  0.00     0.681 A
HETATM    6  N8  UNL     1     -10.092 -19.378  19.406  1.00  0.00    -0.155 N
ATOM      7  H8  UNL     1     -10.717 -18.645  19.069  1.00  0.00     0.187 HD
HETATM    8  C12 UNL     1      -9.296 -20.023  18.542  1.00  0.00     0.272 A
HETATM    9  O1  UNL     1      -9.334 -19.714  17.291  1.00  0.00    -0.267 OA
ENDROOT
BRANCH   1  10
HETATM   10  C2  UNL     1      -7.382 -21.579  17.988  1.00  0.00    -0.046 C
HETATM   11  C1  UNL     1      -6.345 -20.690  17.454  1.00  0.00     0.046 C
BRANCH  10  12
HETATM   12  C3  UNL     1      -7.619 -22.933  17.420  1.00  0.00     0.184 C
BRANCH  12  13
HETATM   13  N1  UNL     1      -9.044 -23.139  17.083  1.00  0.00    -0.283 N
HETATM   14  C4  UNL     1      -9.906 -23.933  17.769  1.00  0.00     0.201 A
HETATM   15  N2  UNL     1     -11.103 -23.754  17.129  1.00  0.00    -0.346 N
HETATM   16  C5  UNL     1     -10.964 -22.909  16.121  1.00  0.00     0.198 A
ATOM     17  H2  UNL     1     -11.978 -24.208  17.393  1.00  0.00     0.167 HD
HETATM   18  N3  UNL     1      -9.661 -22.523  16.100  1.00  0.00    -0.293 N
ATOM     19  H3  UNL     1      -9.237 -21.873  15.438  1.00  0.00     0.188 HD
ENDBRANCH  12  13
ENDBRANCH  10  12
ENDBRANCH   1  10
BRANCH   2  20
HETATM   20  C8  UNL     1      -7.584 -22.407  20.770  1.00  0.00     0.131 C
HETATM   21  N4  UNL     1      -6.606 -22.106  21.775  1.00  0.00    -0.113 NA
ENDBRANCH   2  20
BRANCH   5  22
HETATM   22  N6  UNL     1     -10.876 -19.096  21.464  1.00  0.00    -0.224 N
ATOM     23  H6  UNL     1     -11.761 -18.819  21.040  1.00  0.00     0.177 HD
BRANCH  22  24
HETATM   24  C10 UNL     1     -10.734 -18.758  22.832  1.00  0.00     0.165 C
BRANCH  24  25
HETATM   25  C11 UNL     1      -9.815 -17.554  22.927  1.00  0.00     0.249 C
BRANCH  25  26
HETATM   26  N7  UNL     1     -10.343 -16.571  23.833  1.00  0.00    -0.078 N
ATOM     27  H73 UNL     1     -11.356 -16.486  23.745  1.00  0.00     0.274 HD
ATOM     28  H72 UNL     1     -10.297 -16.888  24.801  1.00  0.00     0.274 HD
ATOM     29  H71 UNL     1      -9.878 -15.671  23.709  1.00  0.00     0.274 HD
ENDBRANCH  25  26
ENDBRANCH  24  25
ENDBRANCH  22  24
ENDBRANCH   5  22
TORSDOF 8
ENDMDL