MODEL 4
REMARK VINA RESULT: -5.538761713      2.826      7.765
REMARK  7 active torsions:
REMARK  status: ('A' for Active; 'I' for Inactive)
REMARK    1  A    between atoms: N1_1  and  N2_4
REMARK    2  A    between atoms: N2_4  and  C1_5
REMARK    3  A    between atoms: C1_5  and  C2_6
REMARK    4  A    between atoms: C2_6  and  C3_7
REMARK    5  A    between atoms: C3_7  and  N3_8
REMARK    6  A    between atoms: C5_10  and  C6_11
REMARK    7  A    between atoms: C7_12  and  N4_13
ROOT
HETATM    1  N3  UNL     1      -8.548 -22.030  17.010  1.00  0.00    -0.303 N
HETATM    2  C4  UNL     1      -9.588 -22.729  16.554  1.00  0.00     0.122 A
HETATM    3  C5  UNL     1     -10.422 -21.920  15.818  1.00  0.00    -0.001 A
HETATM    4  C11 UNL     1      -9.831 -20.675  15.847  1.00  0.00     0.120 A
HETATM    5  N7  UNL     1      -8.704 -20.794  16.577  1.00  0.00    -0.309 N
ATOM      6  H7  UNL     1      -8.058 -20.029  16.770  1.00  0.00     0.186 HD
ENDROOT
BRANCH   3   7
HETATM    7  C6  UNL     1     -11.675 -22.290  15.140  1.00  0.00     0.032 C
HETATM    8  C7  UNL     1     -12.679 -22.681  15.836  1.00  0.00     0.107 C
BRANCH   8   9
HETATM    9  N4  UNL     1     -13.973 -23.084  15.416  1.00  0.00    -0.226 N
HETATM   10  C8  UNL     1     -14.308 -24.412  15.488  1.00  0.00     0.338 A
HETATM   11  O1  UNL     1     -13.437 -25.218  15.931  1.00  0.00    -0.246 OA
HETATM   12  N5  UNL     1     -15.499 -24.888  15.116  1.00  0.00    -0.260 N
HETATM   13  C9  UNL     1     -16.443 -24.062  14.642  1.00  0.00     0.332 A
ATOM     14  H5  UNL     1     -15.691 -25.887  15.193  1.00  0.00     0.175 HD
HETATM   15  O2  UNL     1     -17.582 -24.514  14.286  1.00  0.00    -0.246 OA
HETATM   16  N6  UNL     1     -16.157 -22.763  14.556  1.00  0.00    -0.260 N
HETATM   17  C10 UNL     1     -14.935 -22.295  14.941  1.00  0.00     0.338 A
ATOM     18  H6  UNL     1     -16.858 -22.113  14.200  1.00  0.00     0.175 HD
HETATM   19  O3  UNL     1     -14.709 -21.051  14.840  1.00  0.00    -0.246 OA
ENDBRANCH   8   9
ENDBRANCH   3   7
BRANCH   1  20
HETATM   20  C3  UNL     1      -7.427 -22.463  17.822  1.00  0.00     0.149 C
BRANCH  20  21
HETATM   21  C2  UNL     1      -7.313 -21.585  19.043  1.00  0.00     0.039 C
BRANCH  21  22
HETATM   22  C1  UNL     1      -8.570 -21.601  19.879  1.00  0.00     0.136 C
BRANCH  22  23
HETATM   23  N2  UNL     1      -9.346 -20.400  19.749  1.00  0.00    -0.148 NA
BRANCH  23  24
HETATM   24  N1  UNL     1     -10.677 -20.807  19.487  1.00  0.00    -0.348 N
ATOM     25  H12 UNL     1     -11.076 -21.722  19.696  1.00  0.00     0.172 HD
ATOM     26  H11 UNL     1     -11.144 -20.009  19.056  1.00  0.00     0.172 HD
ENDBRANCH  23  24
ENDBRANCH  22  23
ENDBRANCH  21  22
ENDBRANCH  20  21
ENDBRANCH   1  20
TORSDOF 7
ENDMDL