MODEL 1
REMARK VINA RESULT: -6.293168330      0.000      0.000
REMARK  7 active torsions:
REMARK  status: ('A' for Active; 'I' for Inactive)
REMARK    1  A    between atoms: N1_1  and  C1_4
REMARK    2  A    between atoms: C3_8  and  C4_9
REMARK    3  A    between atoms: C4_9  and  C5_10
REMARK    4  A    between atoms: C5_10  and  C6_12
REMARK    5  A    between atoms: C6_12  and  N3_13
REMARK    6  A    between atoms: C8_15  and  C9_16
REMARK    7  A    between atoms: C9_16  and  C10_17
ROOT
HETATM    1  C5  UNL     1     -12.067 -22.448  14.735  1.00  0.00     0.150 C
HETATM    2  O1  UNL     1     -11.469 -21.477  14.300  1.00  0.00    -0.296 OA
ENDROOT
BRANCH   1   3
HETATM    3  C4  UNL     1     -13.375 -22.781  14.127  1.00  0.00     0.125 C
BRANCH   3   4
HETATM    4  C3  UNL     1     -14.458 -22.727  15.112  1.00  0.00     0.033 A
HETATM    5  C2  UNL     1     -14.959 -21.517  15.575  1.00  0.00     0.119 A
HETATM    6  N2  UNL     1     -15.951 -21.526  16.477  1.00  0.00    -0.201 N
HETATM    7  C1  UNL     1     -16.507 -22.641  16.979  1.00  0.00     0.678 A
ATOM      8  H2  UNL     1     -16.305 -20.627  16.804  1.00  0.00     0.183 HD
HETATM    9  N7  UNL     1     -16.032 -23.820  16.541  1.00  0.00    -0.156 N
HETATM   10  C11 UNL     1     -15.038 -23.865  15.635  1.00  0.00     0.267 A
ATOM     11  H7  UNL     1     -16.430 -24.689  16.899  1.00  0.00     0.187 HD
HETATM   12  O3  UNL     1     -14.580 -24.978  15.213  1.00  0.00    -0.267 OA
BRANCH   7  13
HETATM   13  N1  UNL     1     -17.471 -22.578  17.856  1.00  0.00    -0.234 N
ATOM     14  H12 UNL     1     -17.462 -21.889  18.608  1.00  0.00     0.174 HD
ATOM     15  H11 UNL     1     -18.264 -23.218  17.815  1.00  0.00     0.174 HD
ENDBRANCH   7  13
ENDBRANCH   3   4
ENDBRANCH   1   3
BRANCH   1  16
HETATM   16  C6  UNL     1     -11.457 -23.232  15.836  1.00  0.00     0.228 C
BRANCH  16  17
HETATM   17  N3  UNL     1     -10.510 -22.414  16.567  1.00  0.00    -0.280 N
HETATM   18  C7  UNL     1      -9.183 -22.603  16.684  1.00  0.00     0.139 A
HETATM   19  C8  UNL     1      -8.640 -21.587  17.474  1.00  0.00     0.052 A
HETATM   20  N5  UNL     1      -9.703 -20.820  17.798  1.00  0.00    -0.289 N
HETATM   21  N6  UNL     1     -10.789 -21.324  17.255  1.00  0.00    -0.240 N
ATOM     22  H5  UNL     1      -9.668 -19.979  18.376  1.00  0.00     0.188 HD
ATOM     23  H6  UNL     1     -11.723 -20.926  17.352  1.00  0.00     0.208 HD
BRANCH  19  24
HETATM   24  C9  UNL     1      -7.220 -21.394  17.867  1.00  0.00     0.159 C
BRANCH  24  25
HETATM   25  C10 UNL     1      -6.613 -20.231  17.191  1.00  0.00     0.236 C
HETATM   26  N4  UNL     1      -7.339 -19.065  16.841  1.00  0.00    -0.062 NA
HETATM   27  O2  UNL     1      -5.388 -20.259  16.903  1.00  0.00    -0.277 OA
ENDBRANCH  24  25
ENDBRANCH  19  24
ENDBRANCH  16  17
ENDBRANCH   1  16
TORSDOF 7
ENDMDL