MODEL 4
REMARK VINA RESULT: -5.773936477      3.455      7.157
REMARK  7 active torsions:
REMARK  status: ('A' for Active; 'I' for Inactive)
REMARK    1  A    between atoms: C2_2  and  C3_3
REMARK    2  A    between atoms: C3_3  and  N1_4
REMARK    3  A    between atoms: C7_14  and  N4_15
REMARK    4  A    between atoms: N4_15  and  C8_17
REMARK    5  A    between atoms: N5_19  and  C10_20
REMARK    6  A    between atoms: C10_20  and  C11_21
REMARK    7  A    between atoms: C11_21  and  N6_22
ROOT
HETATM    1  N1  UNL     1      -8.582 -21.094  17.482  1.00  0.00    -0.279 N
HETATM    2  C4  UNL     1      -9.340 -21.435  16.439  1.00  0.00     0.331 A
HETATM    3  O1  UNL     1      -9.647 -20.637  15.512  1.00  0.00    -0.246 OA
HETATM    4  N2  UNL     1      -9.802 -22.697  16.369  1.00  0.00    -0.273 N
ATOM      5  H2  UNL     1     -10.384 -22.984  15.582  1.00  0.00     0.173 HD
HETATM    6  C5  UNL     1      -9.498 -23.579  17.334  1.00  0.00     0.280 A
HETATM    7  O2  UNL     1      -9.943 -24.772  17.257  1.00  0.00    -0.265 OA
HETATM    8  C6  UNL     1      -8.715 -23.234  18.417  1.00  0.00     0.162 A
HETATM    9  N3  UNL     1      -8.257 -23.873  19.501  1.00  0.00    -0.182 N
ATOM     10  H3  UNL     1      -8.445 -24.851  19.724  1.00  0.00     0.184 HD
HETATM   11  C7  UNL     1      -7.517 -23.042  20.252  1.00  0.00     0.682 A
HETATM   12  N7  UNL     1      -7.527 -21.869  19.607  1.00  0.00    -0.174 N
ATOM     13  H7  UNL     1      -7.048 -21.029  19.933  1.00  0.00     0.186 HD
HETATM   14  C12 UNL     1      -8.248 -21.941  18.477  1.00  0.00     0.160 A
ENDROOT
BRANCH  11  15
HETATM   15  N4  UNL     1      -6.879 -23.392  21.474  1.00  0.00    -0.192 N
ATOM     16  H4  UNL     1      -6.395 -24.289  21.532  1.00  0.00     0.180 HD
BRANCH  15  17
HETATM   17  C8  UNL     1      -6.885 -22.544  22.624  1.00  0.00     0.365 A
HETATM   18  C9  UNL     1      -6.744 -23.003  23.989  1.00  0.00     0.332 A
HETATM   19  N5  UNL     1      -5.647 -22.401  23.312  1.00  0.00     0.119 N
BRANCH  19  20
HETATM   20  C10 UNL     1      -4.442 -23.033  22.975  1.00  0.00     0.302 C
BRANCH  20  21
HETATM   21  C11 UNL     1      -3.454 -23.288  24.064  1.00  0.00     0.260 C
BRANCH  21  22
HETATM   22  N6  UNL     1      -2.331 -22.361  23.838  1.00  0.00    -0.078 N
ATOM     23  H63 UNL     1      -1.421 -22.822  23.838  1.00  0.00     0.274 HD
ATOM     24  H62 UNL     1      -2.290 -22.001  22.885  1.00  0.00     0.274 HD
ATOM     25  H61 UNL     1      -2.413 -21.628  24.543  1.00  0.00     0.274 HD
ENDBRANCH  21  22
ENDBRANCH  20  21
ENDBRANCH  19  20
ENDBRANCH  15  17
ENDBRANCH  11  15
BRANCH   1  26
HETATM   26  C3  UNL     1      -8.075 -19.730  17.567  1.00  0.00     0.162 C
BRANCH  26  27
HETATM   27  C2  UNL     1      -6.892 -19.532  16.696  1.00  0.00    -0.017 C
HETATM   28  C1  UNL     1      -5.779 -20.242  16.815  1.00  0.00     0.008 C
ENDBRANCH  26  27
ENDBRANCH   1  26
TORSDOF 7
ENDMDL