MODEL 5
REMARK VINA RESULT: -5.928047180      2.346      6.691
REMARK  6 active torsions:
REMARK  status: ('A' for Active; 'I' for Inactive)
REMARK    1  A    between atoms: C1_2  and  C2_4
REMARK    2  A    between atoms: N3_7  and  C3_8
REMARK    3  A    between atoms: C3_8  and  C4_9
REMARK    4  A    between atoms: C4_9  and  C5_10
REMARK    5  A    between atoms: C5_10  and  C6_11
REMARK    6  A    between atoms: C6_11  and  C7_12
ROOT
HETATM    1  C2  UNL     1      -8.997 -20.956  17.693  1.00  0.00     0.182 A
HETATM    2  N2  UNL     1      -9.557 -21.555  16.627  1.00  0.00    -0.285 N
ATOM      3  H2  UNL     1      -9.066 -21.552  15.732  1.00  0.00     0.187 HD
HETATM    4  N3  UNL     1     -10.751 -22.155  16.724  1.00  0.00    -0.242 N
HETATM    5  C9  UNL     1     -11.403 -22.162  17.901  1.00  0.00     0.344 A
HETATM    6  O3  UNL     1     -12.523 -22.727  17.989  1.00  0.00    -0.245 OA
HETATM    7  N7  UNL     1     -10.901 -21.582  19.007  1.00  0.00    -0.272 N
ATOM      8  H7  UNL     1     -11.405 -21.595  19.894  1.00  0.00     0.174 HD
HETATM    9  C10 UNL     1      -9.686 -20.978  18.887  1.00  0.00     0.282 A
HETATM   10  O4  UNL     1      -9.164 -20.418  19.886  1.00  0.00    -0.265 OA
ENDROOT
BRANCH   4  11
HETATM   11  C3  UNL     1     -11.378 -22.807  15.597  1.00  0.00     0.154 C
BRANCH  11  12
HETATM   12  C4  UNL     1     -11.960 -21.788  14.625  1.00  0.00     0.022 C
BRANCH  12  13
HETATM   13  C5  UNL     1     -13.255 -22.226  14.052  1.00  0.00     0.009 C
BRANCH  13  14
HETATM   14  C6  UNL     1     -14.453 -21.431  14.392  1.00  0.00     0.078 C
BRANCH  14  15
HETATM   15  C7  UNL     1     -15.130 -21.746  15.657  1.00  0.00     0.099 A
HETATM   16  N4  UNL     1     -14.729 -21.362  16.911  1.00  0.00    -0.285 N
HETATM   17  N5  UNL     1     -15.585 -21.794  17.780  1.00  0.00    -0.250 N
ATOM     18  H4  UNL     1     -13.890 -20.823  17.125  1.00  0.00     0.188 HD
HETATM   19  C8  UNL     1     -16.581 -22.472  17.185  1.00  0.00     0.340 A
ATOM     20  H5  UNL     1     -15.514 -21.640  18.786  1.00  0.00     0.192 HD
HETATM   21  O2  UNL     1     -17.579 -23.031  17.690  1.00  0.00    -0.245 OA
HETATM   22  N6  UNL     1     -16.265 -22.423  15.853  1.00  0.00    -0.296 N
ATOM     23  H6  UNL     1     -16.822 -22.846  15.111  1.00  0.00     0.172 HD
ENDBRANCH  14  15
ENDBRANCH  13  14
ENDBRANCH  12  13
ENDBRANCH  11  12
ENDBRANCH   4  11
BRANCH   1  24
HETATM   24  C1  UNL     1      -7.685 -20.290  17.607  1.00  0.00     0.288 C
HETATM   25  N1  UNL     1      -6.535 -20.976  18.043  1.00  0.00    -0.056 NA
HETATM   26  O1  UNL     1      -7.555 -19.139  17.161  1.00  0.00    -0.269 OA
ENDBRANCH   1  24
TORSDOF 6
ENDMDL