MODEL 1
REMARK VINA RESULT: -6.037796435      0.000      0.000
REMARK  8 active torsions:
REMARK  status: ('A' for Active; 'I' for Inactive)
REMARK    1  A    between atoms: N1_1  and  C1_5
REMARK    2  A    between atoms: C1_5  and  C2_6
REMARK    3  A    between atoms: C2_6  and  C3_7
REMARK    4  A    between atoms: C3_7  and  N2_8
REMARK    5  A    between atoms: C5_13  and  N4_14
REMARK    6  A    between atoms: N4_14  and  N5_16
REMARK    7  A    between atoms: N5_16  and  C6_18
REMARK    8  A    between atoms: C6_18  and  C7_19
ROOT
HETATM    1  N2  UNL     1     -13.357 -22.046  15.837  1.00  0.00    -0.240 N
HETATM    2  N3  UNL     1     -12.099 -21.870  15.424  1.00  0.00    -0.257 N
ATOM      3  H3  UNL     1     -11.935 -21.488  14.492  1.00  0.00     0.190 HD
HETATM    4  C4  UNL     1     -11.055 -22.176  16.185  1.00  0.00     0.305 A
HETATM    5  O1  UNL     1      -9.865 -22.003  15.778  1.00  0.00    -0.263 OA
HETATM    6  C5  UNL     1     -11.292 -22.696  17.448  1.00  0.00     0.194 A
HETATM    7  N7  UNL     1     -12.577 -22.871  17.858  1.00  0.00    -0.288 N
ATOM      8  H7  UNL     1     -12.761 -23.253  18.786  1.00  0.00     0.172 HD
HETATM    9  C12 UNL     1     -13.607 -22.549  17.058  1.00  0.00     0.342 A
HETATM   10  O2  UNL     1     -14.774 -22.728  17.482  1.00  0.00    -0.245 OA
ENDROOT
BRANCH   6  11
HETATM   11  N4  UNL     1     -10.334 -23.016  18.239  1.00  0.00    -0.285 N
ATOM     12  H4  UNL     1      -9.738 -23.808  17.999  1.00  0.00     0.188 HD
BRANCH  11  13
HETATM   13  N5  UNL     1     -10.082 -22.315  19.414  1.00  0.00    -0.330 N
ATOM     14  H5  UNL     1     -10.857 -22.040  20.018  1.00  0.00     0.180 HD
BRANCH  13  15
HETATM   15  C6  UNL     1      -8.737 -21.975  19.783  1.00  0.00     0.179 C
BRANCH  15  16
HETATM   16  C7  UNL     1      -8.060 -21.148  18.749  1.00  0.00    -0.024 A
HETATM   17  C8  UNL     1      -6.847 -21.534  18.244  1.00  0.00     0.011 A
HETATM   18  C9  UNL     1      -6.247 -20.748  17.289  1.00  0.00     0.018 A
HETATM   19  C10 UNL     1      -6.836 -19.596  16.836  1.00  0.00     0.087 A
HETATM   20  N6  UNL     1      -8.012 -19.255  17.348  1.00  0.00    -0.375 N
HETATM   21  C11 UNL     1      -8.636 -19.992  18.285  1.00  0.00     0.096 A
ATOM     22  H6  UNL     1      -8.460 -18.400  17.019  1.00  0.00     0.164 HD
ENDBRANCH  15  16
ENDBRANCH  13  15
ENDBRANCH  11  13
ENDBRANCH   6  11
BRANCH   1  23
HETATM   23  C3  UNL     1     -14.412 -21.684  14.943  1.00  0.00     0.155 C
BRANCH  23  24
HETATM   24  C2  UNL     1     -14.552 -22.641  13.777  1.00  0.00     0.049 C
BRANCH  24  25
HETATM   25  C1  UNL     1     -15.718 -23.575  14.129  1.00  0.00     0.231 C
BRANCH  25  26
HETATM   26  N1  UNL     1     -16.601 -22.912  15.072  1.00  0.00    -0.079 N
ATOM     27  H13 UNL     1     -17.434 -23.465  15.275  1.00  0.00     0.274 HD
ATOM     28  H12 UNL     1     -16.210 -22.886  16.014  1.00  0.00     0.274 HD
ATOM     29  H11 UNL     1     -16.832 -21.981  14.724  1.00  0.00     0.274 HD
ENDBRANCH  25  26
ENDBRANCH  24  25
ENDBRANCH  23  24
ENDBRANCH   1  23
TORSDOF 8
ENDMDL