MODEL 2
REMARK VINA RESULT: -4.156122850      2.393      3.719
REMARK  3 active torsions:
REMARK  status: ('A' for Active; 'I' for Inactive)
REMARK    1  A    between atoms: C1_4  and  N2_5
REMARK    2  A    between atoms: N2_5  and  N3_7
REMARK    3  A    between atoms: C4_10  and  N4_11
ROOT
HETATM    1  N3  UNL     1      13.068 -10.483  22.680  1.00  0.00    -0.325 N
HETATM    2  C2  UNL     1      12.531 -10.789  23.932  1.00  0.00     0.144 C
HETATM    3  C3  UNL     1      11.062 -10.392  23.711  1.00  0.00     0.056 C
HETATM    4  C4  UNL     1      11.289  -9.070  22.968  1.00  0.00     0.204 C
HETATM    5  C5  UNL     1      12.540  -9.330  22.120  1.00  0.00     0.175 C
ENDROOT
BRANCH   1   6
HETATM    6  N2  UNL     1      14.095 -11.145  22.172  1.00  0.00    -0.299 N
ATOM      7  H2  UNL     1      14.115 -11.331  21.170  1.00  0.00     0.187 HD
BRANCH   6   8
HETATM    8  C1  UNL     1      15.171 -11.604  22.981  1.00  0.00     0.190 C
HETATM    9  N1  UNL     1      16.020 -12.497  22.597  1.00  0.00    -0.394 N
ATOM     10  H12 UNL     1      15.898 -12.883  21.661  1.00  0.00     0.156 HD
ATOM     11  H11 UNL     1      16.792 -12.826  23.177  1.00  0.00     0.156 HD
ENDBRANCH   6   8
ENDBRANCH   1   6
BRANCH   4  12
HETATM   12  N4  UNL     1      10.139  -8.819  22.119  1.00  0.00    -0.073 N
ATOM     13  H43 UNL     1       9.951  -9.590  21.477  1.00  0.00     0.274 HD
ATOM     14  H42 UNL     1       9.259  -8.847  22.632  1.00  0.00     0.274 HD
ATOM     15  H41 UNL     1      10.284  -7.932  21.635  1.00  0.00     0.274 HD
ENDBRANCH   4  12
TORSDOF 3
ENDMDL