MODEL 1
REMARK VINA RESULT: -4.137807106      0.000      0.000
REMARK  2 active torsions:
REMARK  status: ('A' for Active; 'I' for Inactive)
REMARK    1  A    between atoms: O1_2  and  N1_3
REMARK    2  A    between atoms: C3_7  and  N3_8
ROOT
HETATM    1  N1  UNL     1       6.134  -8.646  21.825  1.00  0.00    -0.142 N
HETATM    2  C2  UNL     1       6.313  -9.902  21.421  1.00  0.00     0.251 A
HETATM    3  N2  UNL     1       7.434 -10.034  20.684  1.00  0.00    -0.183 N
ATOM      4  H2  UNL     1       7.799 -10.885  20.256  1.00  0.00     0.185 HD
HETATM    5  C3  UNL     1       7.966  -8.799  20.636  1.00  0.00     0.693 A
HETATM    6  N4  UNL     1       7.174  -7.967  21.329  1.00  0.00    -0.105 N
ATOM      7  H4  UNL     1       7.339  -6.969  21.457  1.00  0.00     0.208 HD
ENDROOT
BRANCH   5   8
HETATM    8  N3  UNL     1       9.054  -8.466  20.029  1.00  0.00    -0.233 N
ATOM      9  H32 UNL     1       9.861  -9.073  19.885  1.00  0.00     0.174 HD
ATOM     10  H31 UNL     1       9.253  -7.557  19.612  1.00  0.00     0.174 HD
ENDBRANCH   5   8
BRANCH   1  11
HETATM   11  O1  UNL     1       5.105  -8.144  22.589  1.00  0.00    -0.262 OA
HETATM   12  C1  UNL     1       4.303  -7.110  22.008  1.00  0.00     0.240 C
ENDBRANCH   1  11
TORSDOF 2
ENDMDL