MODEL 5
REMARK VINA RESULT: -4.053397400      1.986      4.588
REMARK  3 active torsions:
REMARK  status: ('A' for Active; 'I' for Inactive)
REMARK    1  A    between atoms: N1_1  and  C1_5
REMARK    2  A    between atoms: C1_5  and  C2_6
REMARK    3  A    between atoms: C2_6  and  N2_7
ROOT
HETATM    1  N2  UNL     1       5.918  -9.917  22.210  1.00  0.00    -0.361 N
ATOM      2  H2  UNL     1       5.265 -10.228  21.492  1.00  0.00     0.162 HD
HETATM    3  C3  UNL     1       7.080  -9.502  21.890  1.00  0.00     0.171 C
HETATM    4  N3  UNL     1       7.635  -9.408  20.555  1.00  0.00    -0.361 N
ATOM      5  H3  UNL     1       7.427  -9.991  19.744  1.00  0.00     0.162 HD
HETATM    6  C4  UNL     1       8.556  -8.291  20.641  1.00  0.00     0.142 C
HETATM    7  C5  UNL     1       9.211  -8.588  21.986  1.00  0.00     0.142 C
HETATM    8  N4  UNL     1       8.072  -9.044  22.799  1.00  0.00    -0.361 N
ATOM      9  H4  UNL     1       8.008  -9.034  23.817  1.00  0.00     0.162 HD
ENDROOT
BRANCH   1  10
HETATM   10  C2  UNL     1       5.541  -9.939  23.601  1.00  0.00     0.150 C
BRANCH  10  11
HETATM   11  C1  UNL     1       4.463  -8.866  23.772  1.00  0.00     0.249 C
BRANCH  11  12
HETATM   12  N1  UNL     1       3.284  -9.461  24.332  1.00  0.00    -0.078 N
ATOM     13  H13 UNL     1       2.725  -8.789  24.857  1.00  0.00     0.274 HD
ATOM     14  H12 UNL     1       2.594  -9.697  23.618  1.00  0.00     0.274 HD
ATOM     15  H11 UNL     1       3.548 -10.268  24.896  1.00  0.00     0.274 HD
ENDBRANCH  11  12
ENDBRANCH  10  11
ENDBRANCH   1  10
TORSDOF 3
ENDMDL