MODEL 2
REMARK VINA RESULT: -4.370052588      2.759      5.080
REMARK  1 active torsions:
REMARK  status: ('A' for Active; 'I' for Inactive)
REMARK    1  A    between atoms: C3_4  and  N2_5
REMARK       I    between atoms: N2_5  and  C4_7
ROOT
HETATM    1  N2  UNL     1       9.566 -10.256  23.255  1.00  0.00    -0.357 N
ATOM      2  H2  UNL     1       9.654 -11.248  23.033  1.00  0.00     0.162 HD
HETATM    3  C4  UNL     1      10.758  -9.522  23.411  1.00  0.00     0.182 C
HETATM    4  N3  UNL     1      11.328  -9.060  22.362  1.00  0.00    -0.374 N
ATOM      5  H31 UNL     1      12.190  -8.528  22.475  1.00  0.00     0.158 HD
ATOM      6  H32 UNL     1      10.917  -9.229  21.444  1.00  0.00     0.158 HD
HETATM    7  N4  UNL     1      11.327  -9.287  24.681  1.00  0.00    -0.064 NA
ENDROOT
BRANCH   1   8
HETATM    8  C3  UNL     1       8.242  -9.725  23.381  1.00  0.00     0.140 C
HETATM    9  C2  UNL     1       7.347 -10.707  24.106  1.00  0.00     0.298 C
HETATM   10  N1  UNL     1       6.275 -10.393  23.171  1.00  0.00     0.088 N
HETATM   11  C1  UNL     1       5.403  -9.324  23.609  1.00  0.00     0.310 C
HETATM   12  C5  UNL     1       7.303  -9.989  22.231  1.00  0.00     0.298 C
ENDBRANCH   1   8
TORSDOF 1
ENDMDL