MODEL 5
REMARK VINA RESULT: -4.086944257      4.001      5.382
REMARK  2 active torsions:
REMARK  status: ('A' for Active; 'I' for Inactive)
REMARK    1  A    between atoms: N2_4  and  C2_6
REMARK    2  A    between atoms: C4_8  and  C5_9
ROOT
HETATM    1  C2  UNL     1      11.294  -9.262  23.117  1.00  0.00     0.108 A
HETATM    2  C3  UNL     1      11.006 -10.620  23.684  1.00  0.00     0.039 A
HETATM    3  C4  UNL     1      12.303 -10.319  22.947  1.00  0.00     0.050 A
ENDROOT
BRANCH   1   4
HETATM    4  N2  UNL     1      10.425  -8.839  22.088  1.00  0.00    -0.336 N
HETATM    5  N1  UNL     1       9.194  -8.742  22.170  1.00  0.00    -0.345 N
HETATM    6  C1  UNL     1       8.438  -8.301  21.048  1.00  0.00     0.167 C
ATOM      7  H1  UNL     1       8.722  -8.977  23.044  1.00  0.00     0.179 HD
ATOM      8  H2  UNL     1      10.850  -8.592  21.195  1.00  0.00     0.180 HD
ENDBRANCH   1   4
BRANCH   3   9
HETATM    9  C5  UNL     1      13.540 -10.263  23.774  1.00  0.00     0.059 C
HETATM   10  N3  UNL     1      14.501  -9.483  23.467  1.00  0.00    -0.411 N
ATOM     11  H32 UNL     1      14.405  -8.896  22.639  1.00  0.00     0.155 HD
ATOM     12  H31 UNL     1      15.348  -9.445  24.034  1.00  0.00     0.155 HD
ENDBRANCH   3   9
TORSDOF 2
ENDMDL