MODEL 2
REMARK VINA RESULT: -4.627816554      1.367      2.340
REMARK  3 active torsions:
REMARK  status: ('A' for Active; 'I' for Inactive)
REMARK    1  A    between atoms: N1_1  and  N2_4
REMARK    2  A    between atoms: N3_6  and  N4_8
REMARK    3  A    between atoms: C4_12  and  N5_13
ROOT
HETATM    1  N4  UNL     1       7.783 -10.084  22.603  1.00  0.00    -0.282 N
HETATM    2  C1  UNL     1       6.782 -10.407  23.577  1.00  0.00     0.147 C
HETATM    3  C2  UNL     1       5.691  -9.405  23.215  1.00  0.00     0.025 C
HETATM    4  C3  UNL     1       5.913  -9.074  21.758  1.00  0.00     0.057 C
HETATM    5  C4  UNL     1       7.089  -9.976  21.358  1.00  0.00     0.300 C
ENDROOT
BRANCH   1   6
HETATM    6  N3  UNL     1       9.123  -9.918  22.855  1.00  0.00    -0.229 N
HETATM    7  N2  UNL     1       9.893 -10.903  23.056  1.00  0.00    -0.235 N
ATOM      8  H2  UNL     1       9.507 -11.847  23.029  1.00  0.00     0.209 HD
ATOM      9  H3  UNL     1       9.509  -8.975  22.883  1.00  0.00     0.209 HD
BRANCH   7  10
HETATM   10  N1  UNL     1      11.256 -10.732  23.313  1.00  0.00    -0.330 N
ATOM     11  H12 UNL     1      11.562 -10.719  24.286  1.00  0.00     0.178 HD
ATOM     12  H11 UNL     1      11.936 -10.623  22.561  1.00  0.00     0.178 HD
ENDBRANCH   7  10
ENDBRANCH   1   6
BRANCH   5  13
HETATM   13  N5  UNL     1       7.859  -9.332  20.317  1.00  0.00    -0.057 N
ATOM     14  H53 UNL     1       8.857  -9.472  20.468  1.00  0.00     0.276 HD
ATOM     15  H52 UNL     1       7.749  -9.826  19.431  1.00  0.00     0.276 HD
ATOM     16  H51 UNL     1       7.647  -8.340  20.204  1.00  0.00     0.276 HD
ENDBRANCH   5  13
TORSDOF 3
ENDMDL