MODEL 3
REMARK VINA RESULT: -4.239217980      6.933      7.975
REMARK  2 active torsions:
REMARK  status: ('A' for Active; 'I' for Inactive)
REMARK    1  A    between atoms: N2_4  and  C1_6
REMARK    2  A    between atoms: C5_10  and  N3_11
ROOT
HETATM    1  C1  UNL     1      13.921 -10.668  23.710  1.00  0.00     0.129 C
HETATM    2  C2  UNL     1      14.973 -10.744  24.808  1.00  0.00     0.029 C
HETATM    3  C3  UNL     1      15.521 -12.140  24.602  1.00  0.00     0.004 C
HETATM    4  C4  UNL     1      15.704 -12.195  23.103  1.00  0.00     0.035 C
HETATM    5  C5  UNL     1      14.505 -11.478  22.587  1.00  0.00     0.207 C
ENDROOT
BRANCH   1   6
HETATM    6  N2  UNL     1      13.834  -9.296  23.318  1.00  0.00    -0.336 N
HETATM    7  N1  UNL     1      13.225  -9.009  22.283  1.00  0.00    -0.349 N
ATOM      8  H12 UNL     1      12.796  -9.750  21.729  1.00  0.00     0.176 HD
ATOM      9  H11 UNL     1      13.163  -8.030  22.004  1.00  0.00     0.176 HD
ATOM     10  H2  UNL     1      14.269  -8.566  23.883  1.00  0.00     0.180 HD
ENDBRANCH   1   6
BRANCH   5  11
HETATM   11  N3  UNL     1      13.491 -12.322  22.049  1.00  0.00    -0.073 N
ATOM     12  H33 UNL     1      13.679 -12.589  21.083  1.00  0.00     0.274 HD
ATOM     13  H32 UNL     1      13.504 -13.256  22.459  1.00  0.00     0.274 HD
ATOM     14  H31 UNL     1      12.587 -11.862  22.157  1.00  0.00     0.274 HD
ENDBRANCH   5  11
TORSDOF 2
ENDMDL