MODEL 2
REMARK VINA RESULT: -4.400949211      1.321      1.867
REMARK  2 active torsions:
REMARK  status: ('A' for Active; 'I' for Inactive)
REMARK    1  A    between atoms: N2_4  and  N3_6
REMARK    2  A    between atoms: C4_11  and  N4_12
ROOT
HETATM    1  N3  UNL     1      12.269 -12.119  22.732  1.00  0.00    -0.293 N
ATOM      2  H3  UNL     1      11.653 -12.805  23.168  1.00  0.00     0.188 HD
HETATM    3  C1  UNL     1      12.020 -10.882  22.944  1.00  0.00     0.035 C
HETATM    4  C2  UNL     1      10.987 -10.163  23.717  1.00  0.00     0.058 C
HETATM    5  C3  UNL     1      11.343  -8.914  22.954  1.00  0.00     0.044 C
HETATM    6  C4  UNL     1      12.616  -9.607  22.539  1.00  0.00     0.230 C
ENDROOT
BRANCH   1   7
HETATM    7  N2  UNL     1      13.315 -12.595  21.955  1.00  0.00    -0.249 N
HETATM    8  N1  UNL     1      13.443 -13.832  21.744  1.00  0.00    -0.331 N
ATOM      9  H12 UNL     1      12.764 -14.474  22.156  1.00  0.00     0.178 HD
ATOM     10  H11 UNL     1      14.211 -14.183  21.173  1.00  0.00     0.178 HD
ATOM     11  H2  UNL     1      13.984 -11.941  21.551  1.00  0.00     0.207 HD
ENDBRANCH   1   7
BRANCH   6  12
HETATM   12  N4  UNL     1      13.783  -9.270  23.302  1.00  0.00    -0.070 N
ATOM     13  H43 UNL     1      13.644  -8.399  23.817  1.00  0.00     0.275 HD
ATOM     14  H42 UNL     1      13.902  -9.910  24.088  1.00  0.00     0.275 HD
ATOM     15  H41 UNL     1      14.629  -9.227  22.734  1.00  0.00     0.275 HD
ENDBRANCH   6  12
TORSDOF 2
ENDMDL