MODEL 2
REMARK VINA RESULT: -4.705875641      6.098      7.109
REMARK  2 active torsions:
REMARK  status: ('A' for Active; 'I' for Inactive)
REMARK    1  A    between atoms: N1_1  and  C1_5
REMARK    2  A    between atoms: C3_7  and  C4_8
ROOT
HETATM    1  C1  UNL     1      13.488 -12.355  22.763  1.00  0.00     0.190 A
HETATM    2  C2  UNL     1      14.753 -11.598  22.891  1.00  0.00     0.041 A
HETATM    3  C3  UNL     1      13.507 -10.973  22.286  1.00  0.00     0.040 A
ENDROOT
BRANCH   1   4
HETATM    4  N1  UNL     1      13.500 -13.411  21.757  1.00  0.00    -0.075 N
ATOM      5  H13 UNL     1      13.390 -13.011  20.825  1.00  0.00     0.274 HD
ATOM      6  H12 UNL     1      14.437 -13.805  21.672  1.00  0.00     0.274 HD
ATOM      7  H11 UNL     1      12.818 -14.155  21.904  1.00  0.00     0.274 HD
ENDBRANCH   1   4
BRANCH   3   8
HETATM    8  C4  UNL     1      12.958  -9.819  23.059  1.00  0.00     0.117 C
HETATM    9  C5  UNL     1      11.483  -9.870  23.377  1.00  0.00     0.153 C
HETATM   10  N2  UNL     1      11.596  -8.411  23.251  1.00  0.00    -0.146 NA
HETATM   11  N3  UNL     1      12.558  -8.667  22.242  1.00  0.00    -0.142 NA
ENDBRANCH   3   8
TORSDOF 2
ENDMDL