MODEL 2
REMARK VINA RESULT: -3.717725895      1.205      1.323
REMARK  1 active torsions:
REMARK  status: ('A' for Active; 'I' for Inactive)
REMARK    1  A    between atoms: C2_2  and  N1_3
ROOT
HETATM    1  N1  UNL     1      30.580   6.179  28.299  1.00  0.00    -0.040 N
HETATM    2  C3  UNL     1      29.607   5.151  28.197  1.00  0.00     0.468 C
HETATM    3  N2  UNL     1      28.369   5.921  28.452  1.00  0.00    -0.043 N
ATOM      4  H21 UNL     1      27.832   5.647  29.275  1.00  0.00     0.279 HD
ATOM      5  H22 UNL     1      27.600   5.761  27.802  1.00  0.00     0.279 HD
HETATM    6  C4  UNL     1      28.913   7.241  28.468  1.00  0.00     0.239 C
HETATM    7  C5  UNL     1      30.118   7.077  29.358  1.00  0.00     0.274 C
HETATM    8  C6  UNL     1      29.993   7.179  27.382  1.00  0.00     0.274 C
ENDROOT
BRANCH   1   9
HETATM    9  C2  UNL     1      31.940   5.924  28.187  1.00  0.00     0.235 C
HETATM   10  C1  UNL     1      32.309   4.460  28.247  1.00  0.00     0.035 C
ENDBRANCH   1   9
TORSDOF 1
ENDMDL