MODEL 2
REMARK VINA RESULT: -4.835953065      1.449      1.754
REMARK  1 active torsions:
REMARK  status: ('A' for Active; 'I' for Inactive)
REMARK    1  A    between atoms: N2_4  and  C1_6
ROOT
HETATM    1  C1  UNL     1      30.832   4.737  28.474  1.00  0.00     0.194 C
HETATM    2  N3  UNL     1      30.471   5.944  28.744  1.00  0.00    -0.376 N
HETATM    3  C2  UNL     1      29.344   6.294  29.585  1.00  0.00     0.123 C
HETATM    4  C3  UNL     1      29.108   7.746  29.197  1.00  0.00     0.021 C
HETATM    5  C4  UNL     1      30.551   8.237  29.088  1.00  0.00     0.021 C
HETATM    6  C5  UNL     1      31.141   7.113  28.241  1.00  0.00     0.123 C
ENDROOT
BRANCH   1   7
HETATM    7  N2  UNL     1      31.950   4.449  27.638  1.00  0.00    -0.303 N
HETATM    8  N1  UNL     1      32.629   3.398  27.862  1.00  0.00    -0.344 N
ATOM      9  H12 UNL     1      32.365   2.782  28.631  1.00  0.00     0.176 HD
ATOM     10  H11 UNL     1      33.429   3.192  27.264  1.00  0.00     0.176 HD
ATOM     11  H2  UNL     1      32.200   5.076  26.873  1.00  0.00     0.187 HD
ENDBRANCH   1   7
TORSDOF 1
ENDMDL