MODEL 2
REMARK VINA RESULT: -4.201539619      1.483      1.759
REMARK  1 active torsions:
REMARK  status: ('A' for Active; 'I' for Inactive)
REMARK    1  A    between atoms: N2_6  and  C5_7
ROOT
HETATM    1  C1  UNL     1      29.321   5.723  29.892  1.00  0.00     0.273 C
HETATM    2  N1  UNL     1      29.683   6.369  28.651  1.00  0.00    -0.062 N
HETATM    3  C2  UNL     1      28.487   7.103  28.208  1.00  0.00     0.273 C
HETATM    4  C3  UNL     1      30.772   7.295  28.782  1.00  0.00     0.252 C
HETATM    5  C4  UNL     1      31.860   6.791  27.854  1.00  0.00     0.126 C
HETATM    6  N2  UNL     1      31.495   5.428  27.534  1.00  0.00    -0.254 NA
HETATM    7  C6  UNL     1      30.073   5.425  27.652  1.00  0.00     0.334 C
ENDROOT
BRANCH   6   8
HETATM    8  C5  UNL     1      32.164   4.509  28.352  1.00  0.00     0.145 C
HETATM    9  N3  UNL     1      32.682   3.461  27.876  1.00  0.00    -0.399 N
ATOM     10  H32 UNL     1      32.602   3.296  26.873  1.00  0.00     0.156 HD
ATOM     11  H31 UNL     1      33.169   2.792  28.471  1.00  0.00     0.156 HD
ENDBRANCH   6   8
TORSDOF 1
ENDMDL