MODEL 5
REMARK VINA RESULT: -3.818094478      1.090      2.626
REMARK  0 active torsions:
REMARK  status: ('A' for Active; 'I' for Inactive)
ROOT
HETATM    1  C1  UNL     1      29.686   8.156  27.984  1.00  0.00     0.055 C
HETATM    2  C2  UNL     1      31.083   8.386  27.428  1.00  0.00     0.236 C
HETATM    3  N1  UNL     1      31.558   7.091  26.962  1.00  0.00    -0.051 N
ATOM      4  H11 UNL     1      32.417   7.178  26.419  1.00  0.00     0.279 HD
ATOM      5  H12 UNL     1      30.954   6.707  26.235  1.00  0.00     0.279 HD
HETATM    6  C3  UNL     1      31.718   6.158  28.083  1.00  0.00     0.467 C
HETATM    7  N2  UNL     1      30.434   5.907  28.647  1.00  0.00    -0.040 N
HETATM    8  C4  UNL     1      29.745   7.092  29.013  1.00  0.00     0.241 C
HETATM    9  C5  UNL     1      30.207   4.785  29.527  1.00  0.00     0.267 A
HETATM   10  C6  UNL     1      29.754   4.749  28.143  1.00  0.00     0.267 A
ENDROOT
TORSDOF 0
ENDMDL