MODEL 1
REMARK VINA RESULT: -4.058979845      0.000      0.000
REMARK  2 active torsions:
REMARK  status: ('A' for Active; 'I' for Inactive)
REMARK    1  A    between atoms: N1_6  and  C7_8
REMARK    2  A    between atoms: C7_8  and  O1_9
ROOT
HETATM    1  C1  UNL     1      31.671   4.913  28.244  1.00  0.00     0.014 C
HETATM    2  C2  UNL     1      31.413   6.082  28.249  1.00  0.00    -0.084 C
HETATM    3  C3  UNL     1      31.114   7.495  28.235  1.00  0.00     0.271 C
HETATM    4  C4  UNL     1      30.854   8.044  26.826  1.00  0.00     0.074 C
HETATM    5  C5  UNL     1      29.927   8.978  27.601  1.00  0.00     0.244 C
HETATM    6  N1  UNL     1      29.790   7.895  28.579  1.00  0.00    -0.036 N
HETATM    7  C6  UNL     1      28.723   6.983  28.237  1.00  0.00     0.276 C
ENDROOT
BRANCH   6   8
HETATM    8  C7  UNL     1      29.582   8.355  29.938  1.00  0.00     0.402 C
BRANCH   8   9
HETATM    9  O1  UNL     1      28.425   7.867  30.508  1.00  0.00    -0.374 OA
ATOM     10  H1  UNL     1      28.381   6.918  30.511  1.00  0.00     0.211 HD
ENDBRANCH   8   9
ENDBRANCH   6   8
TORSDOF 2
ENDMDL