MODEL 2
REMARK VINA RESULT: -3.648184196      1.369      1.906
REMARK  1 active torsions:
REMARK  status: ('A' for Active; 'I' for Inactive)
REMARK    1  A    between atoms: C1_2  and  N1_3
ROOT
HETATM    1  N1  UNL     1      31.443   6.496  28.447  1.00  0.00    -0.272 NA
HETATM    2  C2  UNL     1      30.768   7.148  27.446  1.00  0.00     0.082 A
HETATM    3  C3  UNL     1      29.851   8.350  27.551  1.00  0.00     0.023 C
HETATM    4  C4  UNL     1      28.970   7.247  28.183  1.00  0.00     0.023 C
HETATM    5  C5  UNL     1      30.269   7.024  28.926  1.00  0.00     0.082 A
ENDROOT
BRANCH   1   6
HETATM    6  C1  UNL     1      31.538   5.050  28.488  1.00  0.00     0.142 C
HETATM    7  S1  UNL     1      32.714   4.352  28.146  1.00  0.00    -0.080 SA
ENDBRANCH   1   6
TORSDOF 1
ENDMDL