MODEL 5
REMARK VINA RESULT: -3.745945316      1.986      2.965
REMARK  1 active torsions:
REMARK  status: ('A' for Active; 'I' for Inactive)
REMARK    1  A    between atoms: C2_2  and  N1_3
ROOT
HETATM    1  N1  UNL     1      29.857   6.947  29.106  1.00  0.00     0.018 N
HETATM    2  C3  UNL     1      29.156   8.035  29.861  1.00  0.00     0.296 A
HETATM    3  C4  UNL     1      28.886   7.748  28.435  1.00  0.00     0.240 A
HETATM    4  C5  UNL     1      29.606   8.639  27.455  1.00  0.00     0.055 C
HETATM    5  C6  UNL     1      31.049   8.460  27.876  1.00  0.00     0.145 C
HETATM    6  N2  UNL     1      31.112   7.287  28.685  1.00  0.00    -0.046 NA
ENDROOT
BRANCH   1   7
HETATM    7  C2  UNL     1      29.488   5.629  29.493  1.00  0.00     0.256 C
HETATM    8  C1  UNL     1      30.462   4.554  29.261  1.00  0.00     0.036 C
ENDBRANCH   1   7
TORSDOF 1
ENDMDL