MODEL 2
REMARK VINA RESULT: -3.640002720      1.265      2.635
REMARK  0 active torsions:
REMARK  status: ('A' for Active; 'I' for Inactive)
ROOT
HETATM    1  C1  UNL     1      31.616   6.079  28.135  1.00  0.00     0.297 C
HETATM    2  N1  UNL     1      30.648   7.084  28.290  1.00  0.00     0.007 N
HETATM    3  C2  UNL     1      29.295   6.627  28.475  1.00  0.00     0.260 C
HETATM    4  C3  UNL     1      28.382   7.788  28.054  1.00  0.00     0.037 C
HETATM    5  C4  UNL     1      29.418   8.842  27.732  1.00  0.00     0.031 C
HETATM    6  C5  UNL     1      30.110   9.191  29.023  1.00  0.00     0.149 C
HETATM    7  N2  UNL     1      30.921   8.015  29.291  1.00  0.00    -0.047 NA
HETATM    8  C6  UNL     1      30.494   7.943  27.101  1.00  0.00     0.265 C
ENDROOT
TORSDOF 0
ENDMDL