MODEL 1
REMARK VINA RESULT: -4.530568436      0.000      0.000
REMARK  1 active torsions:
REMARK  status: ('A' for Active; 'I' for Inactive)
REMARK    1  A    between atoms: C3_3  and  N1_4
ROOT
HETATM    1  C1  UNL     1      32.423   4.558  28.213  1.00  0.00     0.013 C
HETATM    2  C2  UNL     1      31.779   5.522  27.876  1.00  0.00    -0.089 C
HETATM    3  C3  UNL     1      31.006   6.684  27.445  1.00  0.00     0.332 C
ENDROOT
BRANCH   3   4
HETATM    4  N1  UNL     1      30.147   7.167  28.415  1.00  0.00    -0.029 N
HETATM    5  C4  UNL     1      29.461   6.255  29.304  1.00  0.00     0.469 C
HETATM    6  N2  UNL     1      28.692   7.224  30.114  1.00  0.00    -0.043 N
HETATM    7  C5  UNL     1      29.009   8.428  29.443  1.00  0.00     0.239 C
ATOM      8  H22 UNL     1      27.698   7.023  30.215  1.00  0.00     0.279 HD
ATOM      9  H21 UNL     1      28.884   7.212  31.116  1.00  0.00     0.279 HD
HETATM   10  C6  UNL     1      30.526   8.293  29.238  1.00  0.00     0.275 C
HETATM   11  C7  UNL     1      29.022   8.018  27.987  1.00  0.00     0.275 C
ENDBRANCH   3   4
TORSDOF 1
ENDMDL