MODEL 5
REMARK VINA RESULT: -3.472113629      1.536      2.053
REMARK  1 active torsions:
REMARK  status: ('A' for Active; 'I' for Inactive)
REMARK    1  A    between atoms: C2_2  and  N1_3
ROOT
HETATM    1  N1  UNL     1      29.752   7.722  29.040  1.00  0.00    -0.046 N
HETATM    2  C3  UNL     1      30.862   8.396  28.368  1.00  0.00     0.274 C
HETATM    3  C4  UNL     1      30.048   6.343  29.271  1.00  0.00     0.266 C
HETATM    4  C5  UNL     1      29.020   5.517  28.540  1.00  0.00     0.262 C
HETATM    5  N2  UNL     1      27.967   6.446  28.281  1.00  0.00    -0.049 N
ATOM      6  H21 UNL     1      27.249   6.482  29.005  1.00  0.00     0.279 HD
ATOM      7  H22 UNL     1      27.340   6.173  27.524  1.00  0.00     0.279 HD
HETATM    8  C6  UNL     1      28.655   7.682  28.065  1.00  0.00     0.467 C
ENDROOT
BRANCH   1   9
HETATM    9  C2  UNL     1      29.393   8.484  30.172  1.00  0.00     0.234 C
HETATM   10  C1  UNL     1      30.308   9.597  30.546  1.00  0.00     0.035 C
ENDBRANCH   1   9
TORSDOF 1
ENDMDL