MODEL 2
REMARK VINA RESULT: -4.823891631      1.304      1.391
REMARK  5 active torsions:
REMARK  status: ('A' for Active; 'I' for Inactive)
REMARK    1  A    between atoms: O1_1  and  C1_3
REMARK    2  A    between atoms: C1_3  and  C2_4
REMARK    3  A    between atoms: C2_4  and  O2_5
REMARK    4  A    between atoms: C4_8  and  O3_9
REMARK    5  A    between atoms: C5_11  and  O4_12
ROOT
HETATM    1  C2  UNL     1      29.368   9.113  30.090  1.00  0.00     0.152 C
HETATM    2  C3  UNL     1      29.335   7.630  30.193  1.00  0.00     0.097 C
HETATM    3  C4  UNL     1      29.244   6.908  28.888  1.00  0.00     0.154 C
HETATM    4  C5  UNL     1      30.372   7.430  28.001  1.00  0.00     0.180 C
HETATM    5  C6  UNL     1      29.996   8.900  27.773  1.00  0.00     0.183 C
HETATM    6 BR1  UNL     1      31.001   9.701  26.371  1.00  0.00    -0.066 Br
HETATM    7  N1  UNL     1      30.177   9.577  29.013  1.00  0.00    -0.374 N
ATOM      8  H1  UNL     1      30.841  10.342  29.122  1.00  0.00     0.157 HD
ENDROOT
BRANCH   1   9
HETATM    9  C1  UNL     1      28.023   9.769  29.988  1.00  0.00     0.224 C
BRANCH   9  10
HETATM   10  O1  UNL     1      26.971   9.014  30.401  1.00  0.00    -0.396 OA
ATOM     11  H1  UNL     1      26.541   9.311  31.195  1.00  0.00     0.209 HD
ENDBRANCH   9  10
ENDBRANCH   1   9
BRANCH   1  12
HETATM   12  O2  UNL     1      29.954   9.590  31.288  1.00  0.00    -0.369 OA
ATOM     13  H2  UNL     1      29.655  10.486  31.392  1.00  0.00     0.212 HD
ENDBRANCH   1  12
BRANCH   3  14
HETATM   14  O3  UNL     1      28.023   7.037  28.264  1.00  0.00    -0.393 OA
ATOM     15  H3  UNL     1      27.743   7.938  28.151  1.00  0.00     0.210 HD
ENDBRANCH   3  14
BRANCH   4  16
HETATM   16  O4  UNL     1      31.553   7.383  28.751  1.00  0.00    -0.390 OA
ATOM     17  H4  UNL     1      31.311   7.222  29.656  1.00  0.00     0.210 HD
ENDBRANCH   4  16
TORSDOF 5
ENDMDL