MODEL 2
REMARK VINA RESULT: -6.231507933      2.843      5.368
REMARK  5 active torsions:
REMARK  status: ('A' for Active; 'I' for Inactive)
REMARK    1  A    between atoms: O1_1  and  C1_3
REMARK    2  A    between atoms: C3_8  and  N2_9
REMARK    3  A    between atoms: C5_11  and  O2_12
REMARK    4  A    between atoms: C7_16  and  O3_17
REMARK    5  A    between atoms: C9_20  and  O4_21
ROOT
HETATM    1  C1  UNL     1      30.773   4.861  28.477  1.00  0.00     0.176 C
HETATM    2  C2  UNL     1      31.746   5.899  27.991  1.00  0.00     0.269 C
HETATM    3  N1  UNL     1      31.379   7.071  28.752  1.00  0.00    -0.049 N
ATOM      4  H11 UNL     1      31.816   7.941  28.449  1.00  0.00     0.279 HD
ATOM      5  H12 UNL     1      31.750   7.107  29.701  1.00  0.00     0.279 HD
HETATM    6  C3  UNL     1      29.910   7.037  28.651  1.00  0.00     0.321 C
HETATM    7  C9  UNL     1      29.599   5.659  29.079  1.00  0.00     0.199 C
ENDROOT
BRANCH   6   8
HETATM    8  N2  UNL     1      29.333   8.132  29.297  1.00  0.00    -0.339 N
HETATM    9  C4  UNL     1      30.064   8.908  30.175  1.00  0.00     0.100 C
HETATM   10  C5  UNL     1      29.250   9.941  30.929  1.00  0.00     0.193 C
HETATM   11  C6  UNL     1      28.056  10.460  30.214  1.00  0.00     0.237 C
HETATM   12  F1  UNL     1      27.919  11.836  30.382  1.00  0.00    -0.243 F
HETATM   13  C7  UNL     1      27.909  10.065  28.787  1.00  0.00     0.193 C
HETATM   14  C8  UNL     1      28.171   8.589  28.664  1.00  0.00     0.100 C
BRANCH  10  15
HETATM   15  O2  UNL     1      28.919   9.370  32.173  1.00  0.00    -0.387 OA
ATOM     16  H2  UNL     1      28.538   8.520  31.994  1.00  0.00     0.210 HD
ENDBRANCH  10  15
BRANCH  13  17
HETATM   17  O3  UNL     1      28.570  10.847  27.876  1.00  0.00    -0.387 OA
ATOM     18  H3  UNL     1      28.025  11.396  27.325  1.00  0.00     0.210 HD
ENDBRANCH  13  17
ENDBRANCH   6   8
BRANCH   7  19
HETATM   19  O4  UNL     1      29.458   5.393  30.406  1.00  0.00    -0.389 OA
ATOM     20  H4  UNL     1      28.542   5.307  30.639  1.00  0.00     0.210 HD
ENDBRANCH   7  19
BRANCH   1  21
HETATM   21  O1  UNL     1      31.342   4.061  29.452  1.00  0.00    -0.391 OA
ATOM     22  H1  UNL     1      30.736   3.911  30.170  1.00  0.00     0.210 HD
ENDBRANCH   1  21
TORSDOF 5
ENDMDL