MODEL 3
REMARK VINA RESULT: -5.017467101      1.961      3.083
REMARK  4 active torsions:
REMARK  status: ('A' for Active; 'I' for Inactive)
REMARK    1  A    between atoms: O1_1  and  C1_3
REMARK    2  A    between atoms: C2_7  and  O2_8
REMARK    3  A    between atoms: C3_10  and  O3_11
REMARK    4  A    between atoms: C5_15  and  O4_16
ROOT
HETATM    1  C1  UNL     1      29.162   7.541  29.749  1.00  0.00     0.352 C
HETATM    2  N1  UNL     1      29.120   6.092  29.724  1.00  0.00    -0.018 N
ATOM      3  H11 UNL     1      28.184   5.714  29.869  1.00  0.00     0.283 HD
ATOM      4  H12 UNL     1      29.558   5.662  30.538  1.00  0.00     0.283 HD
HETATM    5  C2  UNL     1      29.719   5.682  28.462  1.00  0.00     0.352 C
HETATM    6  C3  UNL     1      31.169   6.074  28.382  1.00  0.00     0.191 C
HETATM    7  C4  UNL     1      31.301   7.556  28.590  1.00  0.00     0.124 C
HETATM    8 BR1  UNL     1      30.464   8.444  27.071  1.00  0.00    -0.086 Br
HETATM    9  C5  UNL     1      30.570   8.039  29.829  1.00  0.00     0.191 C
ENDROOT
BRANCH   1  10
HETATM   10  O1  UNL     1      28.328   8.043  30.726  1.00  0.00    -0.368 OA
ATOM     11  H1  UNL     1      28.539   8.948  30.920  1.00  0.00     0.212 HD
ENDBRANCH   1  10
BRANCH   9  12
HETATM   12  O4  UNL     1      30.528   9.448  29.724  1.00  0.00    -0.390 OA
ATOM     13  H4  UNL     1      29.697   9.681  29.326  1.00  0.00     0.210 HD
ENDBRANCH   9  12
BRANCH   5  14
HETATM   14  O2  UNL     1      29.486   4.361  28.157  1.00  0.00    -0.368 OA
ATOM     15  H2  UNL     1      30.159   3.981  27.606  1.00  0.00     0.212 HD
ENDBRANCH   5  14
BRANCH   6  16
HETATM   16  O3  UNL     1      31.999   5.319  29.171  1.00  0.00    -0.390 OA
ATOM     17  H3  UNL     1      32.546   4.711  28.688  1.00  0.00     0.210 HD
ENDBRANCH   6  16
TORSDOF 4
ENDMDL