MODEL 1
REMARK VINA RESULT: -5.682474389      0.000      0.000
REMARK  4 active torsions:
REMARK  status: ('A' for Active; 'I' for Inactive)
REMARK    1  A    between atoms: O1_1  and  C1_3
REMARK    2  A    between atoms: C3_7  and  O3_8
REMARK    3  A    between atoms: C4_10  and  O4_11
REMARK    4  A    between atoms: C5_13  and  O5_14
ROOT
HETATM    1  C1  UNL     1      30.728   7.972  29.078  1.00  0.00     0.289 C
HETATM    2  O2  UNL     1      31.632   6.943  29.059  1.00  0.00    -0.340 OA
HETATM    3  C2  UNL     1      31.287   5.902  28.205  1.00  0.00     0.227 C
HETATM    4 BR1  UNL     1      32.777   4.666  28.157  1.00  0.00    -0.058 Br
HETATM    5  C3  UNL     1      30.125   5.182  28.900  1.00  0.00     0.189 C
HETATM    6  C4  UNL     1      29.039   6.124  29.286  1.00  0.00     0.183 C
HETATM    7  C5  UNL     1      29.297   7.553  28.972  1.00  0.00     0.204 C
ENDROOT
BRANCH   1   8
HETATM    8  O1  UNL     1      30.976   8.737  30.233  1.00  0.00    -0.368 OA
ATOM      9  H1  UNL     1      31.599   9.416  30.000  1.00  0.00     0.212 HD
ENDBRANCH   1   8
BRANCH   7  10
HETATM   10  O5  UNL     1      28.744   7.947  27.732  1.00  0.00    -0.388 OA
ATOM     11  H5  UNL     1      27.958   7.452  27.536  1.00  0.00     0.210 HD
ENDBRANCH   7  10
BRANCH   6  12
HETATM   12  O4  UNL     1      27.831   5.700  28.714  1.00  0.00    -0.390 OA
ATOM     13  H4  UNL     1      27.295   6.459  28.514  1.00  0.00     0.210 HD
ENDBRANCH   6  12
BRANCH   5  14
HETATM   14  O3  UNL     1      29.666   4.143  28.096  1.00  0.00    -0.389 OA
ATOM     15  H3  UNL     1      28.953   3.691  28.530  1.00  0.00     0.210 HD
ENDBRANCH   5  14
TORSDOF 4
ENDMDL