MODEL 5
REMARK VINA RESULT: -4.822356396      2.491      3.978
REMARK  4 active torsions:
REMARK  status: ('A' for Active; 'I' for Inactive)
REMARK    1  A    between atoms: O1_1  and  C1_3
REMARK    2  A    between atoms: C2_7  and  O2_8
REMARK    3  A    between atoms: C4_12  and  O3_13
REMARK    4  A    between atoms: C5_15  and  O4_16
ROOT
HETATM    1  C1  UNL     1      29.972   6.107  28.943  1.00  0.00     0.353 C
HETATM    2  N1  UNL     1      29.174   6.830  29.925  1.00  0.00    -0.019 N
ATOM      3  H11 UNL     1      29.685   7.038  30.784  1.00  0.00     0.283 HD
ATOM      4  H12 UNL     1      28.442   6.259  30.348  1.00  0.00     0.283 HD
HETATM    5  C2  UNL     1      28.670   8.005  29.264  1.00  0.00     0.338 C
HETATM    6  C3  UNL     1      29.836   8.919  28.942  1.00  0.00     0.145 C
HETATM    7 BR1  UNL     1      30.546   9.687  30.575  1.00  0.00    -0.084 Br
HETATM    8  C4  UNL     1      30.898   8.244  28.132  1.00  0.00     0.169 C
HETATM    9  C5  UNL     1      31.211   6.851  28.563  1.00  0.00     0.204 C
ENDROOT
BRANCH   1  10
HETATM   10  O1  UNL     1      30.213   4.852  29.436  1.00  0.00    -0.368 OA
ATOM     11  H1  UNL     1      30.618   4.340  28.746  1.00  0.00     0.212 HD
ENDBRANCH   1  10
BRANCH   9  12
HETATM   12  O4  UNL     1      31.788   6.162  27.477  1.00  0.00    -0.389 OA
ATOM     13  H4  UNL     1      31.722   5.234  27.670  1.00  0.00     0.210 HD
ENDBRANCH   9  12
BRANCH   5  14
HETATM   14  O2  UNL     1      27.739   8.698  30.001  1.00  0.00    -0.369 OA
ATOM     15  H2  UNL     1      27.466   9.515  29.601  1.00  0.00     0.212 HD
ENDBRANCH   5  14
BRANCH   8  16
HETATM   16  O3  UNL     1      30.502   8.228  26.804  1.00  0.00    -0.392 OA
ATOM     17  H3  UNL     1      31.178   7.803  26.290  1.00  0.00     0.210 HD
ENDBRANCH   8  16
TORSDOF 4
ENDMDL