MODEL 4
REMARK VINA RESULT: -5.521193582      1.470      2.693
REMARK  5 active torsions:
REMARK  status: ('A' for Active; 'I' for Inactive)
REMARK    1  A    between atoms: O1_1  and  C1_3
REMARK    2  A    between atoms: C2_6  and  C3_7
REMARK    3  A    between atoms: C4_9  and  O2_10
REMARK    4  A    between atoms: C5_12  and  O3_13
REMARK    5  A    between atoms: C6_15  and  O4_16
ROOT
HETATM    1  C1  UNL     1      31.588   6.187  28.505  1.00  0.00     0.245 C
HETATM    2  N1  UNL     1      31.540   7.594  28.534  1.00  0.00    -0.387 N
ATOM      3  H1  UNL     1      32.402   8.126  28.656  1.00  0.00     0.156 HD
HETATM    4  C2  UNL     1      30.334   8.265  28.399  1.00  0.00     0.120 C
HETATM    5  C4  UNL     1      29.261   7.575  29.208  1.00  0.00     0.172 C
HETATM    6  C5  UNL     1      29.080   6.224  28.510  1.00  0.00     0.181 C
HETATM    7  C6  UNL     1      30.347   5.457  28.803  1.00  0.00     0.197 C
ENDROOT
BRANCH   1   8
HETATM    8  O1  UNL     1      32.151   5.795  27.266  1.00  0.00    -0.374 OA
ATOM      9  H1  UNL     1      31.501   5.288  26.796  1.00  0.00     0.212 HD
ENDBRANCH   1   8
BRANCH   7  10
HETATM   10  O4  UNL     1      30.368   4.229  28.122  1.00  0.00    -0.389 OA
ATOM     11  H4  UNL     1      30.488   3.529  28.754  1.00  0.00     0.210 HD
ENDBRANCH   7  10
BRANCH   4  12
HETATM   12  C3  UNL     1      30.500   9.715  28.807  1.00  0.00     0.112 C
HETATM   13 BR1  UNL     1      30.781   9.824  30.719  1.00  0.00    -0.094 Br
ENDBRANCH   4  12
BRANCH   6  14
HETATM   14  O3  UNL     1      27.963   5.570  28.928  1.00  0.00    -0.390 OA
ATOM     15  H3  UNL     1      27.736   4.842  28.362  1.00  0.00     0.210 HD
ENDBRANCH   6  14
BRANCH   5  16
HETATM   16  O2  UNL     1      28.087   8.283  29.281  1.00  0.00    -0.391 OA
ATOM     17  H2  UNL     1      28.018   8.828  30.056  1.00  0.00     0.210 HD
ENDBRANCH   5  16
TORSDOF 5
ENDMDL