MODEL 2
REMARK VINA RESULT: -5.536249248      1.800      2.315
REMARK  5 active torsions:
REMARK  status: ('A' for Active; 'I' for Inactive)
REMARK    1  A    between atoms: O1_1  and  C1_3
REMARK    2  A    between atoms: C1_3  and  C2_4
REMARK    3  A    between atoms: C4_9  and  O2_10
REMARK    4  A    between atoms: C5_12  and  O3_13
REMARK    5  A    between atoms: C6_15  and  O4_16
ROOT
HETATM    1  C2  UNL     1      29.654   6.619  28.488  1.00  0.00     0.132 C
HETATM    2  N1  UNL     1      30.328   7.615  27.728  1.00  0.00    -0.397 N
ATOM      3  H1  UNL     1      30.958   7.367  26.965  1.00  0.00     0.155 HD
HETATM    4  C3  UNL     1      30.085   8.971  28.079  1.00  0.00     0.181 C
HETATM    5 BR1  UNL     1      31.547  10.034  27.374  1.00  0.00    -0.066 Br
HETATM    6  C4  UNL     1      30.034   9.238  29.559  1.00  0.00     0.182 C
HETATM    7  C5  UNL     1      28.978   8.298  30.137  1.00  0.00     0.180 C
HETATM    8  C6  UNL     1      29.521   6.920  29.948  1.00  0.00     0.173 C
ENDROOT
BRANCH   1   9
HETATM    9  C1  UNL     1      30.412   5.314  28.339  1.00  0.00     0.191 C
BRANCH   9  10
HETATM   10  O1  UNL     1      29.566   4.236  28.151  1.00  0.00    -0.399 OA
ATOM     11  H1  UNL     1      28.935   4.391  27.458  1.00  0.00     0.209 HD
ENDBRANCH   9  10
ENDBRANCH   1   9
BRANCH   8  12
HETATM   12  O4  UNL     1      28.666   5.938  30.492  1.00  0.00    -0.391 OA
ATOM     13  H4  UNL     1      28.899   5.846  31.408  1.00  0.00     0.210 HD
ENDBRANCH   8  12
BRANCH   7  14
HETATM   14  O3  UNL     1      27.809   8.536  29.426  1.00  0.00    -0.390 OA
ATOM     15  H3  UNL     1      27.147   7.964  29.798  1.00  0.00     0.210 HD
ENDBRANCH   7  14
BRANCH   6  16
HETATM   16  O2  UNL     1      31.278   9.019  30.107  1.00  0.00    -0.390 OA
ATOM     17  H2  UNL     1      31.345   9.483  30.934  1.00  0.00     0.210 HD
ENDBRANCH   6  16
TORSDOF 5
ENDMDL