MODEL 2
REMARK VINA RESULT: -5.443148396      1.847      3.353
REMARK  4 active torsions:
REMARK  status: ('A' for Active; 'I' for Inactive)
REMARK    1  A    between atoms: O1_1  and  C1_3
REMARK    2  A    between atoms: C2_5  and  O3_6
REMARK    3  A    between atoms: C3_8  and  O4_9
REMARK    4  A    between atoms: C5_13  and  O5_14
ROOT
HETATM    1  C1  UNL     1      29.416   7.159  30.115  1.00  0.00     0.289 C
HETATM    2  O2  UNL     1      28.915   6.214  29.217  1.00  0.00    -0.327 OA
HETATM    3  C2  UNL     1      30.047   5.464  28.818  1.00  0.00     0.289 C
HETATM    4  C3  UNL     1      30.800   6.330  27.842  1.00  0.00     0.190 C
HETATM    5  C4  UNL     1      31.129   7.685  28.352  1.00  0.00     0.125 C
HETATM    6 BR1  UNL     1      30.958   8.931  26.859  1.00  0.00    -0.086 Br
HETATM    7  C5  UNL     1      30.298   8.178  29.470  1.00  0.00     0.190 C
ENDROOT
BRANCH   1   8
HETATM    8  O1  UNL     1      28.286   7.763  30.702  1.00  0.00    -0.368 OA
ATOM      9  H1  UNL     1      27.590   7.119  30.643  1.00  0.00     0.212 HD
ENDBRANCH   1   8
BRANCH   7  10
HETATM   10  O5  UNL     1      29.473   9.250  29.073  1.00  0.00    -0.389 OA
ATOM     11  H5  UNL     1      29.433   9.857  29.802  1.00  0.00     0.210 HD
ENDBRANCH   7  10
BRANCH   3  12
HETATM   12  O3  UNL     1      29.579   4.357  28.123  1.00  0.00    -0.368 OA
ATOM     13  H3  UNL     1      29.547   4.597  27.204  1.00  0.00     0.212 HD
ENDBRANCH   3  12
BRANCH   4  14
HETATM   14  O4  UNL     1      31.967   5.677  27.420  1.00  0.00    -0.389 OA
ATOM     15  H4  UNL     1      32.144   5.881  26.509  1.00  0.00     0.210 HD
ENDBRANCH   4  14
TORSDOF 4
ENDMDL