MODEL 4
REMARK VINA RESULT: -5.954021641      2.245      6.622
REMARK  12 active torsions:
REMARK  status: ('A' for Active; 'I' for Inactive)
REMARK    1  A    between atoms: C2_2  and  C3_3
REMARK    2  A    between atoms: C2_2  and  N3_13
REMARK    3  A    between atoms: C3_3  and  N1_4
REMARK    4  A    between atoms: N1_4  and  C4_7
REMARK    5  A    between atoms: C4_7  and  C5_8
REMARK    6  A    between atoms: C5_8  and  N2_9
REMARK    7  A    between atoms: N3_13  and  C6_16
REMARK    8  A    between atoms: C6_16  and  C7_17
REMARK    9  A    between atoms: C8_19  and  N4_20
REMARK   10  A    between atoms: C10_24  and  N6_25
REMARK   11  A    between atoms: C11_30  and  N8_31
REMARK   12  A    between atoms: C12_34  and  N9_35
ROOT
HETATM    1  C7  UNL     1      -5.432  44.837  52.184  1.00  0.00     0.184 C
HETATM    2  O1  UNL     1      -4.120  44.948  51.658  1.00  0.00    -0.354 OA
HETATM    3  C8  UNL     1      -4.142  43.538  51.822  1.00  0.00     0.280 C
HETATM    4  C12 UNL     1      -5.487  43.637  51.210  1.00  0.00     0.263 C
ENDROOT
BRANCH   1   5
HETATM    5  C6  UNL     1      -6.341  45.949  51.991  1.00  0.00     0.266 C
BRANCH   5   6
HETATM    6  N3  UNL     1      -5.878  47.279  51.957  1.00  0.00    -0.067 N
ATOM      7  H32 UNL     1      -4.858  47.303  51.978  1.00  0.00     0.277 HD
ATOM      8  H31 UNL     1      -6.080  47.750  52.839  1.00  0.00     0.277 HD
BRANCH   6   9
HETATM    9  C2  UNL     1      -6.382  48.059  50.835  1.00  0.00     0.207 C
HETATM   10  C1  UNL     1      -7.852  47.767  50.593  1.00  0.00     0.041 C
BRANCH   9  11
HETATM   11  C3  UNL     1      -5.573  47.807  49.600  1.00  0.00     0.264 C
BRANCH  11  12
HETATM   12  N1  UNL     1      -4.192  47.569  49.868  1.00  0.00    -0.072 N
ATOM     13  H12 UNL     1      -3.728  48.434  50.143  1.00  0.00     0.277 HD
ATOM     14  H11 UNL     1      -4.084  47.032  50.728  1.00  0.00     0.277 HD
BRANCH  12  15
HETATM   15  C4  UNL     1      -3.482  46.940  48.793  1.00  0.00     0.259 C
BRANCH  15  16
HETATM   16  C5  UNL     1      -2.135  46.387  49.240  1.00  0.00     0.257 C
BRANCH  16  17
HETATM   17  N2  UNL     1      -1.437  47.472  49.917  1.00  0.00    -0.078 N
ATOM     18  H23 UNL     1      -1.784  47.646  50.860  1.00  0.00     0.274 HD
ATOM     19  H22 UNL     1      -0.479  47.234  50.174  1.00  0.00     0.274 HD
ATOM     20  H21 UNL     1      -1.498  48.289  49.310  1.00  0.00     0.274 HD
ENDBRANCH  16  17
ENDBRANCH  15  16
ENDBRANCH  12  15
ENDBRANCH  11  12
ENDBRANCH   9  11
ENDBRANCH   6   9
ENDBRANCH   5   6
ENDBRANCH   1   5
BRANCH   4  21
HETATM   21  N9  UNL     1      -5.618  44.167  49.892  1.00  0.00    -0.068 N
ATOM     22  H93 UNL     1      -6.480  43.880  49.430  1.00  0.00     0.275 HD
ATOM     23  H92 UNL     1      -5.792  45.173  49.882  1.00  0.00     0.275 HD
ATOM     24  H91 UNL     1      -4.780  43.902  49.376  1.00  0.00     0.275 HD
ENDBRANCH   4  21
BRANCH   3  25
HETATM   25  N4  UNL     1      -3.078  42.802  51.337  1.00  0.00    -0.149 N
HETATM   26  C9  UNL     1      -3.176  41.728  50.527  1.00  0.00     0.221 A
HETATM   27  N5  UNL     1      -2.132  41.030  50.066  1.00  0.00    -0.187 N
HETATM   28  C10 UNL     1      -0.882  41.387  50.408  1.00  0.00     0.691 A
ATOM     29  H5  UNL     1      -2.285  40.227  49.455  1.00  0.00     0.185 HD
HETATM   30  N7  UNL     1      -0.725  42.438  51.207  1.00  0.00    -0.023 N
HETATM   31  C11 UNL     1      -1.786  43.138  51.667  1.00  0.00     0.695 A
ATOM     32  H7  UNL     1       0.216  42.722  51.478  1.00  0.00     0.203 HD
BRANCH  28  33
HETATM   33  N6  UNL     1       0.130  40.708  49.960  1.00  0.00    -0.234 N
ATOM     34  H62 UNL     1       1.062  41.115  49.888  1.00  0.00     0.174 HD
ATOM     35  H61 UNL     1       0.003  39.739  49.669  1.00  0.00     0.174 HD
ENDBRANCH  28  33
BRANCH  31  36
HETATM   36  N8  UNL     1      -1.499  44.131  52.419  1.00  0.00    -0.234 N
ATOM     37  H82 UNL     1      -2.054  44.206  53.271  1.00  0.00     0.174 HD
ATOM     38  H81 UNL     1      -0.765  44.801  52.193  1.00  0.00     0.174 HD
ENDBRANCH  31  36
ENDBRANCH   3  25
TORSDOF 12
ENDMDL