MODEL 1
REMARK VINA RESULT: -6.276119589      0.000      0.000
REMARK  12 active torsions:
REMARK  status: ('A' for Active; 'I' for Inactive)
REMARK       I    between atoms: C1_4  and  N3_6
REMARK    1  A    between atoms: N3_6  and  C2_8
REMARK    2  A    between atoms: C2_8  and  C3_9
REMARK    3  A    between atoms: C3_9  and  O1_10
REMARK    4  A    between atoms: O1_10  and  C4_11
REMARK    5  A    between atoms: C6_13  and  N4_14
REMARK    6  A    between atoms: N4_14  and  C7_16
REMARK    7  A    between atoms: C7_16  and  C8_17
REMARK    8  A    between atoms: C8_17  and  N5_18
REMARK    9  A    between atoms: C8_17  and  C9_22
REMARK   10  A    between atoms: C9_22  and  N6_23
REMARK   11  A    between atoms: C10_27  and  N7_28
REMARK   12  A    between atoms: C12_33  and  N8_34
ROOT
HETATM    1  C4  UNL     1      -4.769  45.689  50.259  1.00  0.00     0.153 C
HETATM    2  C5  UNL     1      -4.879  47.100  49.704  1.00  0.00     0.060 C
HETATM    3  C6  UNL     1      -6.289  47.431  49.305  1.00  0.00     0.109 C
HETATM    4  C10 UNL     1      -7.294  47.045  50.371  1.00  0.00     0.207 C
HETATM    5  C11 UNL     1      -6.583  46.677  51.623  1.00  0.00     0.070 C
HETATM    6  C12 UNL     1      -5.696  45.464  51.405  1.00  0.00     0.214 C
ENDROOT
BRANCH   3   7
HETATM    7  N4  UNL     1      -6.718  46.847  48.063  1.00  0.00    -0.413 N
ATOM      8  H4  UNL     1      -7.310  46.017  48.037  1.00  0.00     0.153 HD
BRANCH   7   9
HETATM    9  C7  UNL     1      -6.276  47.483  46.872  1.00  0.00     0.148 C
BRANCH   9  10
HETATM   10  C8  UNL     1      -5.494  46.477  46.051  1.00  0.00     0.226 C
BRANCH  10  11
HETATM   11  N5  UNL     1      -6.416  45.883  45.067  1.00  0.00    -0.072 N
ATOM     12  H53 UNL     1      -7.141  45.312  45.500  1.00  0.00     0.274 HD
ATOM     13  H52 UNL     1      -7.027  46.573  44.632  1.00  0.00     0.274 HD
ATOM     14  H51 UNL     1      -5.858  45.365  44.388  1.00  0.00     0.274 HD
ENDBRANCH  10  11
BRANCH  10  15
HETATM   15  C9  UNL     1      -4.382  47.092  45.260  1.00  0.00     0.263 C
BRANCH  15  16
HETATM   16  N6  UNL     1      -4.659  48.519  45.055  1.00  0.00    -0.077 N
ATOM     17  H63 UNL     1      -4.549  48.797  44.081  1.00  0.00     0.274 HD
ATOM     18  H62 UNL     1      -5.650  48.738  45.158  1.00  0.00     0.274 HD
ATOM     19  H61 UNL     1      -4.075  49.072  45.683  1.00  0.00     0.274 HD
ENDBRANCH  15  16
ENDBRANCH  10  15
ENDBRANCH   9  10
ENDBRANCH   7   9
ENDBRANCH   3   7
BRANCH   4  20
HETATM   20  N7  UNL     1      -8.178  46.081  49.850  1.00  0.00    -0.073 N
ATOM     21  H73 UNL     1      -8.665  45.568  50.584  1.00  0.00     0.274 HD
ATOM     22  H72 UNL     1      -8.992  46.505  49.405  1.00  0.00     0.274 HD
ATOM     23  H71 UNL     1      -7.670  45.463  49.218  1.00  0.00     0.274 HD
ENDBRANCH   4  20
BRANCH   1  24
HETATM   24  O1  UNL     1      -3.458  45.405  50.464  1.00  0.00    -0.382 OA
BRANCH  24  25
HETATM   25  C3  UNL     1      -2.926  44.332  49.843  1.00  0.00     0.188 C
BRANCH  25  26
HETATM   26  C2  UNL     1      -2.125  43.404  50.721  1.00  0.00     0.148 C
BRANCH  26  27
HETATM   27  N3  UNL     1      -2.917  42.508  51.515  1.00  0.00    -0.363 N
HETATM   28  C1  UNL     1      -2.654  42.269  52.889  1.00  0.00     0.181 C
HETATM   29  N1  UNL     1      -1.643  41.582  53.273  1.00  0.00    -0.374 N
HETATM   30  N2  UNL     1      -3.533  42.805  53.856  1.00  0.00    -0.064 NA
ATOM     31  H12 UNL     1      -1.454  41.410  54.261  1.00  0.00     0.158 HD
ATOM     32  H11 UNL     1      -1.008  41.195  52.575  1.00  0.00     0.158 HD
ATOM     33  H3  UNL     1      -3.700  42.025  51.074  1.00  0.00     0.162 HD
ENDBRANCH  26  27
ENDBRANCH  25  26
ENDBRANCH  24  25
ENDBRANCH   1  24
BRANCH   6  34
HETATM   34  N8  UNL     1      -4.999  45.251  52.683  1.00  0.00    -0.072 N
ATOM     35  H83 UNL     1      -5.167  44.309  53.036  1.00  0.00     0.274 HD
ATOM     36  H82 UNL     1      -3.990  45.200  52.542  1.00  0.00     0.274 HD
ATOM     37  H81 UNL     1      -5.230  45.950  53.390  1.00  0.00     0.274 HD
ENDBRANCH   6  34
TORSDOF 12
ENDMDL