MODEL 3
REMARK VINA RESULT: -6.461649697      3.555      7.098
REMARK  14 active torsions:
REMARK  status: ('A' for Active; 'I' for Inactive)
REMARK    1  A    between atoms: C2_2  and  C3_3
REMARK    2  A    between atoms: C3_3  and  C4_4
REMARK    3  A    between atoms: C4_4  and  N1_5
REMARK    4  A    between atoms: N1_5  and  C5_7
REMARK    5  A    between atoms: C6_10  and  N3_11
REMARK    6  A    between atoms: C7_16  and  N5_17
REMARK    7  A    between atoms: N5_17  and  C8_19
REMARK    8  A    between atoms: C8_19  and  C9_20
REMARK    9  A    between atoms: C9_20  and  O1_21
REMARK   10  A    between atoms: N7_26  and  N8_28
REMARK   11  A    between atoms: N8_28  and  C11_30
REMARK   12  A    between atoms: C11_30  and  C12_31
REMARK   13  A    between atoms: C12_31  and  N9_32
REMARK   14  A    between atoms: N9_32  and  N10_34
ROOT
HETATM    1  C5  UNL     1      -4.332  46.941  47.469  1.00  0.00     0.167 C
HETATM    2  N2  UNL     1      -3.240  46.756  46.705  1.00  0.00    -0.173 N
ATOM      3  H2  UNL     1      -3.388  46.866  45.702  1.00  0.00     0.186 HD
HETATM    4  C6  UNL     1      -1.963  46.442  47.073  1.00  0.00     0.692 C
HETATM    5  N4  UNL     1      -1.353  46.629  48.250  1.00  0.00    -0.023 N
ATOM      6  H4  UNL     1      -0.336  46.690  48.229  1.00  0.00     0.203 HD
HETATM    7  C7  UNL     1      -1.926  46.744  49.443  1.00  0.00     0.694 C
HETATM    8  N6  UNL     1      -3.205  47.139  49.661  1.00  0.00    -0.171 N
ATOM      9  H6  UNL     1      -3.371  47.561  50.575  1.00  0.00     0.186 HD
HETATM   10  C10 UNL     1      -4.285  47.066  48.875  1.00  0.00     0.180 C
HETATM   11  N7  UNL     1      -5.452  47.110  49.424  1.00  0.00    -0.286 N
ATOM     12  H7  UNL     1      -6.293  47.055  48.850  1.00  0.00     0.188 HD
ENDROOT
BRANCH   1  13
HETATM   13  N1  UNL     1      -5.488  47.012  46.944  1.00  0.00    -0.352 N
ATOM     14  H1  UNL     1      -6.256  47.164  47.597  1.00  0.00     0.166 HD
BRANCH  13  15
HETATM   15  C4  UNL     1      -5.857  46.912  45.596  1.00  0.00     0.062 C
BRANCH  15  16
HETATM   16  C3  UNL     1      -5.915  45.488  45.077  1.00  0.00     0.044 C
BRANCH  16  17
HETATM   17  C2  UNL     1      -4.844  45.184  44.074  1.00  0.00     0.001 C
HETATM   18  C1  UNL     1      -5.377  44.293  42.986  1.00  0.00     0.005 C
ENDBRANCH  16  17
ENDBRANCH  15  16
ENDBRANCH  13  15
ENDBRANCH   1  13
BRANCH  11  19
HETATM   19  N8  UNL     1      -5.556  47.234  50.813  1.00  0.00    -0.333 N
ATOM     20  H8  UNL     1      -4.970  47.920  51.288  1.00  0.00     0.180 HD
BRANCH  19  21
HETATM   21  C11 UNL     1      -6.459  46.429  51.604  1.00  0.00     0.160 C
BRANCH  21  22
HETATM   22  C12 UNL     1      -5.870  45.072  51.876  1.00  0.00     0.160 C
BRANCH  22  23
HETATM   23  N9  UNL     1      -4.752  45.091  52.742  1.00  0.00    -0.341 N
ATOM     24  H9  UNL     1      -4.235  45.954  52.905  1.00  0.00     0.179 HD
BRANCH  23  25
HETATM   25  N10 UNL     1      -4.387  43.949  53.345  1.00  0.00    -0.349 N
ATOM     26 2H10 UNL     1      -4.767  43.061  53.019  1.00  0.00     0.176 HD
ATOM     27 1H10 UNL     1      -3.730  43.996  54.124  1.00  0.00     0.176 HD
ENDBRANCH  23  25
ENDBRANCH  22  23
ENDBRANCH  21  22
ENDBRANCH  19  21
ENDBRANCH  11  19
BRANCH   7  28
HETATM   28  N5  UNL     1      -1.209  46.460  50.450  1.00  0.00    -0.223 N
ATOM     29  H5  UNL     1      -1.142  47.171  51.178  1.00  0.00     0.177 HD
BRANCH  28  30
HETATM   30  C8  UNL     1      -0.483  45.246  50.675  1.00  0.00     0.164 C
BRANCH  30  31
HETATM   31  C9  UNL     1      -1.301  44.312  51.548  1.00  0.00     0.184 C
BRANCH  31  32
HETATM   32  O1  UNL     1      -1.671  44.924  52.738  1.00  0.00    -0.399 OA
ATOM     33  H1  UNL     1      -1.753  44.292  53.442  1.00  0.00     0.209 HD
ENDBRANCH  31  32
ENDBRANCH  30  31
ENDBRANCH  28  30
ENDBRANCH   7  28
BRANCH   4  34
HETATM   34  N3  UNL     1      -1.274  45.893  46.136  1.00  0.00    -0.234 N
ATOM     35  H32 UNL     1      -1.442  44.904  45.954  1.00  0.00     0.174 HD
ATOM     36  H31 UNL     1      -0.624  46.531  45.677  1.00  0.00     0.174 HD
ENDBRANCH   4  34
TORSDOF 14
ENDMDL