MODEL 4
REMARK VINA RESULT: -6.226206539      2.627      5.317
REMARK  12 active torsions:
REMARK  status: ('A' for Active; 'I' for Inactive)
REMARK    1  A    between atoms: C2_7  and  N3_8
REMARK    2  A    between atoms: N7_19  and  C5_20
REMARK    3  A    between atoms: C5_20  and  C6_21
REMARK    4  A    between atoms: C6_21  and  C7_22
REMARK    5  A    between atoms: C7_22  and  O1_23
REMARK    6  A    between atoms: O1_23  and  C8_24
REMARK    7  A    between atoms: C8_24  and  C9_25
REMARK    8  A    between atoms: C9_25  and  C10_26
REMARK    9  A    between atoms: C10_26  and  N8_27
REMARK   10  A    between atoms: N8_27  and  C11_30
REMARK   11  A    between atoms: C11_30  and  C12_31
REMARK   12  A    between atoms: C12_31  and  O2_32
ROOT
HETATM    1  N1  UNL     1      -3.311  47.219  49.506  1.00  0.00    -0.371 N
ATOM      2  H11 UNL     1      -2.730  46.633  48.907  1.00  0.00     0.159 HD
ATOM      3  H12 UNL     1      -2.764  48.012  49.840  1.00  0.00     0.159 HD
HETATM    4  C1  UNL     1      -4.561  46.987  49.800  1.00  0.00     0.176 C
HETATM    5  N2  UNL     1      -5.368  47.801  50.634  1.00  0.00    -0.310 N
ATOM      6  H2  UNL     1      -5.145  48.747  50.944  1.00  0.00     0.167 HD
HETATM    7  C2  UNL     1      -6.562  47.058  50.967  1.00  0.00     0.316 A
HETATM    8  N4  UNL     1      -7.755  47.690  50.448  1.00  0.00    -0.312 N
ATOM      9  H4  UNL     1      -8.091  48.608  50.739  1.00  0.00     0.166 HD
HETATM   10  C3  UNL     1      -8.337  46.951  49.576  1.00  0.00     0.189 A
HETATM   11  N5  UNL     1      -9.540  47.314  48.889  1.00  0.00    -0.064 NA
HETATM   12  N6  UNL     1      -7.653  45.735  49.367  1.00  0.00    -0.338 N
ATOM     13  H6  UNL     1      -7.939  44.980  48.743  1.00  0.00     0.164 HD
HETATM   14  C4  UNL     1      -6.461  45.756  50.210  1.00  0.00     0.268 A
HETATM   15  N7  UNL     1      -5.324  45.882  49.336  1.00  0.00    -0.326 N
ENDROOT
BRANCH  15  16
HETATM   16  C5  UNL     1      -5.010  45.048  48.205  1.00  0.00     0.130 C
BRANCH  16  17
HETATM   17  C6  UNL     1      -4.421  43.711  48.625  1.00  0.00     0.046 C
BRANCH  17  18
HETATM   18  C7  UNL     1      -2.933  43.741  48.437  1.00  0.00     0.169 C
BRANCH  18  19
HETATM   19  O1  UNL     1      -2.240  44.385  49.443  1.00  0.00    -0.391 OA
BRANCH  19  20
HETATM   20  C8  UNL     1      -0.936  43.976  49.459  1.00  0.00     0.169 C
BRANCH  20  21
HETATM   21  C9  UNL     1      -0.218  44.408  50.743  1.00  0.00     0.054 C
BRANCH  21  22
HETATM   22  C10 UNL     1      -1.294  44.633  51.781  1.00  0.00     0.234 C
BRANCH  22  23
HETATM   23  N8  UNL     1      -1.670  43.410  52.441  1.00  0.00    -0.073 N
ATOM     24  H82 UNL     1      -1.647  42.630  51.784  1.00  0.00     0.277 HD
ATOM     25  H81 UNL     1      -0.937  43.116  53.087  1.00  0.00     0.277 HD
BRANCH  23  26
HETATM   26  C11 UNL     1      -2.923  43.457  53.107  1.00  0.00     0.258 C
BRANCH  26  27
HETATM   27  C12 UNL     1      -4.006  44.213  52.422  1.00  0.00     0.191 C
BRANCH  27  28
HETATM   28  O2  UNL     1      -4.978  44.516  53.403  1.00  0.00    -0.399 OA
ATOM     29  H2  UNL     1      -5.377  45.340  53.150  1.00  0.00     0.209 HD
ENDBRANCH  27  28
ENDBRANCH  26  27
ENDBRANCH  23  26
ENDBRANCH  22  23
ENDBRANCH  21  22
ENDBRANCH  20  21
ENDBRANCH  19  20
ENDBRANCH  18  19
ENDBRANCH  17  18
ENDBRANCH  16  17
ENDBRANCH  15  16
BRANCH   7  30
HETATM   30  N3  UNL     1      -6.625  46.859  52.399  1.00  0.00    -0.030 N
ATOM     31  H33 UNL     1      -7.460  46.344  52.679  1.00  0.00     0.279 HD
ATOM     32  H32 UNL     1      -5.926  46.192  52.726  1.00  0.00     0.279 HD
ATOM     33  H31 UNL     1      -6.551  47.758  52.874  1.00  0.00     0.279 HD
ENDBRANCH   7  30
TORSDOF 12
ENDMDL