MODEL 4
REMARK VINA RESULT: -5.975302187      2.517      3.720
REMARK  11 active torsions:
REMARK  status: ('A' for Active; 'I' for Inactive)
REMARK       I    between atoms: C1_4  and  N3_6
REMARK    1  A    between atoms: N3_6  and  C2_8
REMARK    2  A    between atoms: C2_8  and  C3_9
REMARK    3  A    between atoms: C4_13  and  O1_14
REMARK    4  A    between atoms: C5_16  and  C6_17
REMARK    5  A    between atoms: C6_17  and  N5_18
REMARK    6  A    between atoms: N5_18  and  O2_20
REMARK    7  A    between atoms: O2_20  and  C7_21
REMARK    8  A    between atoms: C7_21  and  C8_22
REMARK    9  A    between atoms: C8_22  and  C9_23
REMARK   10  A    between atoms: C9_23  and  O3_24
REMARK   11  A    between atoms: O3_24  and  N6_25
ROOT
HETATM    1  C3  UNL     1      -5.823  45.853  50.364  1.00  0.00     0.297 C
HETATM    2  N4  UNL     1      -5.220  44.874  49.435  1.00  0.00    -0.033 N
ATOM      3  H41 UNL     1      -4.202  44.885  49.493  1.00  0.00     0.281 HD
ATOM      4  H42 UNL     1      -5.328  45.168  48.464  1.00  0.00     0.281 HD
HETATM    5  C4  UNL     1      -5.741  43.551  49.639  1.00  0.00     0.344 C
HETATM    6  C5  UNL     1      -5.444  43.093  51.022  1.00  0.00     0.160 C
HETATM    7  N7  UNL     1      -5.773  44.057  52.027  1.00  0.00    -0.349 N
ATOM      8  H7  UNL     1      -5.574  43.899  53.015  1.00  0.00     0.163 HD
HETATM    9  C10 UNL     1      -6.403  45.264  51.557  1.00  0.00     0.250 C
HETATM   10  O4  UNL     1      -7.379  45.726  52.186  1.00  0.00    -0.271 OA
ENDROOT
BRANCH   6  11
HETATM   11  C6  UNL     1      -3.974  42.694  51.098  1.00  0.00     0.175 C
BRANCH  11  12
HETATM   12  N5  UNL     1      -3.471  43.501  52.153  1.00  0.00    -0.301 N
ATOM     13  H5  UNL     1      -3.529  43.217  53.131  1.00  0.00     0.187 HD
BRANCH  12  14
HETATM   14  O2  UNL     1      -2.929  44.633  51.786  1.00  0.00    -0.285 OA
BRANCH  14  15
HETATM   15  C7  UNL     1      -1.511  44.289  51.614  1.00  0.00     0.203 C
BRANCH  15  16
HETATM   16  C8  UNL     1      -1.015  45.322  50.624  1.00  0.00     0.057 C
BRANCH  16  17
HETATM   17  C9  UNL     1      -1.553  45.084  49.270  1.00  0.00     0.202 C
BRANCH  17  18
HETATM   18  O3  UNL     1      -2.424  46.113  48.869  1.00  0.00    -0.287 OA
BRANCH  18  19
HETATM   19  N6  UNL     1      -2.487  47.155  49.717  1.00  0.00    -0.311 N
ATOM     20  H62 UNL     1      -3.335  47.373  50.240  1.00  0.00     0.184 HD
ATOM     21  H61 UNL     1      -1.625  47.696  49.787  1.00  0.00     0.184 HD
ENDBRANCH  18  19
ENDBRANCH  17  18
ENDBRANCH  16  17
ENDBRANCH  15  16
ENDBRANCH  14  15
ENDBRANCH  12  14
ENDBRANCH  11  12
ENDBRANCH   6  11
BRANCH   5  22
HETATM   22  O1  UNL     1      -7.097  43.412  49.311  1.00  0.00    -0.368 OA
ATOM     23  H1  UNL     1      -7.689  43.838  49.920  1.00  0.00     0.212 HD
ENDBRANCH   5  22
BRANCH   1  24
HETATM   24  C2  UNL     1      -6.844  46.564  49.495  1.00  0.00     0.165 C
BRANCH  24  25
HETATM   25  N3  UNL     1      -8.146  46.000  49.498  1.00  0.00    -0.362 N
HETATM   26  C1  UNL     1      -9.209  46.939  49.440  1.00  0.00     0.181 C
HETATM   27  N1  UNL     1      -9.933  47.131  50.463  1.00  0.00    -0.374 N
HETATM   28  N2  UNL     1      -9.496  47.638  48.249  1.00  0.00    -0.064 NA
ATOM     29  H12 UNL     1     -10.697  47.805  50.422  1.00  0.00     0.158 HD
ATOM     30  H11 UNL     1      -9.725  46.626  51.324  1.00  0.00     0.158 HD
ATOM     31  H3  UNL     1      -8.307  44.994  49.539  1.00  0.00     0.162 HD
ENDBRANCH  24  25
ENDBRANCH   1  24
TORSDOF 11
ENDMDL