MODEL 1
REMARK VINA RESULT: -6.154759279      0.000      0.000
REMARK  14 active torsions:
REMARK  status: ('A' for Active; 'I' for Inactive)
REMARK    1  A    between atoms: N1_1  and  C1_5
REMARK    2  A    between atoms: C1_5  and  C2_6
REMARK    3  A    between atoms: C2_6  and  N2_7
REMARK    4  A    between atoms: N2_7  and  C3_10
REMARK    5  A    between atoms: C3_10  and  C4_11
REMARK    6  A    between atoms: C4_11  and  N3_12
REMARK    7  A    between atoms: N3_12  and  C5_14
REMARK    8  A    between atoms: C6_15  and  O1_16
REMARK    9  A    between atoms: C7_18  and  O2_19
REMARK   10  A    between atoms: C8_21  and  N4_22
REMARK   11  A    between atoms: N4_22  and  C9_24
REMARK   12  A    between atoms: C10_26  and  N5_27
REMARK   13  A    between atoms: C11_31  and  C12_32
REMARK   14  A    between atoms: C12_32  and  N6_33
ROOT
HETATM    1  C5  UNL     1      -4.911  44.188  49.948  1.00  0.00     0.115 C
HETATM    2  C6  UNL     1      -5.705  44.384  51.191  1.00  0.00     0.171 C
HETATM    3  C7  UNL     1      -6.387  45.729  51.284  1.00  0.00     0.173 C
HETATM    4  C8  UNL     1      -7.050  46.098  49.999  1.00  0.00     0.146 C
HETATM    5  C10 UNL     1      -5.938  46.194  48.937  1.00  0.00     0.216 C
HETATM    6  C11 UNL     1      -5.501  44.778  48.697  1.00  0.00     0.068 C
ENDROOT
BRANCH   1   7
HETATM    7  N3  UNL     1      -3.541  44.551  50.049  1.00  0.00    -0.412 N
ATOM      8  H3  UNL     1      -3.165  45.357  49.550  1.00  0.00     0.153 HD
BRANCH   7   9
HETATM    9  C4  UNL     1      -2.716  43.735  50.880  1.00  0.00     0.142 C
BRANCH   9  10
HETATM   10  C3  UNL     1      -1.988  44.523  51.921  1.00  0.00     0.251 C
BRANCH  10  11
HETATM   11  N2  UNL     1      -2.239  44.130  53.281  1.00  0.00    -0.072 N
ATOM     12  H22 UNL     1      -2.588  44.909  53.839  1.00  0.00     0.277 HD
ATOM     13  H21 UNL     1      -1.371  43.952  53.786  1.00  0.00     0.277 HD
BRANCH  11  14
HETATM   14  C2  UNL     1      -3.123  43.004  53.338  1.00  0.00     0.259 C
BRANCH  14  15
HETATM   15  C1  UNL     1      -2.550  41.914  54.225  1.00  0.00     0.257 C
BRANCH  15  16
HETATM   16  N1  UNL     1      -1.485  41.211  53.545  1.00  0.00    -0.078 N
ATOM     17  H13 UNL     1      -1.480  41.409  52.544  1.00  0.00     0.274 HD
ATOM     18  H12 UNL     1      -0.569  41.591  53.781  1.00  0.00     0.274 HD
ATOM     19  H11 UNL     1      -1.538  40.209  53.732  1.00  0.00     0.274 HD
ENDBRANCH  15  16
ENDBRANCH  14  15
ENDBRANCH  11  14
ENDBRANCH  10  11
ENDBRANCH   9  10
ENDBRANCH   7   9
ENDBRANCH   1   7
BRANCH   2  20
HETATM   20  O1  UNL     1      -6.656  43.397  51.314  1.00  0.00    -0.391 OA
ATOM     21  H1  UNL     1      -6.854  43.239  52.229  1.00  0.00     0.210 HD
ENDBRANCH   2  20
BRANCH   6  22
HETATM   22  C12 UNL     1      -4.559  44.578  47.555  1.00  0.00     0.238 C
BRANCH  22  23
HETATM   23  N6  UNL     1      -5.195  43.744  46.557  1.00  0.00    -0.079 N
ATOM     24  H63 UNL     1      -4.768  42.819  46.496  1.00  0.00     0.274 HD
ATOM     25  H62 UNL     1      -6.131  43.452  46.835  1.00  0.00     0.274 HD
ATOM     26  H61 UNL     1      -5.191  44.233  45.662  1.00  0.00     0.274 HD
ENDBRANCH  22  23
ENDBRANCH   6  22
BRANCH   3  27
HETATM   27  O2  UNL     1      -7.376  45.603  52.274  1.00  0.00    -0.391 OA
ATOM     28  H2  UNL     1      -8.024  46.273  52.091  1.00  0.00     0.210 HD
ENDBRANCH   3  27
BRANCH   5  29
HETATM   29  N5  UNL     1      -6.479  46.815  47.733  1.00  0.00    -0.072 N
ATOM     30  H53 UNL     1      -7.453  46.559  47.570  1.00  0.00     0.274 HD
ATOM     31  H52 UNL     1      -6.611  47.821  47.841  1.00  0.00     0.274 HD
ATOM     32  H51 UNL     1      -5.880  46.585  46.940  1.00  0.00     0.274 HD
ENDBRANCH   5  29
BRANCH   4  33
HETATM   33  N4  UNL     1      -7.813  47.293  50.077  1.00  0.00    -0.359 N
ATOM     34  H4  UNL     1      -7.351  48.189  50.235  1.00  0.00     0.162 HD
BRANCH  33  35
HETATM   35  C9  UNL     1      -9.222  47.230  49.936  1.00  0.00     0.348 C
HETATM   36  O3  UNL     1      -9.812  46.211  49.504  1.00  0.00    -0.284 OA
ENDBRANCH  33  35
ENDBRANCH   4  33
TORSDOF 14
ENDMDL