MODEL 2
REMARK VINA RESULT: -6.372820698      1.226      1.648
REMARK  13 active torsions:
REMARK  status: ('A' for Active; 'I' for Inactive)
REMARK    1  A    between atoms: O1_1  and  C1_3
REMARK    2  A    between atoms: C3_8  and  N2_9
REMARK    3  A    between atoms: N2_9  and  C4_12
REMARK    4  A    between atoms: C4_12  and  C5_13
REMARK    5  A    between atoms: C5_13  and  N3_14
REMARK    6  A    between atoms: N3_14  and  C6_16
REMARK    7  A    between atoms: C6_16  and  C7_17
REMARK    8  A    between atoms: C7_17  and  C8_18
REMARK    9  A    between atoms: C8_18  and  N4_19
REMARK   10  A    between atoms: N4_19  and  C9_21
REMARK   11  A    between atoms: C9_21  and  C10_22
REMARK   12  A    between atoms: C11_25  and  O3_26
REMARK   13  A    between atoms: C12_28  and  O4_29
ROOT
HETATM    1  C4  UNL     1      -6.555  42.561  50.148  1.00  0.00     0.254 C
ENDROOT
BRANCH   1   2
HETATM    2  N2  UNL     1      -6.032  42.974  51.400  1.00  0.00    -0.042 N
ATOM      3  H22 UNL     1      -6.362  42.366  52.149  1.00  0.00     0.279 HD
ATOM      4  H21 UNL     1      -6.456  43.853  51.697  1.00  0.00     0.279 HD
BRANCH   2   5
HETATM    5  C3  UNL     1      -4.624  43.066  51.415  1.00  0.00     0.413 C
HETATM    6  N1  UNL     1      -4.024  41.969  52.148  1.00  0.00    -0.041 N
HETATM    7  C2  UNL     1      -2.996  42.487  53.006  1.00  0.00     0.269 C
ATOM      8  H12 UNL     1      -3.680  41.232  51.532  1.00  0.00     0.279 HD
ATOM      9  H11 UNL     1      -4.714  41.418  52.658  1.00  0.00     0.279 HD
HETATM   10  C1  UNL     1      -2.752  43.878  52.513  1.00  0.00     0.176 C
HETATM   11  C12 UNL     1      -4.135  44.333  52.116  1.00  0.00     0.206 C
BRANCH  10  12
HETATM   12  O1  UNL     1      -2.183  44.700  53.490  1.00  0.00    -0.391 OA
ATOM     13  H1  UNL     1      -1.655  45.395  53.117  1.00  0.00     0.210 HD
ENDBRANCH  10  12
BRANCH  11  14
HETATM   14  O4  UNL     1      -4.977  44.567  53.183  1.00  0.00    -0.389 OA
ATOM     15  H4  UNL     1      -5.807  44.960  52.941  1.00  0.00     0.210 HD
ENDBRANCH  11  14
ENDBRANCH   2   5
ENDBRANCH   1   2
BRANCH   1  16
HETATM   16  C5  UNL     1      -5.569  42.968  49.027  1.00  0.00     0.146 C
BRANCH  16  17
HETATM   17  N3  UNL     1      -6.032  44.048  48.285  1.00  0.00    -0.401 N
ATOM     18  H3  UNL     1      -7.033  44.091  48.098  1.00  0.00     0.158 HD
BRANCH  17  19
HETATM   19  C6  UNL     1      -5.251  45.063  47.780  1.00  0.00     0.057 C
BRANCH  19  20
HETATM   20  C7  UNL     1      -4.136  45.657  48.533  1.00  0.00     0.063 C
BRANCH  20  21
HETATM   21  C8  UNL     1      -4.145  47.104  48.836  1.00  0.00     0.119 C
BRANCH  21  22
HETATM   22  N4  UNL     1      -4.750  47.315  50.156  1.00  0.00    -0.418 N
ATOM     23  H4  UNL     1      -4.470  46.776  50.975  1.00  0.00     0.153 HD
BRANCH  22  24
HETATM   24  C9  UNL     1      -5.748  48.315  50.217  1.00  0.00     0.151 C
BRANCH  24  25
HETATM   25  C10 UNL     1      -6.989  47.672  50.832  1.00  0.00     0.211 C
HETATM   26  O2  UNL     1      -8.065  47.602  49.974  1.00  0.00    -0.273 OA
HETATM   27  N5  UNL     1      -7.903  46.269  49.843  1.00  0.00    -0.066 NA
HETATM   28  C11 UNL     1      -6.973  46.198  50.943  1.00  0.00     0.270 C
BRANCH  28  29
HETATM   29  O3  UNL     1      -7.537  45.756  52.144  1.00  0.00    -0.375 OA
ATOM     30  H3  UNL     1      -7.956  46.461  52.623  1.00  0.00     0.211 HD
ENDBRANCH  28  29
ENDBRANCH  24  25
ENDBRANCH  22  24
ENDBRANCH  21  22
ENDBRANCH  20  21
ENDBRANCH  19  20
ENDBRANCH  17  19
ENDBRANCH  16  17
ENDBRANCH   1  16
TORSDOF 13
ENDMDL