MODEL 2
REMARK VINA RESULT: -6.425497728      1.425      1.839
REMARK  13 active torsions:
REMARK  status: ('A' for Active; 'I' for Inactive)
REMARK    1  A    between atoms: N1_1  and  C1_5
REMARK    2  A    between atoms: C1_5  and  C2_6
REMARK    3  A    between atoms: C2_6  and  C3_7
REMARK    4  A    between atoms: C3_7  and  C4_8
REMARK    5  A    between atoms: C4_8  and  C5_9
REMARK    6  A    between atoms: C5_9  and  N2_10
REMARK    7  A    between atoms: N2_10  and  C6_12
REMARK    8  A    between atoms: C7_15  and  N4_16
REMARK    9  A    between atoms: N4_16  and  C8_18
REMARK   10  A    between atoms: C8_18  and  C9_19
REMARK   11  A    between atoms: C9_19  and  C10_20
REMARK   12  A    between atoms: C10_20  and  O1_21
REMARK   13  A    between atoms: C11_25  and  N6_26
REMARK       I    between atoms: N6_26  and  C12_28
REMARK       I    between atoms: C12_28  and  N7_29
REMARK       I    between atoms: C12_28  and  N8_33
ROOT
HETATM    1  C6  UNL     1      -6.363  43.546  49.453  1.00  0.00     0.707 A
HETATM    2  N3  UNL     1      -7.033  44.625  49.898  1.00  0.00    -0.022 N
ATOM      3  H3  UNL     1      -7.785  45.044  49.351  1.00  0.00     0.203 HD
HETATM    4  C7  UNL     1      -6.674  45.128  51.088  1.00  0.00     0.707 A
HETATM    5  N5  UNL     1      -5.687  44.593  51.825  1.00  0.00    -0.021 N
ATOM      6  H5  UNL     1      -5.452  45.013  52.724  1.00  0.00     0.203 HD
HETATM    7  C11 UNL     1      -5.003  43.515  51.401  1.00  0.00     0.710 A
HETATM    8  N9  UNL     1      -5.362  43.009  50.208  1.00  0.00    -0.021 N
ATOM      9  H9  UNL     1      -4.867  42.191  49.854  1.00  0.00     0.203 HD
ENDROOT
BRANCH   1  10
HETATM   10  N2  UNL     1      -6.658  43.011  48.314  1.00  0.00    -0.225 N
ATOM     11  H2  UNL     1      -7.632  42.905  48.029  1.00  0.00     0.177 HD
BRANCH  10  12
HETATM   12  C5  UNL     1      -5.589  42.565  47.450  1.00  0.00     0.138 C
BRANCH  12  13
HETATM   13  C4  UNL     1      -5.139  43.666  46.507  1.00  0.00     0.020 C
BRANCH  13  14
HETATM   14  C3  UNL     1      -5.929  43.670  45.232  1.00  0.00     0.003 C
BRANCH  14  15
HETATM   15  C2  UNL     1      -5.900  45.041  44.621  1.00  0.00     0.027 C
BRANCH  15  16
HETATM   16  C1  UNL     1      -5.695  46.119  45.655  1.00  0.00     0.229 C
BRANCH  16  17
HETATM   17  N1  UNL     1      -6.937  46.897  45.767  1.00  0.00    -0.079 N
ATOM     18  H13 UNL     1      -7.756  46.374  45.454  1.00  0.00     0.274 HD
ATOM     19  H12 UNL     1      -7.225  47.039  46.736  1.00  0.00     0.274 HD
ATOM     20  H11 UNL     1      -6.816  47.774  45.262  1.00  0.00     0.274 HD
ENDBRANCH  16  17
ENDBRANCH  15  16
ENDBRANCH  14  15
ENDBRANCH  13  14
ENDBRANCH  12  13
ENDBRANCH  10  12
ENDBRANCH   1  10
BRANCH   4  21
HETATM   21  N4  UNL     1      -7.301  46.161  51.535  1.00  0.00    -0.225 N
ATOM     22  H4  UNL     1      -7.846  46.052  52.391  1.00  0.00     0.177 HD
BRANCH  21  23
HETATM   23  C8  UNL     1      -7.286  47.448  50.914  1.00  0.00     0.140 C
BRANCH  23  24
HETATM   24  C9  UNL     1      -8.737  47.920  50.784  1.00  0.00     0.046 C
BRANCH  24  25
HETATM   25  C10 UNL     1      -9.236  47.432  49.457  1.00  0.00     0.165 C
BRANCH  25  26
HETATM   26  O1  UNL     1      -9.645  46.101  49.507  1.00  0.00    -0.401 OA
ATOM     27  H1  UNL     1     -10.375  45.972  50.102  1.00  0.00     0.209 HD
ENDBRANCH  25  26
ENDBRANCH  24  25
ENDBRANCH  23  24
ENDBRANCH  21  23
ENDBRANCH   4  21
BRANCH   7  28
HETATM   28  N6  UNL     1      -4.049  42.995  52.113  1.00  0.00    -0.172 N
HETATM   29  C12 UNL     1      -3.434  43.644  53.220  1.00  0.00     0.494 C
HETATM   30  N7  UNL     1      -2.707  42.677  54.018  1.00  0.00    -0.032 N
HETATM   31  N8  UNL     1      -2.553  44.701  52.770  1.00  0.00    -0.032 N
ATOM     32  H73 UNL     1      -3.300  41.900  54.311  1.00  0.00     0.278 HD
ATOM     33  H72 UNL     1      -2.034  42.150  53.462  1.00  0.00     0.278 HD
ATOM     34  H71 UNL     1      -2.266  43.142  54.812  1.00  0.00     0.278 HD
ATOM     35  H83 UNL     1      -1.863  44.359  52.102  1.00  0.00     0.278 HD
ATOM     36  H82 UNL     1      -3.037  45.364  52.166  1.00  0.00     0.278 HD
ATOM     37  H81 UNL     1      -2.112  45.166  53.564  1.00  0.00     0.278 HD
ATOM     38  H6  UNL     1      -3.719  42.064  51.862  1.00  0.00     0.181 HD
ENDBRANCH   7  28
TORSDOF 13
ENDMDL