MODEL 1
REMARK VINA RESULT: -6.250766300      0.000      0.000
REMARK  13 active torsions:
REMARK  status: ('A' for Active; 'I' for Inactive)
REMARK    1  A    between atoms: C1_4  and  N2_5
REMARK    2  A    between atoms: C1_4  and  C4_13
REMARK    3  A    between atoms: N2_5  and  O1_7
REMARK    4  A    between atoms: O1_7  and  C2_8
REMARK    5  A    between atoms: C2_8  and  C3_9
REMARK    6  A    between atoms: C3_9  and  N3_10
REMARK    7  A    between atoms: C4_13  and  C5_14
REMARK    8  A    between atoms: C4_13  and  N5_19
REMARK    9  A    between atoms: C5_14  and  N4_15
REMARK   10  A    between atoms: N5_19  and  C6_21
REMARK   11  A    between atoms: C6_21  and  C7_22
REMARK   12  A    between atoms: C7_22  and  N6_23
REMARK   13  A    between atoms: C12_34  and  N9_35
ROOT
HETATM    1  N5  UNL     1      -7.185  45.278  49.546  1.00  0.00    -0.408 N
ATOM      2  H5  UNL     1      -7.982  45.352  48.915  1.00  0.00     0.154 HD
ENDROOT
BRANCH   1   3
HETATM    3  C4  UNL     1      -6.839  46.326  50.479  1.00  0.00     0.171 C
BRANCH   3   4
HETATM    4  C1  UNL     1      -6.013  47.334  49.769  1.00  0.00     0.119 C
HETATM    5  N1  UNL     1      -5.368  48.238  50.338  1.00  0.00    -0.386 N
ATOM      6  H12 UNL     1      -4.800  48.931  49.851  1.00  0.00     0.157 HD
ATOM      7  H11 UNL     1      -5.381  48.347  51.352  1.00  0.00     0.157 HD
BRANCH   4   8
HETATM    8  N2  UNL     1      -5.994  47.181  48.356  1.00  0.00    -0.253 N
ATOM      9  H2  UNL     1      -5.116  46.922  47.906  1.00  0.00     0.196 HD
BRANCH   8  10
HETATM   10  O1  UNL     1      -7.081  47.364  47.585  1.00  0.00    -0.274 OA
BRANCH  10  11
HETATM   11  C2  UNL     1      -6.624  47.515  46.235  1.00  0.00     0.245 C
BRANCH  11  12
HETATM   12  C3  UNL     1      -5.895  46.162  46.032  1.00  0.00     0.081 C
BRANCH  12  13
HETATM   13  N3  UNL     1      -6.362  45.339  45.045  1.00  0.00    -0.409 N
ATOM     14  H32 UNL     1      -6.353  45.644  44.071  1.00  0.00     0.155 HD
ATOM     15  H31 UNL     1      -6.713  44.423  45.326  1.00  0.00     0.155 HD
ENDBRANCH  12  13
ENDBRANCH  11  12
ENDBRANCH  10  11
ENDBRANCH   8  10
ENDBRANCH   4   8
ENDBRANCH   3   4
BRANCH   3  16
HETATM   16  C5  UNL     1      -8.242  47.057  50.630  1.00  0.00     0.262 C
BRANCH  16  17
HETATM   17  N4  UNL     1      -9.167  46.508  49.694  1.00  0.00    -0.077 N
ATOM     18  H43 UNL     1      -8.806  45.667  49.242  1.00  0.00     0.274 HD
ATOM     19  H42 UNL     1      -9.978  46.090  50.152  1.00  0.00     0.274 HD
ATOM     20  H41 UNL     1      -9.434  47.224  49.019  1.00  0.00     0.274 HD
ENDBRANCH  16  17
ENDBRANCH   3  16
ENDBRANCH   1   3
BRANCH   1  21
HETATM   21  C6  UNL     1      -6.313  44.103  49.571  1.00  0.00     0.134 C
BRANCH  21  22
HETATM   22  C7  UNL     1      -6.075  44.051  51.118  1.00  0.00     0.143 C
BRANCH  22  23
HETATM   23  N6  UNL     1      -4.872  43.406  51.470  1.00  0.00    -0.366 N
HETATM   24  C8  UNL     1      -4.021  42.476  50.761  1.00  0.00     0.159 C
HETATM   25  C9  UNL     1      -3.109  41.830  51.836  1.00  0.00     0.237 C
HETATM   26  N7  UNL     1      -3.722  41.832  53.136  1.00  0.00    -0.054 N
HETATM   27  C12 UNL     1      -2.117  42.851  52.299  1.00  0.00     0.253 C
HETATM   28  C10 UNL     1      -3.195  43.202  53.303  1.00  0.00     0.285 C
ATOM     29  H72 UNL     1      -4.714  41.629  53.253  1.00  0.00     0.278 HD
ATOM     30  H71 UNL     1      -3.518  41.101  53.817  1.00  0.00     0.278 HD
HETATM   31  C11 UNL     1      -4.194  44.036  52.645  1.00  0.00     0.106 C
HETATM   32  N8  UNL     1      -4.519  45.256  52.883  1.00  0.00    -0.387 N
ATOM     33  H82 UNL     1      -5.218  45.839  52.422  1.00  0.00     0.157 HD
ATOM     34  H81 UNL     1      -4.057  45.686  53.684  1.00  0.00     0.157 HD
BRANCH  27  35
HETATM   35  N9  UNL     1      -1.910  43.907  51.311  1.00  0.00    -0.070 N
ATOM     36  H93 UNL     1      -1.215  43.631  50.617  1.00  0.00     0.274 HD
ATOM     37  H92 UNL     1      -2.720  44.004  50.699  1.00  0.00     0.274 HD
ATOM     38  H91 UNL     1      -1.665  44.797  51.743  1.00  0.00     0.274 HD
ENDBRANCH  27  35
ENDBRANCH  22  23
ENDBRANCH  21  22
ENDBRANCH   1  21
TORSDOF 13
ENDMDL