MODEL 1
REMARK VINA RESULT: -6.789805419      0.000      0.000
REMARK  11 active torsions:
REMARK  status: ('A' for Active; 'I' for Inactive)
REMARK       I    between atoms: C1_4  and  N3_6
REMARK    1  A    between atoms: N3_6  and  C2_8
REMARK    2  A    between atoms: C3_9  and  O1_10
REMARK    3  A    between atoms: C5_13  and  N4_14
REMARK    4  A    between atoms: N4_14  and  C6_17
REMARK    5  A    between atoms: C6_17  and  C7_18
REMARK    6  A    between atoms: C9_21  and  C10_22
REMARK    7  A    between atoms: C10_22  and  N5_23
REMARK    8  A    between atoms: N5_23  and  C11_25
REMARK    9  A    between atoms: C11_25  and  C12_26
REMARK   10  A    between atoms: C12_26  and  N6_27
REMARK   11  A    between atoms: N6_27  and  O3_28
ROOT
HETATM    1  N4  UNL     1      -5.078  42.572  51.641  1.00  0.00    -0.064 N
ATOM      2  H41 UNL     1      -5.597  43.090  52.350  1.00  0.00     0.277 HD
ATOM      3  H42 UNL     1      -5.453  41.644  51.839  1.00  0.00     0.277 HD
ENDROOT
BRANCH   1   4
HETATM    4  C5  UNL     1      -3.655  42.643  51.841  1.00  0.00     0.213 C
HETATM    5  C2  UNL     1      -3.126  43.464  52.957  1.00  0.00     0.143 C
HETATM    6  C3  UNL     1      -2.967  42.166  53.764  1.00  0.00     0.145 C
HETATM    7  C4  UNL     1      -3.198  41.344  52.504  1.00  0.00     0.069 C
BRANCH   5   8
HETATM    8  N3  UNL     1      -1.842  44.075  52.758  1.00  0.00    -0.356 N
HETATM    9  C1  UNL     1      -1.369  44.555  51.521  1.00  0.00     0.182 C
HETATM   10  N1  UNL     1      -1.857  45.628  51.031  1.00  0.00    -0.374 N
HETATM   11  N2  UNL     1      -0.361  43.856  50.824  1.00  0.00    -0.064 NA
ATOM     12  H12 UNL     1      -1.515  45.975  50.135  1.00  0.00     0.158 HD
ATOM     13  H11 UNL     1      -2.586  46.134  51.534  1.00  0.00     0.158 HD
ATOM     14  H3  UNL     1      -1.229  44.168  53.569  1.00  0.00     0.162 HD
ENDBRANCH   5   8
BRANCH   6  15
HETATM   15  O1  UNL     1      -1.673  41.941  54.225  1.00  0.00    -0.393 OA
ATOM     16  H1  UNL     1      -1.245  41.192  53.826  1.00  0.00     0.210 HD
ENDBRANCH   6  15
ENDBRANCH   1   4
BRANCH   1  17
HETATM   17  C6  UNL     1      -5.387  43.016  50.301  1.00  0.00     0.293 C
BRANCH  17  18
HETATM   18  C7  UNL     1      -6.260  44.258  50.319  1.00  0.00     0.286 C
HETATM   19  O2  UNL     1      -6.584  44.600  49.045  1.00  0.00    -0.357 OA
HETATM   20  C8  UNL     1      -5.814  45.690  48.679  1.00  0.00     0.208 C
HETATM   21  C9  UNL     1      -5.282  46.225  49.959  1.00  0.00     0.186 C
HETATM   22  O4  UNL     1      -5.616  45.307  50.921  1.00  0.00    -0.347 OA
BRANCH  21  23
HETATM   23  C10 UNL     1      -5.681  47.626  50.293  1.00  0.00     0.089 C
BRANCH  23  24
HETATM   24  N5  UNL     1      -7.020  48.001  50.217  1.00  0.00    -0.398 N
ATOM     25  H5  UNL     1      -7.319  48.633  49.474  1.00  0.00     0.158 HD
BRANCH  24  26
HETATM   26  C11 UNL     1      -7.980  47.523  51.148  1.00  0.00     0.137 C
BRANCH  26  27
HETATM   27  C12 UNL     1      -9.358  47.501  50.433  1.00  0.00     0.162 C
BRANCH  27  28
HETATM   28  N6  UNL     1      -9.311  46.579  49.310  1.00  0.00    -0.102 NA
BRANCH  28  29
HETATM   29  O3  UNL     1      -9.164  47.285  48.186  1.00  0.00    -0.296 OA
ATOM     30  H3  UNL     1      -8.855  46.703  47.502  1.00  0.00     0.238 HD
ENDBRANCH  28  29
ENDBRANCH  27  28
ENDBRANCH  26  27
ENDBRANCH  24  26
ENDBRANCH  23  24
ENDBRANCH  21  23
ENDBRANCH  17  18
ENDBRANCH   1  17
TORSDOF 11
ENDMDL