MODEL 5
REMARK VINA RESULT: -5.870307523      1.036      1.278
REMARK  10 active torsions:
REMARK  status: ('A' for Active; 'I' for Inactive)
REMARK    1  A    between atoms: C1_4  and  O1_6
REMARK    2  A    between atoms: O1_6  and  C2_7
REMARK    3  A    between atoms: C2_7  and  C3_8
REMARK    4  A    between atoms: C3_8  and  O2_9
REMARK    5  A    between atoms: O2_9  and  C4_10
REMARK    6  A    between atoms: C4_10  and  C5_11
REMARK    7  A    between atoms: C5_11  and  O3_12
REMARK    8  A    between atoms: O3_12  and  C6_13
REMARK    9  A    between atoms: C6_13  and  N3_14
REMARK   10  A    between atoms: C8_19  and  N6_20
ROOT
HETATM    1  N3  UNL     1      -1.032  16.233  12.246  1.00  0.00    -0.250 N
HETATM    2  C7  UNL     1      -1.072  17.300  11.452  1.00  0.00     0.214 A
HETATM    3  N4  UNL     1      -0.375  17.398  10.212  1.00  0.00    -0.062 NA
HETATM    4  N5  UNL     1      -1.820  18.356  11.840  1.00  0.00    -0.163 N
ATOM      5  H5  UNL     1      -1.874  19.189  11.254  1.00  0.00     0.187 HD
HETATM    6  C8  UNL     1      -2.491  18.304  12.999  1.00  0.00     0.682 A
HETATM    7  N7  UNL     1      -2.459  17.223  13.820  1.00  0.00    -0.141 N
ATOM      8  H7  UNL     1      -2.977  17.199  14.698  1.00  0.00     0.189 HD
HETATM    9  C9  UNL     1      -1.703  16.177  13.408  1.00  0.00     0.344 A
HETATM   10  O4  UNL     1      -1.670  15.170  14.165  1.00  0.00    -0.246 OA
ENDROOT
BRANCH   1  11
HETATM   11  C6  UNL     1      -0.232  15.097  11.836  1.00  0.00     0.306 C
BRANCH  11  12
HETATM   12  O3  UNL     1      -1.035  14.270  11.069  1.00  0.00    -0.369 OA
BRANCH  12  13
HETATM   13  C5  UNL     1      -0.709  12.924  11.217  1.00  0.00     0.196 C
BRANCH  13  14
HETATM   14  C4  UNL     1       0.718  12.835  11.693  1.00  0.00     0.193 C
BRANCH  14  15
HETATM   15  O2  UNL     1       1.511  12.007  10.940  1.00  0.00    -0.387 OA
BRANCH  15  16
HETATM   16  C3  UNL     1       1.735  12.415   9.652  1.00  0.00     0.194 C
BRANCH  16  17
HETATM   17  C2  UNL     1       2.323  13.815   9.707  1.00  0.00     0.204 C
BRANCH  17  18
HETATM   18  O1  UNL     1       2.316  14.458   8.466  1.00  0.00    -0.323 OA
BRANCH  18  19
HETATM   19  C1  UNL     1       1.177  14.613   7.693  1.00  0.00     0.225 C
HETATM   20  N1  UNL     1       0.133  15.119   8.274  1.00  0.00    -0.368 N
ATOM     21  H12 UNL     1      -0.706  15.233   7.704  1.00  0.00     0.159 HD
ATOM     22  H11 UNL     1       0.139  15.394   9.256  1.00  0.00     0.159 HD
HETATM   23  N2  UNL     1       1.168  14.231   6.323  1.00  0.00    -0.057 NA
ENDBRANCH  18  19
ENDBRANCH  17  18
ENDBRANCH  16  17
ENDBRANCH  15  16
ENDBRANCH  14  15
ENDBRANCH  13  14
ENDBRANCH  12  13
ENDBRANCH  11  12
ENDBRANCH   1  11
BRANCH   6  24
HETATM   24  N6  UNL     1      -3.227  19.291  13.423  1.00  0.00    -0.234 N
ATOM     25  H62 UNL     1      -3.096  20.169  12.920  1.00  0.00     0.174 HD
ATOM     26  H61 UNL     1      -3.881  19.190  14.199  1.00  0.00     0.174 HD
ENDBRANCH   6  24
TORSDOF 10
ENDMDL