MODEL 3
REMARK VINA RESULT: -5.894378814      0.937      1.233
REMARK  13 active torsions:
REMARK  status: ('A' for Active; 'I' for Inactive)
REMARK    1  A    between atoms: C2_2  and  C3_3
REMARK    2  A    between atoms: C3_3  and  C4_4
REMARK    3  A    between atoms: C4_4  and  C5_5
REMARK    4  A    between atoms: C5_5  and  N1_6
REMARK    5  A    between atoms: N1_6  and  C6_8
REMARK    6  A    between atoms: C7_11  and  N3_12
REMARK    7  A    between atoms: N3_12  and  C8_14
REMARK    8  A    between atoms: C8_14  and  C9_15
REMARK    9  A    between atoms: C9_15  and  O1_16
REMARK   10  A    between atoms: N5_21  and  O2_23
REMARK   11  A    between atoms: O2_23  and  C11_24
REMARK   12  A    between atoms: C11_24  and  C12_25
REMARK   13  A    between atoms: C12_25  and  N6_26
ROOT
HETATM    1  C6  UNL     1      -1.807  13.557   9.206  1.00  0.00     0.707 A
HETATM    2  N2  UNL     1      -0.750  14.041   8.560  1.00  0.00    -0.022 N
ATOM      3  H2  UNL     1      -0.241  13.465   7.890  1.00  0.00     0.203 HD
HETATM    4  C7  UNL     1      -0.371  15.289   8.803  1.00  0.00     0.707 A
HETATM    5  N4  UNL     1      -1.045  16.068   9.696  1.00  0.00    -0.020 N
ATOM      6  H4  UNL     1      -0.729  17.024   9.862  1.00  0.00     0.203 HD
HETATM    7  C10 UNL     1      -2.114  15.607  10.363  1.00  0.00     0.731 A
HETATM    8  N5  UNL     1      -2.756  16.297  11.193  1.00  0.00    -0.095 N
ATOM      9  H5  UNL     1      -3.529  15.765  11.590  1.00  0.00     0.213 HD
HETATM   10  N7  UNL     1      -2.467  14.315  10.080  1.00  0.00    -0.020 N
ATOM     11  H7  UNL     1      -3.273  13.915  10.561  1.00  0.00     0.203 HD
ENDROOT
BRANCH   8  12
HETATM   12  O2  UNL     1      -2.714  17.499  11.689  1.00  0.00    -0.265 OA
BRANCH  12  13
HETATM   13  C11 UNL     1      -2.045  18.135  12.707  1.00  0.00     0.229 C
BRANCH  13  14
HETATM   14  C12 UNL     1      -0.831  17.375  13.206  1.00  0.00     0.258 C
BRANCH  14  15
HETATM   15  N6  UNL     1       0.299  17.547  12.329  1.00  0.00    -0.077 N
ATOM     16  H63 UNL     1       1.010  18.145  12.750  1.00  0.00     0.274 HD
ATOM     17  H62 UNL     1       0.842  16.688  12.248  1.00  0.00     0.274 HD
ATOM     18  H61 UNL     1       0.013  17.895  11.413  1.00  0.00     0.274 HD
ENDBRANCH  14  15
ENDBRANCH  13  14
ENDBRANCH  12  13
ENDBRANCH   8  12
BRANCH   4  19
HETATM   19  N3  UNL     1       0.641  15.760   8.186  1.00  0.00    -0.223 N
ATOM     20  H3  UNL     1       0.633  16.730   7.869  1.00  0.00     0.177 HD
BRANCH  19  21
HETATM   21  C8  UNL     1       1.798  14.930   7.932  1.00  0.00     0.164 C
BRANCH  21  22
HETATM   22  C9  UNL     1       2.099  14.884   6.428  1.00  0.00     0.184 C
BRANCH  22  23
HETATM   23  O1  UNL     1       1.031  14.318   5.752  1.00  0.00    -0.399 OA
ATOM     24  H1  UNL     1       1.116  13.372   5.748  1.00  0.00     0.209 HD
ENDBRANCH  22  23
ENDBRANCH  21  22
ENDBRANCH  19  21
ENDBRANCH   4  19
BRANCH   1  25
HETATM   25  N1  UNL     1      -2.153  12.330   8.947  1.00  0.00    -0.225 N
ATOM     26  H1  UNL     1      -1.832  11.852   8.106  1.00  0.00     0.177 HD
BRANCH  25  27
HETATM   27  C5  UNL     1      -3.020  11.674   9.911  1.00  0.00     0.138 C
BRANCH  27  28
HETATM   28  C4  UNL     1      -3.379  10.281   9.455  1.00  0.00     0.020 C
BRANCH  28  29
HETATM   29  C3  UNL     1      -2.149   9.543   9.052  1.00  0.00     0.001 C
BRANCH  29  30
HETATM   30  C2  UNL     1      -2.196   8.086   9.418  1.00  0.00    -0.004 C
HETATM   31  C1  UNL     1      -3.163   7.957  10.586  1.00  0.00     0.005 C
ENDBRANCH  29  30
ENDBRANCH  28  29
ENDBRANCH  27  28
ENDBRANCH  25  27
ENDBRANCH   1  25
TORSDOF 13
ENDMDL