MODEL 5
REMARK VINA RESULT: -5.252413375      1.654      1.934
REMARK  12 active torsions:
REMARK  status: ('A' for Active; 'I' for Inactive)
REMARK    1  A    between atoms: C2_2  and  O1_3
REMARK    2  A    between atoms: O1_3  and  C3_4
REMARK    3  A    between atoms: C3_4  and  C4_5
REMARK    4  A    between atoms: C4_5  and  N1_6
REMARK    5  A    between atoms: N1_6  and  C5_8
REMARK    6  A    between atoms: C5_8  and  C6_9
REMARK    7  A    between atoms: C6_9  and  N2_10
REMARK    8  A    between atoms: C9_19  and  N4_20
REMARK    9  A    between atoms: C10_24  and  N5_25
REMARK   10  A    between atoms: N5_25  and  C11_27
REMARK   11  A    between atoms: C11_27  and  C12_28
REMARK   12  A    between atoms: C12_28  and  N6_29
ROOT
HETATM    1  C4  UNL     1       0.427  14.339   9.965  1.00  0.00     0.098 C
HETATM    2  C7  UNL     1       1.313  14.989   8.913  1.00  0.00     0.142 C
HETATM    3  C8  UNL     1       2.247  15.926   9.563  1.00  0.00     0.222 C
HETATM    4  O2  UNL     1       3.482  15.812   9.524  1.00  0.00    -0.273 OA
HETATM    5  N3  UNL     1       1.663  17.009  10.268  1.00  0.00    -0.329 N
ATOM      6  H3  UNL     1       2.133  17.905  10.399  1.00  0.00     0.164 HD
HETATM    7  C9  UNL     1       0.317  16.722  10.792  1.00  0.00     0.333 C
HETATM    8  C10 UNL     1       0.220  15.237  11.121  1.00  0.00     0.063 C
ENDROOT
BRANCH   1   9
HETATM    9  C3  UNL     1      -0.761  13.852   9.189  1.00  0.00     0.204 C
BRANCH   9  10
HETATM   10  O1  UNL     1      -1.544  12.912   9.850  1.00  0.00    -0.389 OA
BRANCH  10  11
HETATM   11  C2  UNL     1      -2.898  13.211   9.590  1.00  0.00     0.163 C
HETATM   12  C1  UNL     1      -3.838  12.198  10.144  1.00  0.00     0.033 C
ENDBRANCH  10  11
ENDBRANCH   9  10
ENDBRANCH   1   9
BRANCH   1  13
HETATM   13  N1  UNL     1       1.016  13.130  10.495  1.00  0.00    -0.404 N
ATOM     14  H1  UNL     1       0.861  12.868  11.469  1.00  0.00     0.154 HD
BRANCH  13  15
HETATM   15  C5  UNL     1       1.788  12.334   9.679  1.00  0.00     0.142 C
BRANCH  15  16
HETATM   16  C6  UNL     1       1.545  10.872  10.093  1.00  0.00     0.248 C
BRANCH  16  17
HETATM   17  N2  UNL     1       0.249  10.417   9.649  1.00  0.00    -0.078 N
ATOM     18  H23 UNL     1       0.101  10.612   8.659  1.00  0.00     0.274 HD
ATOM     19  H22 UNL     1       0.200   9.398   9.615  1.00  0.00     0.274 HD
ATOM     20  H21 UNL     1      -0.495  10.809  10.225  1.00  0.00     0.274 HD
ENDBRANCH  16  17
ENDBRANCH  15  16
ENDBRANCH  13  15
ENDBRANCH   1  13
BRANCH   8  21
HETATM   21  N5  UNL     1      -0.808  14.927  11.969  1.00  0.00    -0.390 N
ATOM     22  H5  UNL     1      -1.743  15.120  11.608  1.00  0.00     0.159 HD
BRANCH  21  23
HETATM   23  C11 UNL     1      -0.767  14.394  13.236  1.00  0.00     0.146 C
BRANCH  23  24
HETATM   24  C12 UNL     1      -1.874  13.290  13.260  1.00  0.00     0.249 C
BRANCH  24  25
HETATM   25  N6  UNL     1      -1.333  12.050  12.799  1.00  0.00    -0.078 N
ATOM     26  H63 UNL     1      -1.538  11.281  13.437  1.00  0.00     0.274 HD
ATOM     27  H62 UNL     1      -1.827  11.697  11.979  1.00  0.00     0.274 HD
ATOM     28  H61 UNL     1      -0.333  12.151  12.629  1.00  0.00     0.274 HD
ENDBRANCH  24  25
ENDBRANCH  23  24
ENDBRANCH  21  23
ENDBRANCH   8  21
BRANCH   7  29
HETATM   29  N4  UNL     1       0.293  17.420  12.068  1.00  0.00    -0.053 N
ATOM     30  H43 UNL     1       1.155  17.914  12.295  1.00  0.00     0.277 HD
ATOM     31  H42 UNL     1      -0.311  18.242  12.088  1.00  0.00     0.277 HD
ATOM     32  H41 UNL     1       0.035  16.691  12.734  1.00  0.00     0.277 HD
ENDBRANCH   7  29
TORSDOF 12
ENDMDL