MODEL 3
REMARK VINA RESULT: -5.368421803      2.865      3.593
REMARK  12 active torsions:
REMARK  status: ('A' for Active; 'I' for Inactive)
REMARK    1  A    between atoms: N1_1  and  C1_5
REMARK    2  A    between atoms: C1_5  and  C2_6
REMARK    3  A    between atoms: C2_6  and  C3_7
REMARK    4  A    between atoms: C3_7  and  C4_8
REMARK    5  A    between atoms: C4_8  and  C5_9
REMARK    6  A    between atoms: C5_9  and  N2_10
REMARK    7  A    between atoms: N2_10  and  C6_12
REMARK    8  A    between atoms: C7_13  and  O1_14
REMARK    9  A    between atoms: C8_16  and  N3_17
REMARK   10  A    between atoms: C9_21  and  O2_22
REMARK   11  A    between atoms: O2_22  and  C10_23
REMARK   12  A    between atoms: C13_29  and  O3_30
ROOT
HETATM    1  C6  UNL     1      -0.882  16.792  12.206  1.00  0.00     0.139 C
HETATM    2  C7  UNL     1      -1.950  15.883  11.620  1.00  0.00     0.176 C
HETATM    3  C8  UNL     1      -1.253  15.096  10.523  1.00  0.00     0.245 C
HETATM    4  C9  UNL     1       0.063  15.744  10.332  1.00  0.00     0.185 C
HETATM    5  C13 UNL     1      -0.080  17.106  10.943  1.00  0.00     0.174 C
ENDROOT
BRANCH   1   6
HETATM    6  N2  UNL     1      -0.122  16.146  13.225  1.00  0.00    -0.412 N
ATOM      7  H2  UNL     1       0.697  15.578  13.008  1.00  0.00     0.153 HD
BRANCH   6   8
HETATM    8  C5  UNL     1      -0.575  16.341  14.567  1.00  0.00     0.114 C
BRANCH   8   9
HETATM    9  C4  UNL     1      -0.705  15.062  15.350  1.00  0.00     0.019 C
BRANCH   9  10
HETATM   10  C3  UNL     1      -0.261  15.213  16.795  1.00  0.00     0.003 C
BRANCH  10  11
HETATM   11  C2  UNL     1       0.974  14.342  16.998  1.00  0.00     0.027 C
BRANCH  11  12
HETATM   12  C1  UNL     1       1.278  13.505  15.784  1.00  0.00     0.229 C
BRANCH  12  13
HETATM   13  N1  UNL     1       2.460  13.955  15.071  1.00  0.00    -0.079 N
ATOM     14  H13 UNL     1       2.372  13.779  14.071  1.00  0.00     0.274 HD
ATOM     15  H12 UNL     1       2.512  14.974  15.057  1.00  0.00     0.274 HD
ATOM     16  H11 UNL     1       3.322  13.551  15.439  1.00  0.00     0.274 HD
ENDBRANCH  12  13
ENDBRANCH  11  12
ENDBRANCH  10  11
ENDBRANCH   9  10
ENDBRANCH   8   9
ENDBRANCH   6   8
ENDBRANCH   1   6
BRANCH   2  17
HETATM   17  O1  UNL     1      -2.930  16.707  11.071  1.00  0.00    -0.391 OA
ATOM     18  H1  UNL     1      -3.770  16.319  11.284  1.00  0.00     0.210 HD
ENDBRANCH   2  17
BRANCH   5  19
HETATM   19  O3  UNL     1       1.112  17.741  11.192  1.00  0.00    -0.391 OA
ATOM     20  H3  UNL     1       1.031  18.684  11.277  1.00  0.00     0.210 HD
ENDBRANCH   5  19
BRANCH   3  21
HETATM   21  N3  UNL     1      -1.165  13.729  11.001  1.00  0.00    -0.070 N
ATOM     22  H33 UNL     1      -1.345  13.636  12.000  1.00  0.00     0.274 HD
ATOM     23  H32 UNL     1      -1.931  13.137  10.681  1.00  0.00     0.274 HD
ATOM     24  H31 UNL     1      -0.244  13.389  10.720  1.00  0.00     0.274 HD
ENDBRANCH   3  21
BRANCH   4  25
HETATM   25  O2  UNL     1       0.540  15.760   9.043  1.00  0.00    -0.372 OA
BRANCH  25  26
HETATM   26  C10 UNL     1       1.619  14.965   8.778  1.00  0.00     0.173 C
HETATM   27  C11 UNL     1       2.647  14.950   9.893  1.00  0.00     0.265 C
HETATM   28  N4  UNL     1       3.245  16.134   9.309  1.00  0.00    -0.070 N
HETATM   29  C12 UNL     1       2.690  15.738   8.037  1.00  0.00     0.265 C
ATOM     30  H42 UNL     1       3.054  17.058   9.696  1.00  0.00     0.277 HD
ATOM     31  H41 UNL     1       4.244  16.314   9.407  1.00  0.00     0.277 HD
ENDBRANCH  25  26
ENDBRANCH   4  25
TORSDOF 12
ENDMDL