MODEL 5
REMARK VINA RESULT: -5.348408782      1.867      2.460
REMARK  12 active torsions:
REMARK  status: ('A' for Active; 'I' for Inactive)
REMARK    1  A    between atoms: N1_2  and  C2_5
REMARK    2  A    between atoms: C2_5  and  C3_6
REMARK    3  A    between atoms: C3_6  and  C4_7
REMARK    4  A    between atoms: C4_7  and  N2_8
REMARK    5  A    between atoms: N2_8  and  C5_11
REMARK    6  A    between atoms: C5_11  and  C6_12
REMARK    7  A    between atoms: C6_12  and  N3_13
REMARK    8  A    between atoms: N3_13  and  C7_14
REMARK    9  A    between atoms: N3_13  and  C9_20
REMARK   10  A    between atoms: C7_14  and  C8_15
REMARK   11  A    between atoms: C8_15  and  N4_16
REMARK   12  A    between atoms: C13_28  and  O2_29
ROOT
HETATM    1  N3  UNL     1      -0.345  16.068  10.458  1.00  0.00    -0.340 N
ENDROOT
BRANCH   1   2
HETATM    2  C6  UNL     1      -0.493  15.985  11.823  1.00  0.00     0.092 C
BRANCH   2   3
HETATM    3  C5  UNL     1      -0.454  17.227  12.623  1.00  0.00     0.277 C
BRANCH   3   4
HETATM    4  N2  UNL     1      -0.889  17.002  13.987  1.00  0.00    -0.071 N
ATOM      5  H22 UNL     1      -1.870  17.244  14.130  1.00  0.00     0.277 HD
ATOM      6  H21 UNL     1      -0.484  17.670  14.643  1.00  0.00     0.277 HD
BRANCH   4   7
HETATM    7  C4  UNL     1      -0.604  15.656  14.333  1.00  0.00     0.234 C
BRANCH   7   8
HETATM    8  C3  UNL     1      -0.280  15.473  15.777  1.00  0.00     0.055 C
BRANCH   8   9
HETATM    9  C2  UNL     1       0.830  14.449  15.937  1.00  0.00     0.233 C
BRANCH   9  10
HETATM   10  N1  UNL     1       1.371  14.031  14.661  1.00  0.00    -0.079 N
HETATM   11  C1  UNL     1       1.570  12.622  14.559  1.00  0.00     0.266 C
ATOM     12  H12 UNL     1       2.234  14.533  14.455  1.00  0.00     0.276 HD
ATOM     13  H11 UNL     1       0.789  14.369  13.895  1.00  0.00     0.276 HD
ENDBRANCH   9  10
ENDBRANCH   8   9
ENDBRANCH   7   8
ENDBRANCH   4   7
ENDBRANCH   3   4
ENDBRANCH   2   3
ENDBRANCH   1   2
BRANCH   1  14
HETATM   14  C7  UNL     1      -1.381  15.757   9.561  1.00  0.00     0.092 C
BRANCH  14  15
HETATM   15  C8  UNL     1      -1.836  14.301   9.569  1.00  0.00     0.274 C
BRANCH  15  16
HETATM   16  N4  UNL     1      -2.108  13.836   8.221  1.00  0.00    -0.075 N
ATOM     17  H43 UNL     1      -2.898  14.330   7.805  1.00  0.00     0.274 HD
ATOM     18  H42 UNL     1      -1.381  14.129   7.567  1.00  0.00     0.274 HD
ATOM     19  H41 UNL     1      -2.245  12.826   8.204  1.00  0.00     0.274 HD
ENDBRANCH  15  16
ENDBRANCH  14  15
ENDBRANCH   1  14
BRANCH   1  20
HETATM   20  C9  UNL     1       0.901  16.265   9.843  1.00  0.00     0.322 C
HETATM   21  N5  UNL     1       0.715  16.551   8.376  1.00  0.00    -0.022 N
HETATM   22  C10 UNL     1       1.918  16.055   7.802  1.00  0.00     0.353 C
ATOM     23  H52 UNL     1      -0.140  16.169   7.972  1.00  0.00     0.282 HD
ATOM     24  H51 UNL     1       0.506  17.525   8.155  1.00  0.00     0.282 HD
HETATM   25  O1  UNL     1       2.846  15.930   8.878  1.00  0.00    -0.348 OA
HETATM   26  C13 UNL     1       1.743  14.580   7.484  1.00  0.00     0.177 C
HETATM   27  C11 UNL     1       1.921  15.222   9.751  1.00  0.00     0.177 C
HETATM   28  C12 UNL     1       1.665  14.038   8.922  1.00  0.00     0.072 C
BRANCH  26  29
HETATM   29  O2  UNL     1       0.631  14.278   6.746  1.00  0.00    -0.391 OA
ATOM     30  H2  UNL     1       0.309  14.985   6.200  1.00  0.00     0.210 HD
ENDBRANCH  26  29
ENDBRANCH   1  20
TORSDOF 12
ENDMDL