MODEL 2
REMARK VINA RESULT: -5.982587402      1.639      5.262
REMARK  11 active torsions:
REMARK  status: ('A' for Active; 'I' for Inactive)
REMARK    1  A    between atoms: N1_1  and  C1_5
REMARK    2  A    between atoms: C1_5  and  C2_6
REMARK    3  A    between atoms: C2_6  and  N2_7
REMARK    4  A    between atoms: N2_7  and  C3_10
REMARK    5  A    between atoms: C3_10  and  O1_11
REMARK    6  A    between atoms: O1_11  and  C4_12
REMARK    7  A    between atoms: C4_12  and  N3_13
REMARK    8  A    between atoms: C5_14  and  C6_15
REMARK    9  A    between atoms: C6_15  and  C7_16
REMARK   10  A    between atoms: C7_16  and  N4_17
REMARK   11  A    between atoms: C10_28  and  O3_29
ROOT
HETATM    1  N3  UNL     1      -0.419  14.427  10.249  1.00  0.00    -0.298 N
HETATM    2  C5  UNL     1      -1.303  13.823   9.434  1.00  0.00     0.089 A
HETATM    3  N5  UNL     1      -0.769  13.830   8.200  1.00  0.00    -0.338 N
ATOM      4  H5  UNL     1      -1.216  13.438   7.371  1.00  0.00     0.167 HD
HETATM    5  C8  UNL     1       0.430  14.422   8.210  1.00  0.00     0.147 A
HETATM    6  C9  UNL     1       1.368  14.676   7.216  1.00  0.00     0.279 A
HETATM    7  O2  UNL     1       1.131  14.318   6.048  1.00  0.00    -0.265 OA
HETATM    8  N6  UNL     1       2.504  15.310   7.584  1.00  0.00    -0.287 N
ATOM      9  H6  UNL     1       3.209  15.509   6.873  1.00  0.00     0.172 HD
HETATM   10  C10 UNL     1       2.742  15.692   8.857  1.00  0.00     0.225 A
HETATM   11  N7  UNL     1       1.807  15.430   9.814  1.00  0.00    -0.306 N
ATOM     12  H7  UNL     1       1.984  15.716  10.777  1.00  0.00     0.171 HD
HETATM   13  C11 UNL     1       0.661  14.805   9.515  1.00  0.00     0.146 A
ENDROOT
BRANCH   1  14
HETATM   14  C4  UNL     1      -0.572  14.647  11.681  1.00  0.00     0.303 C
BRANCH  14  15
HETATM   15  O1  UNL     1      -0.296  15.947  12.041  1.00  0.00    -0.345 OA
BRANCH  15  16
HETATM   16  C3  UNL     1      -0.780  16.225  13.315  1.00  0.00     0.401 C
BRANCH  16  17
HETATM   17  N2  UNL     1      -0.950  17.684  13.402  1.00  0.00    -0.053 N
ATOM     18  H22 UNL     1      -0.120  18.213  13.136  1.00  0.00     0.279 HD
ATOM     19  H21 UNL     1      -1.013  18.036  14.356  1.00  0.00     0.279 HD
BRANCH  17  20
HETATM   20  C2  UNL     1      -2.131  17.979  12.580  1.00  0.00     0.262 C
BRANCH  20  21
HETATM   21  C1  UNL     1      -3.286  17.218  13.205  1.00  0.00     0.257 C
BRANCH  21  22
HETATM   22  N1  UNL     1      -3.943  18.135  14.118  1.00  0.00    -0.078 N
ATOM     23  H13 UNL     1      -3.546  19.074  14.101  1.00  0.00     0.274 HD
ATOM     24  H12 UNL     1      -4.886  18.390  13.823  1.00  0.00     0.274 HD
ATOM     25  H11 UNL     1      -3.913  17.702  15.041  1.00  0.00     0.274 HD
ENDBRANCH  21  22
ENDBRANCH  20  21
ENDBRANCH  17  20
ENDBRANCH  16  17
ENDBRANCH  15  16
ENDBRANCH  14  15
ENDBRANCH   1  14
BRANCH   2  26
HETATM   26  C6  UNL     1      -2.622  13.263   9.858  1.00  0.00     0.104 C
BRANCH  26  27
HETATM   27  C7  UNL     1      -2.461  11.798  10.124  1.00  0.00     0.237 C
BRANCH  27  28
HETATM   28  N4  UNL     1      -2.926  11.073   8.953  1.00  0.00    -0.079 N
ATOM     29  H43 UNL     1      -3.813  10.597   9.111  1.00  0.00     0.274 HD
ATOM     30  H42 UNL     1      -3.235  11.693   8.203  1.00  0.00     0.274 HD
ATOM     31  H41 UNL     1      -2.185  10.438   8.659  1.00  0.00     0.274 HD
ENDBRANCH  27  28
ENDBRANCH  26  27
ENDBRANCH   2  26
BRANCH  10  32
HETATM   32  O3  UNL     1       3.889  16.336   9.250  1.00  0.00    -0.332 OA
ATOM     33  H3  UNL     1       4.751  15.940   9.208  1.00  0.00     0.221 HD
ENDBRANCH  10  32
TORSDOF 11
ENDMDL