MODEL 4
REMARK VINA RESULT: -5.472075306      4.525      5.767
REMARK  14 active torsions:
REMARK  status: ('A' for Active; 'I' for Inactive)
REMARK    1  A    between atoms: N1_1  and  C1_5
REMARK    2  A    between atoms: C1_5  and  C2_6
REMARK    3  A    between atoms: C2_6  and  C3_7
REMARK    4  A    between atoms: C3_7  and  C4_8
REMARK    5  A    between atoms: C4_8  and  N2_9
REMARK    6  A    between atoms: N2_9  and  C5_12
REMARK    7  A    between atoms: C5_12  and  C6_13
REMARK    8  A    between atoms: C6_13  and  O1_14
REMARK    9  A    between atoms: O1_14  and  C7_15
REMARK   10  A    between atoms: C9_17  and  N3_18
REMARK   11  A    between atoms: C10_22  and  C11_23
REMARK   12  A    between atoms: C11_23  and  N4_24
REMARK   13  A    between atoms: C12_28  and  O2_29
REMARK   14  A    between atoms: C13_31  and  O3_32
ROOT
HETATM    1  C7  UNL     1       1.992  13.932   9.352  1.00  0.00     0.154 C
HETATM    2  C8  UNL     1       1.328  14.059  10.713  1.00  0.00     0.068 C
HETATM    3  C9  UNL     1      -0.073  14.665  10.595  1.00  0.00     0.194 C
HETATM    4  C10 UNL     1      -0.049  16.006   9.957  1.00  0.00     0.073 C
HETATM    5  C12 UNL     1       1.294  16.263   9.272  1.00  0.00     0.157 C
HETATM    6  C13 UNL     1       1.670  15.058   8.440  1.00  0.00     0.176 C
ENDROOT
BRANCH   1   7
HETATM    7  O1  UNL     1       1.777  12.657   8.815  1.00  0.00    -0.382 OA
BRANCH   7   8
HETATM    8  C6  UNL     1       1.829  11.639   9.726  1.00  0.00     0.196 C
BRANCH   8   9
HETATM    9  C5  UNL     1       2.676  10.460   9.347  1.00  0.00     0.258 C
BRANCH   9  10
HETATM   10  N2  UNL     1       1.935   9.241   9.314  1.00  0.00    -0.073 N
ATOM     11  H22 UNL     1       1.739   8.970   8.351  1.00  0.00     0.277 HD
ATOM     12  H21 UNL     1       0.983   9.394   9.649  1.00  0.00     0.277 HD
BRANCH  10  13
HETATM   13  C4  UNL     1       2.541   8.165  10.019  1.00  0.00     0.232 C
BRANCH  13  14
HETATM   14  C3  UNL     1       3.912   7.860   9.504  1.00  0.00     0.029 C
BRANCH  14  15
HETATM   15  C2  UNL     1       4.900   7.567  10.578  1.00  0.00     0.029 C
BRANCH  15  16
HETATM   16  C1  UNL     1       5.905   6.525  10.161  1.00  0.00     0.229 C
BRANCH  16  17
HETATM   17  N1  UNL     1       7.091   6.641  11.018  1.00  0.00    -0.079 N
ATOM     18  H13 UNL     1       7.579   5.752  11.129  1.00  0.00     0.274 HD
ATOM     19  H12 UNL     1       7.845   7.162  10.571  1.00  0.00     0.274 HD
ATOM     20  H11 UNL     1       6.812   7.048  11.912  1.00  0.00     0.274 HD
ENDBRANCH  16  17
ENDBRANCH  15  16
ENDBRANCH  14  15
ENDBRANCH  13  14
ENDBRANCH  10  13
ENDBRANCH   9  10
ENDBRANCH   8   9
ENDBRANCH   7   8
ENDBRANCH   1   7
BRANCH   6  21
HETATM   21  O3  UNL     1       0.641  14.803   7.551  1.00  0.00    -0.390 OA
ATOM     22  H3  UNL     1      -0.125  14.395   7.940  1.00  0.00     0.210 HD
ENDBRANCH   6  21
BRANCH   3  23
HETATM   23  N3  UNL     1      -0.707  14.613  11.884  1.00  0.00    -0.074 N
ATOM     24  H33 UNL     1      -1.631  14.183  11.847  1.00  0.00     0.274 HD
ATOM     25  H32 UNL     1      -0.263  13.941  12.510  1.00  0.00     0.274 HD
ATOM     26  H31 UNL     1      -0.730  15.555  12.275  1.00  0.00     0.274 HD
ENDBRANCH   3  23
BRANCH   5  27
HETATM   27  O2  UNL     1       2.320  16.541  10.118  1.00  0.00    -0.392 OA
ATOM     28  H2  UNL     1       2.991  15.870  10.163  1.00  0.00     0.210 HD
ENDBRANCH   5  27
BRANCH   4  29
HETATM   29  C11 UNL     1      -0.470  17.153  10.792  1.00  0.00     0.238 C
BRANCH  29  30
HETATM   30  N4  UNL     1       0.383  17.513  11.868  1.00  0.00    -0.079 N
ATOM     31  H43 UNL     1       1.088  16.787  12.001  1.00  0.00     0.274 HD
ATOM     32  H42 UNL     1       0.971  18.297  11.587  1.00  0.00     0.274 HD
ATOM     33  H41 UNL     1      -0.062  17.723  12.761  1.00  0.00     0.274 HD
ENDBRANCH  29  30
ENDBRANCH   4  29
TORSDOF 14
ENDMDL