MODEL 5
REMARK VINA RESULT: -6.161158421      3.141      5.807
REMARK  15 active torsions:
REMARK  status: ('A' for Active; 'I' for Inactive)
REMARK    1  A    between atoms: N1_1  and  C1_5
REMARK    2  A    between atoms: C1_5  and  C2_6
REMARK    3  A    between atoms: C2_6  and  N2_7
REMARK    4  A    between atoms: N2_7  and  C3_9
REMARK    5  A    between atoms: C4_12  and  N4_13
REMARK    6  A    between atoms: N4_13  and  O1_15
REMARK    7  A    between atoms: C5_19  and  N6_20
REMARK    8  A    between atoms: N6_20  and  C6_22
REMARK    9  A    between atoms: C6_22  and  C7_23
REMARK   10  A    between atoms: C7_23  and  C8_24
REMARK   11  A    between atoms: C8_24  and  C9_25
REMARK   12  A    between atoms: C9_25  and  C10_26
REMARK   13  A    between atoms: C10_26  and  N7_27
REMARK   14  A    between atoms: N7_27  and  N8_28
REMARK   15  A    between atoms: N7_27  and  O2_31
ROOT
HETATM    1  C3  UNL     1       1.022  16.648   9.226  1.00  0.00     0.707 A
HETATM    2  N3  UNL     1       1.129  17.143  10.463  1.00  0.00    -0.020 N
ATOM      3  H3  UNL     1       1.997  17.587  10.765  1.00  0.00     0.203 HD
HETATM    4  C4  UNL     1       0.089  17.054  11.304  1.00  0.00     0.731 A
HETATM    5  N5  UNL     1      -1.049  16.471  10.904  1.00  0.00    -0.020 N
ATOM      6  H5  UNL     1      -1.833  16.410  11.555  1.00  0.00     0.203 HD
HETATM    7  C5  UNL     1      -1.185  15.965   9.669  1.00  0.00     0.707 A
HETATM    8  N9  UNL     1      -0.143  16.055   8.827  1.00  0.00    -0.022 N
ATOM      9  H9  UNL     1      -0.221  15.677   7.883  1.00  0.00     0.203 HD
ENDROOT
BRANCH   7  10
HETATM   10  N6  UNL     1      -2.300  15.401   9.300  1.00  0.00    -0.225 N
ATOM     11  H6  UNL     1      -3.175  15.926   9.305  1.00  0.00     0.177 HD
BRANCH  10  12
HETATM   12  C6  UNL     1      -2.275  14.015   8.882  1.00  0.00     0.138 C
BRANCH  12  13
HETATM   13  C7  UNL     1      -2.962  13.179   9.970  1.00  0.00     0.020 C
BRANCH  13  14
HETATM   14  C8  UNL     1      -1.960  12.312  10.679  1.00  0.00     0.007 C
BRANCH  14  15
HETATM   15  C9  UNL     1      -1.098  11.511   9.774  1.00  0.00     0.049 C
BRANCH  15  16
HETATM   16  C10 UNL     1       0.341  11.420  10.098  1.00  0.00     0.115 C
BRANCH  16  17
HETATM   17  N7  UNL     1       1.097  12.535   9.698  1.00  0.00    -0.186 N
BRANCH  17  18
HETATM   18  N8  UNL     1       1.537  13.442  10.598  1.00  0.00    -0.320 N
ATOM     19  H82 UNL     1       0.815  13.916  11.141  1.00  0.00     0.179 HD
ATOM     20  H81 UNL     1       2.377  13.994  10.425  1.00  0.00     0.179 HD
ENDBRANCH  17  18
BRANCH  17  21
HETATM   21  O2  UNL     1       1.897  12.327   8.633  1.00  0.00    -0.269 OA
ATOM     22  H2  UNL     1       1.814  12.969   7.938  1.00  0.00     0.247 HD
ENDBRANCH  17  21
ENDBRANCH  16  17
ENDBRANCH  15  16
ENDBRANCH  14  15
ENDBRANCH  13  14
ENDBRANCH  12  13
ENDBRANCH  10  12
ENDBRANCH   7  10
BRANCH   4  23
HETATM   23  N4  UNL     1       0.227  17.546  12.497  1.00  0.00    -0.098 N
ATOM     24  H4  UNL     1       1.131  17.540  12.967  1.00  0.00     0.213 HD
BRANCH  23  25
HETATM   25  O1  UNL     1      -0.885  18.075  13.103  1.00  0.00    -0.276 OA
ATOM     26  H1  UNL     1      -1.500  18.554  12.559  1.00  0.00     0.245 HD
ENDBRANCH  23  25
ENDBRANCH   4  23
BRANCH   1  27
HETATM   27  N2  UNL     1       2.012  16.728   8.412  1.00  0.00    -0.223 N
ATOM     28  H2  UNL     1       2.251  17.655   8.058  1.00  0.00     0.177 HD
BRANCH  27  29
HETATM   29  C2  UNL     1       2.805  15.638   7.960  1.00  0.00     0.165 C
BRANCH  29  30
HETATM   30  C1  UNL     1       2.564  15.296   6.499  1.00  0.00     0.249 C
BRANCH  30  31
HETATM   31  N1  UNL     1       1.447  14.380   6.387  1.00  0.00    -0.078 N
ATOM     32  H13 UNL     1       1.706  13.516   5.909  1.00  0.00     0.274 HD
ATOM     33  H12 UNL     1       1.189  13.978   7.289  1.00  0.00     0.274 HD
ATOM     34  H11 UNL     1       0.661  14.847   5.935  1.00  0.00     0.274 HD
ENDBRANCH  30  31
ENDBRANCH  29  30
ENDBRANCH  27  29
ENDBRANCH   1  27
TORSDOF 15
ENDMDL