MODEL 3
REMARK VINA RESULT: -5.466775925      2.310      5.364
REMARK  12 active torsions:
REMARK  status: ('A' for Active; 'I' for Inactive)
REMARK    1  A    between atoms: N1_1  and  C1_5
REMARK    2  A    between atoms: C1_5  and  C2_6
REMARK    3  A    between atoms: C2_6  and  C3_7
REMARK    4  A    between atoms: C3_7  and  S1_8
REMARK    5  A    between atoms: S1_8  and  C4_9
REMARK    6  A    between atoms: C7_18  and  C8_19
REMARK    7  A    between atoms: C8_19  and  O3_20
REMARK    8  A    between atoms: O3_20  and  C9_21
REMARK    9  A    between atoms: C9_21  and  C10_22
REMARK   10  A    between atoms: C10_22  and  N4_23
REMARK   11  A    between atoms: C10_22  and  C11_27
REMARK   12  A    between atoms: C11_27  and  N5_28
ROOT
HETATM    1  C4  UNL     1      -0.314  14.806  11.762  1.00  0.00     0.091 A
HETATM    2  N2  UNL     1      -0.281  14.992  13.082  1.00  0.00    -0.302 N
ATOM      3  H2  UNL     1      -0.064  14.191  13.675  1.00  0.00     0.171 HD
HETATM    4  C5  UNL     1      -0.521  16.183  13.680  1.00  0.00     0.328 A
HETATM    5  O1  UNL     1      -0.482  16.329  14.925  1.00  0.00    -0.247 OA
HETATM    6  N3  UNL     1      -0.807  17.238  12.902  1.00  0.00    -0.275 N
ATOM      7  H3  UNL     1      -0.988  18.141  13.341  1.00  0.00     0.173 HD
HETATM    8  C6  UNL     1      -0.863  17.141  11.534  1.00  0.00     0.264 A
HETATM    9  O2  UNL     1      -1.141  18.147  10.856  1.00  0.00    -0.267 OA
HETATM   10  C7  UNL     1      -0.618  15.935  10.949  1.00  0.00     0.087 A
ENDROOT
BRANCH  10  11
HETATM   11  C8  UNL     1      -0.704  15.666   9.525  1.00  0.00     0.154 C
BRANCH  11  12
HETATM   12  O3  UNL     1      -0.151  16.392   8.574  1.00  0.00    -0.360 OA
BRANCH  12  13
HETATM   13  C9  UNL     1       1.133  16.777   8.558  1.00  0.00     0.209 C
BRANCH  13  14
HETATM   14  C10 UNL     1       2.121  15.619   8.424  1.00  0.00     0.232 C
BRANCH  14  15
HETATM   15  N4  UNL     1       3.369  16.065   9.013  1.00  0.00    -0.071 N
ATOM     16  H43 UNL     1       3.585  17.041   8.807  1.00  0.00     0.274 HD
ATOM     17  H42 UNL     1       3.326  16.155  10.028  1.00  0.00     0.274 HD
ATOM     18  H41 UNL     1       4.091  15.419   8.696  1.00  0.00     0.274 HD
ENDBRANCH  14  15
BRANCH  14  19
HETATM   19  C11 UNL     1       2.377  15.245   7.003  1.00  0.00     0.264 C
BRANCH  19  20
HETATM   20  N5  UNL     1       1.238  14.477   6.533  1.00  0.00    -0.077 N
ATOM     21  H53 UNL     1       0.456  14.487   7.188  1.00  0.00     0.274 HD
ATOM     22  H52 UNL     1       0.762  14.916   5.746  1.00  0.00     0.274 HD
ATOM     23  H51 UNL     1       1.563  13.533   6.322  1.00  0.00     0.274 HD
ENDBRANCH  19  20
ENDBRANCH  14  19
ENDBRANCH  13  14
ENDBRANCH  12  13
ENDBRANCH  11  12
ENDBRANCH  10  11
BRANCH   1  24
HETATM   24  S1  UNL     1      -0.009  13.254  10.983  1.00  0.00    -0.111 SA
BRANCH  24  25
HETATM   25  C3  UNL     1       1.687  12.853  10.692  1.00  0.00     0.082 C
BRANCH  25  26
HETATM   26  C2  UNL     1       2.005  12.090   9.454  1.00  0.00     0.038 C
BRANCH  26  27
HETATM   27  C1  UNL     1       2.674  10.783   9.907  1.00  0.00     0.230 C
BRANCH  27  28
HETATM   28  N1  UNL     1       2.511   9.749   8.928  1.00  0.00    -0.079 N
ATOM     29  H13 UNL     1       2.049   8.929   9.322  1.00  0.00     0.274 HD
ATOM     30  H12 UNL     1       1.812  10.002   8.229  1.00  0.00     0.274 HD
ATOM     31  H11 UNL     1       3.401   9.505   8.495  1.00  0.00     0.274 HD
ENDBRANCH  27  28
ENDBRANCH  26  27
ENDBRANCH  25  26
ENDBRANCH  24  25
ENDBRANCH   1  24
TORSDOF 12
ENDMDL