MODEL 1
REMARK VINA RESULT: -5.751535335      0.000      0.000
REMARK  14 active torsions:
REMARK  status: ('A' for Active; 'I' for Inactive)
REMARK    1  A    between atoms: N1_1  and  C1_5
REMARK    2  A    between atoms: C1_5  and  C2_6
REMARK    3  A    between atoms: C2_6  and  C3_7
REMARK    4  A    between atoms: C3_7  and  N2_8
REMARK    5  A    between atoms: N2_8  and  C4_11
REMARK    6  A    between atoms: C4_11  and  C5_12
REMARK    7  A    between atoms: C5_12  and  C6_13
REMARK    8  A    between atoms: C6_13  and  N3_14
REMARK    9  A    between atoms: N3_14  and  N4_16
REMARK   10  A    between atoms: C7_18  and  C8_19
REMARK   11  A    between atoms: C9_20  and  O1_21
REMARK   12  A    between atoms: C10_23  and  O2_24
REMARK   13  A    between atoms: C11_27  and  C12_28
REMARK   14  A    between atoms: C12_28  and  N6_29
ROOT
HETATM    1  N4  UNL     1      -1.014  17.259  10.834  1.00  0.00    -0.320 N
ATOM      2  H4  UNL     1      -1.651  16.682  10.283  1.00  0.00     0.185 HD
HETATM    3  C7  UNL     1       0.243  16.984  10.837  1.00  0.00     0.089 C
ENDROOT
BRANCH   1   4
HETATM    4  N3  UNL     1      -1.530  18.342  11.576  1.00  0.00    -0.337 N
ATOM      5  H3  UNL     1      -1.301  19.291  11.280  1.00  0.00     0.180 HD
BRANCH   4   6
HETATM    6  C6  UNL     1      -2.363  18.164  12.728  1.00  0.00     0.141 C
BRANCH   6   7
HETATM    7  C5  UNL     1      -3.065  16.826  12.670  1.00  0.00     0.048 C
BRANCH   7   8
HETATM    8  C4  UNL     1      -2.723  15.999  13.880  1.00  0.00     0.234 C
BRANCH   8   9
HETATM    9  N2  UNL     1      -1.485  16.460  14.439  1.00  0.00    -0.075 N
ATOM     10  H22 UNL     1      -1.598  16.724  15.418  1.00  0.00     0.277 HD
ATOM     11  H21 UNL     1      -1.223  17.367  14.055  1.00  0.00     0.277 HD
BRANCH   9  12
HETATM   12  C3  UNL     1      -0.433  15.507  14.280  1.00  0.00     0.233 C
BRANCH  12  13
HETATM   13  C2  UNL     1       0.133  15.084  15.630  1.00  0.00     0.055 C
BRANCH  13  14
HETATM   14  C1  UNL     1       0.834  13.741  15.393  1.00  0.00     0.231 C
BRANCH  14  15
HETATM   15  N1  UNL     1       2.238  14.034  15.197  1.00  0.00    -0.079 N
ATOM     16  H13 UNL     1       2.405  14.958  14.798  1.00  0.00     0.274 HD
ATOM     17  H12 UNL     1       2.745  14.177  16.070  1.00  0.00     0.274 HD
ATOM     18  H11 UNL     1       2.620  13.276  14.631  1.00  0.00     0.274 HD
ENDBRANCH  14  15
ENDBRANCH  13  14
ENDBRANCH  12  13
ENDBRANCH   9  12
ENDBRANCH   8   9
ENDBRANCH   7   8
ENDBRANCH   6   7
ENDBRANCH   4   6
ENDBRANCH   1   4
BRANCH   3  19
HETATM   19  C8  UNL     1       0.862  15.896  10.108  1.00  0.00     0.094 C
HETATM   20  C9  UNL     1       1.248  16.286   8.682  1.00  0.00     0.188 C
HETATM   21  C10 UNL     1       1.536  14.919   8.100  1.00  0.00     0.387 C
HETATM   22  N5  UNL     1       0.417  14.151   8.572  1.00  0.00     0.136 N
HETATM   23  C11 UNL     1       0.653  13.364   9.773  1.00  0.00     0.286 A
HETATM   24  C13 UNL     1       0.037  14.676   9.871  1.00  0.00     0.273 A
BRANCH  20  25
HETATM   25  O1  UNL     1       0.160  16.798   7.984  1.00  0.00    -0.390 OA
ATOM     26  H1  UNL     1      -0.060  16.253   7.238  1.00  0.00     0.210 HD
ENDBRANCH  20  25
BRANCH  21  27
HETATM   27  O2  UNL     1       1.550  15.054   6.719  1.00  0.00    -0.366 OA
ATOM     28  H2  UNL     1       2.384  14.719   6.411  1.00  0.00     0.212 HD
ENDBRANCH  21  27
BRANCH  23  29
HETATM   29  C12 UNL     1      -0.230  12.136   9.846  1.00  0.00     0.267 C
BRANCH  29  30
HETATM   30  N6  UNL     1       0.556  10.922   9.698  1.00  0.00    -0.077 N
ATOM     31  H63 UNL     1       0.936  10.609  10.591  1.00  0.00     0.274 HD
ATOM     32  H62 UNL     1      -0.034  10.116   9.490  1.00  0.00     0.274 HD
ATOM     33  H61 UNL     1       1.288  11.044   9.000  1.00  0.00     0.274 HD
ENDBRANCH  29  30
ENDBRANCH  23  29
ENDBRANCH   3  19
TORSDOF 14
ENDMDL