MODEL 1
REMARK VINA RESULT: -5.167481846      0.000      0.000
REMARK  6 active torsions:
REMARK  status: ('A' for Active; 'I' for Inactive)
REMARK    1  A    between atoms: N1_2  and  N2_3
REMARK       I    between atoms: N1_2  and  C7_14
REMARK       I    between atoms: N2_3  and  C2_5
REMARK    2  A    between atoms: C2_5  and  O2_7
REMARK    3  A    between atoms: O2_7  and  C3_8
REMARK    4  A    between atoms: C3_8  and  C6_11
REMARK    5  A    between atoms: C7_14  and  C8_16
REMARK    6  A    between atoms: C9_23  and  C10_24
ROOT
HETATM    1  C1  UNL     1      15.656   6.611  29.047  1.00  0.00     0.181 C
HETATM    2  N1  UNL     1      14.470   7.187  28.454  1.00  0.00    -0.256 N
HETATM    3  C7  UNL     1      13.358   7.546  29.315  1.00  0.00     0.292 C
HETATM    4  O5  UNL     1      13.466   7.348  30.528  1.00  0.00    -0.264 OA
ENDROOT
BRANCH   2   5
HETATM    5  N2  UNL     1      14.428   7.382  27.078  1.00  0.00    -0.240 N
HETATM    6  C2  UNL     1      14.992   8.552  26.465  1.00  0.00     0.381 C
HETATM    7  O1  UNL     1      15.545   9.450  27.130  1.00  0.00    -0.237 OA
ATOM      8  H2  UNL     1      13.987   6.676  26.488  1.00  0.00     0.192 HD
BRANCH   6   9
HETATM    9  O2  UNL     1      14.951   8.748  25.096  1.00  0.00    -0.281 OA
BRANCH   9  10
HETATM   10  C3  UNL     1      14.068   9.648  24.477  1.00  0.00     0.153 C
HETATM   11  C4  UNL     1      13.674   8.982  23.148  1.00  0.00     0.058 C
HETATM   12  C5  UNL     1      14.688  10.960  24.120  1.00  0.00     0.058 C
BRANCH  10  13
HETATM   13  C6  UNL     1      12.804   9.834  25.220  1.00  0.00     0.209 C
HETATM   14  O3  UNL     1      11.788   9.108  25.078  1.00  0.00    -0.646 OA
HETATM   15  O4  UNL     1      12.745  10.879  26.128  1.00  0.00    -0.646 OA
ENDBRANCH  10  13
ENDBRANCH   9  10
ENDBRANCH   6   9
ENDBRANCH   2   5
BRANCH   3  16
HETATM   16  C8  UNL     1      12.182   8.119  28.701  1.00  0.00     0.152 A
HETATM   17  N3  UNL     1      11.859   9.465  28.747  1.00  0.00    -0.279 N
HETATM   18  N4  UNL     1      10.747   9.686  28.110  1.00  0.00    -0.241 N
ATOM     19  H3  UNL     1      12.414  10.181  29.214  1.00  0.00     0.189 HD
HETATM   20  N5  UNL     1      10.342   8.539  27.656  1.00  0.00    -0.279 N
ATOM     21  H4  UNL     1      10.284  10.586  27.990  1.00  0.00     0.208 HD
HETATM   22  C9  UNL     1      11.215   7.522  28.003  1.00  0.00     0.148 A
ATOM     23  H5  UNL     1       9.488   8.405  27.113  1.00  0.00     0.189 HD
BRANCH  22  24
HETATM   24  C10 UNL     1      10.961   6.165  27.599  1.00  0.00     0.285 C
HETATM   25  N6  UNL     1       9.903   5.333  27.966  1.00  0.00    -0.056 NA
HETATM   26  O6  UNL     1      11.796   5.596  26.792  1.00  0.00    -0.269 OA
ENDBRANCH  22  24
ENDBRANCH   3  16
TORSDOF 6
ENDMDL