MODEL 2
REMARK VINA RESULT: -5.860059633      2.753      6.583
REMARK  6 active torsions:
REMARK  status: ('A' for Active; 'I' for Inactive)
REMARK    1  A    between atoms: C4_5  and  C5_6
REMARK    2  A    between atoms: C5_6  and  O1_7
REMARK    3  A    between atoms: C5_6  and  C6_9
REMARK       I    between atoms: C6_9  and  N2_11
REMARK    4  A    between atoms: N2_11  and  C7_13
REMARK    5  A    between atoms: C7_13  and  C8_14
REMARK       I    between atoms: C8_14  and  N3_16
REMARK    6  A    between atoms: N3_16  and  N4_18
ROOT
HETATM    1  C1  UNL     1      15.346   5.888  31.441  1.00  0.00     0.037 C
HETATM    2  C2  UNL     1      14.493   6.225  30.656  1.00  0.00     0.008 C
HETATM    3  N1  UNL     1      13.495   6.622  29.757  1.00  0.00    -0.265 N
HETATM    4  C3  UNL     1      13.181   7.927  29.507  1.00  0.00     0.120 A
HETATM    5  C4  UNL     1      12.164   7.972  28.580  1.00  0.00     0.012 A
HETATM    6  C9  UNL     1      11.876   6.657  28.280  1.00  0.00     0.045 A
HETATM    7  C10 UNL     1      11.086   5.820  27.536  1.00  0.00     0.037 A
HETATM    8  C11 UNL     1      10.006   6.202  26.560  1.00  0.00     0.070 C
HETATM    9  N5  UNL     1      11.448   4.578  27.831  1.00  0.00    -0.301 N
ATOM     10  H5  UNL     1      11.020   3.749  27.419  1.00  0.00     0.187 HD
HETATM   11  N6  UNL     1      12.425   4.535  28.721  1.00  0.00    -0.279 N
HETATM   12  C12 UNL     1      13.070   3.336  29.277  1.00  0.00     0.179 C
HETATM   13  C13 UNL     1      12.705   5.817  29.014  1.00  0.00     0.148 A
ENDROOT
BRANCH   5  14
HETATM   14  C5  UNL     1      11.490   9.161  27.998  1.00  0.00     0.245 C
BRANCH  14  15
HETATM   15  O1  UNL     1      11.557  10.209  28.907  1.00  0.00    -0.381 OA
ATOM     16  H1  UNL     1      12.434  10.572  28.897  1.00  0.00     0.211 HD
ENDBRANCH  14  15
BRANCH  14  17
HETATM   17  C6  UNL     1      12.108   9.588  26.731  1.00  0.00     0.251 C
HETATM   18  O2  UNL     1      11.701   9.166  25.601  1.00  0.00    -0.270 OA
HETATM   19  N2  UNL     1      13.192  10.502  26.771  1.00  0.00    -0.350 N
ATOM     20  H2  UNL     1      13.530  10.850  27.669  1.00  0.00     0.163 HD
BRANCH  19  21
HETATM   21  C7  UNL     1      13.820  10.942  25.550  1.00  0.00     0.227 C
BRANCH  21  22
HETATM   22  C8  UNL     1      13.990  12.411  25.624  1.00  0.00     0.253 C
HETATM   23  O3  UNL     1      13.188  13.178  25.079  1.00  0.00    -0.270 OA
HETATM   24  N3  UNL     1      15.137  12.873  26.361  1.00  0.00    -0.275 N
ATOM     25  H3  UNL     1      15.790  12.226  26.804  1.00  0.00     0.189 HD
BRANCH  24  26
HETATM   26  N4  UNL     1      15.306  14.259  26.434  1.00  0.00    -0.343 N
ATOM     27  H42 UNL     1      14.642  14.893  25.992  1.00  0.00     0.176 HD
ATOM     28  H41 UNL     1      16.121  14.585  26.951  1.00  0.00     0.176 HD
ENDBRANCH  24  26
ENDBRANCH  21  22
ENDBRANCH  19  21
ENDBRANCH  14  17
ENDBRANCH   5  14
TORSDOF 6
ENDMDL