MODEL 2
REMARK VINA RESULT: -5.099490015      1.462      6.135
REMARK  9 active torsions:
REMARK  status: ('A' for Active; 'I' for Inactive)
REMARK       I    between atoms: C2_2  and  N1_4
REMARK    1  A    between atoms: N1_4  and  C3_6
REMARK    2  A    between atoms: C4_7  and  O2_8
REMARK    3  A    between atoms: C5_10  and  N2_11
REMARK    4  A    between atoms: N2_11  and  N3_13
REMARK    5  A    between atoms: C6_18  and  N5_19
REMARK       I    between atoms: N5_19  and  C7_21
REMARK    6  A    between atoms: C9_24  and  O4_25
REMARK    7  A    between atoms: C10_27  and  N6_28
REMARK    8  A    between atoms: N6_28  and  N7_30
REMARK    9  A    between atoms: N7_30  and  N8_31
ROOT
HETATM    1  C3  UNL     1      11.543   4.638  27.692  1.00  0.00     0.048 C
HETATM    2  C4  UNL     1      10.472   5.671  27.602  1.00  0.00     0.192 C
HETATM    3  C5  UNL     1      10.753   6.711  26.535  1.00  0.00     0.160 C
HETATM    4  C6  UNL     1      12.141   7.287  26.759  1.00  0.00     0.142 C
HETATM    5  C9  UNL     1      13.068   6.138  26.415  1.00  0.00     0.173 C
HETATM    6  C10 UNL     1      12.937   5.181  27.605  1.00  0.00     0.193 C
ENDROOT
BRANCH   3   7
HETATM    7  N2  UNL     1       9.721   7.705  26.507  1.00  0.00    -0.313 N
ATOM      8  H2  UNL     1       9.923   8.687  26.695  1.00  0.00     0.182 HD
BRANCH   7   9
HETATM    9  N3  UNL     1       8.570   7.320  26.245  1.00  0.00    -0.253 N
HETATM   10  N4  UNL     1       7.453   7.339  25.759  1.00  0.00    -0.331 N
ATOM     11  H42 UNL     1       7.531   8.229  25.266  1.00  0.00     0.178 HD
ATOM     12  H41 UNL     1       6.507   7.022  25.544  1.00  0.00     0.178 HD
ATOM     13  H3  UNL     1       8.542   6.438  26.755  1.00  0.00     0.207 HD
ENDBRANCH   7   9
ENDBRANCH   3   7
BRANCH   2  14
HETATM   14  O2  UNL     1      10.395   6.383  28.785  1.00  0.00    -0.388 OA
ATOM     15  H2  UNL     1      11.201   6.863  28.932  1.00  0.00     0.210 HD
ENDBRANCH   2  14
BRANCH   4  16
HETATM   16  N5  UNL     1      12.393   8.420  25.930  1.00  0.00    -0.352 N
HETATM   17  C7  UNL     1      12.817   9.659  26.455  1.00  0.00     0.214 C
HETATM   18  C8  UNL     1      13.059  10.788  25.537  1.00  0.00     0.117 C
HETATM   19  O3  UNL     1      12.991   9.807  27.694  1.00  0.00    -0.274 OA
ATOM     20  H5  UNL     1      12.262   8.332  24.922  1.00  0.00     0.163 HD
ENDBRANCH   4  16
BRANCH   1  21
HETATM   21  N1  UNL     1      11.387   3.567  28.595  1.00  0.00    -0.330 N
HETATM   22  C2  UNL     1      11.698   2.199  28.436  1.00  0.00     0.217 C
HETATM   23  C1  UNL     1      11.450   1.201  29.544  1.00  0.00     0.117 C
HETATM   24  O1  UNL     1      12.194   1.802  27.352  1.00  0.00    -0.274 OA
ATOM     25  H1  UNL     1      10.989   3.818  29.500  1.00  0.00     0.168 HD
ENDBRANCH   1  21
BRANCH   5  26
HETATM   26  O4  UNL     1      14.377   6.520  26.263  1.00  0.00    -0.391 OA
ATOM     27  H4  UNL     1      14.792   6.779  27.078  1.00  0.00     0.210 HD
ENDBRANCH   5  26
BRANCH   6  28
HETATM   28  N6  UNL     1      13.338   5.974  28.739  1.00  0.00    -0.240 N
ATOM     29  H6  UNL     1      13.649   6.933  28.582  1.00  0.00     0.198 HD
BRANCH  28  30
HETATM   30  N7  UNL     1      13.319   5.544  29.885  1.00  0.00    -0.248 NA
BRANCH  30  31
HETATM   31  N8  UNL     1      13.286   5.423  31.095  1.00  0.00    -0.261 N
ATOM     32  H82 UNL     1      13.640   4.467  31.066  1.00  0.00     0.193 HD
ATOM     33  H81 UNL     1      13.167   5.571  32.097  1.00  0.00     0.193 HD
ENDBRANCH  30  31
ENDBRANCH  28  30
ENDBRANCH   6  28
TORSDOF 9
ENDMDL