MODEL 4
REMARK VINA RESULT: -5.296839771      4.916      6.799
REMARK  6 active torsions:
REMARK  status: ('A' for Active; 'I' for Inactive)
REMARK    1  A    between atoms: O1_2  and  C2_3
REMARK    2  A    between atoms: C6_7  and  C7_8
REMARK       I    between atoms: C7_8  and  N1_10
REMARK    3  A    between atoms: N1_10  and  N2_12
REMARK       I    between atoms: N2_12  and  C8_14
REMARK       I    between atoms: C8_14  and  N5_20
REMARK    4  A    between atoms: N3_15  and  N4_17
REMARK    5  A    between atoms: N5_20  and  N6_22
REMARK    6  A    between atoms: C9_25  and  O5_26
ROOT
HETATM    1  C7  UNL     1      12.905   9.079  25.474  1.00  0.00     0.273 C
HETATM    2  O2  UNL     1      12.434   9.550  24.372  1.00  0.00    -0.266 OA
HETATM    3  N1  UNL     1      14.099   9.683  25.906  1.00  0.00    -0.251 N
ATOM      4  H1  UNL     1      14.534   9.356  26.769  1.00  0.00     0.191 HD
ENDROOT
BRANCH   3   5
HETATM    5  N2  UNL     1      14.714  10.727  25.186  1.00  0.00    -0.126 N
HETATM    6  C8  UNL     1      15.514  11.731  25.757  1.00  0.00     0.730 C
HETATM    7  N3  UNL     1      16.498  11.457  26.514  1.00  0.00    -0.136 N
HETATM    8  N5  UNL     1      15.262  13.112  25.514  1.00  0.00    -0.069 N
ATOM      9  H3  UNL     1      17.021  12.251  26.884  1.00  0.00     0.205 HD
ATOM     10  H5  UNL     1      16.052  13.758  25.559  1.00  0.00     0.212 HD
ATOM     11  H2  UNL     1      14.567  10.756  24.177  1.00  0.00     0.206 HD
BRANCH   7  12
HETATM   12  N4  UNL     1      16.937  10.206  26.889  1.00  0.00    -0.331 N
ATOM     13  H42 UNL     1      16.432   9.424  26.473  1.00  0.00     0.177 HD
ATOM     14  H41 UNL     1      17.701   9.987  27.529  1.00  0.00     0.177 HD
ENDBRANCH   7  12
BRANCH   8  15
HETATM   15  N6  UNL     1      14.002  13.640  25.218  1.00  0.00    -0.024 N
HETATM   16  O3  UNL     1      13.888  14.778  24.766  1.00  0.00    -0.516 OA
HETATM   17  O4  UNL     1      12.890  12.830  25.451  1.00  0.00    -0.516 OA
ENDBRANCH   8  15
ENDBRANCH   3   5
BRANCH   1  18
HETATM   18  C6  UNL     1      12.172   8.008  26.121  1.00  0.00     0.073 A
HETATM   19  C4  UNL     1      12.328   6.708  25.636  1.00  0.00    -0.041 A
HETATM   20  C3  UNL     1      11.593   5.705  26.234  1.00  0.00     0.044 A
HETATM   21  C5  UNL     1      13.258   6.382  24.531  1.00  0.00     0.049 C
HETATM   22  C2  UNL     1      10.719   5.904  27.279  1.00  0.00     0.071 A
HETATM   23  C11 UNL     1      10.608   7.201  27.713  1.00  0.00     0.074 A
HETATM   24  C9  UNL     1      11.308   8.272  27.168  1.00  0.00     0.087 A
BRANCH  22  25
HETATM   25  O1  UNL     1       9.998   4.866  27.853  1.00  0.00    -0.356 OA
HETATM   26  C1  UNL     1      10.583   3.584  27.865  1.00  0.00     0.210 C
ENDBRANCH  22  25
BRANCH  24  27
HETATM   27  O5  UNL     1      11.123   9.547  27.675  1.00  0.00    -0.355 OA
HETATM   28  C10 UNL     1      11.723   9.888  28.905  1.00  0.00     0.210 C
ENDBRANCH  24  27
ENDBRANCH   1  18
TORSDOF 6
ENDMDL