MODEL 4
REMARK VINA RESULT: -5.248395065      0.559      1.306
REMARK  6 active torsions:
REMARK  status: ('A' for Active; 'I' for Inactive)
REMARK    1  A    between atoms: O1_2  and  C2_3
REMARK    2  A    between atoms: C2_3  and  C3_5
REMARK    3  A    between atoms: C6_9  and  C7_10
REMARK       I    between atoms: C7_10  and  N2_12
REMARK    4  A    between atoms: N2_12  and  N3_14
REMARK    5  A    between atoms: N3_14  and  S1_16
REMARK    6  A    between atoms: S1_16  and  N4_17
ROOT
HETATM    1  C3  UNL     1      14.861  11.692  24.211  1.00  0.00     0.085 A
HETATM    2  C4  UNL     1      14.241  10.513  23.848  1.00  0.00     0.067 A
HETATM    3  N1  UNL     1      14.514   9.934  22.587  1.00  0.00    -0.101 NA
HETATM    4  C5  UNL     1      13.366   9.924  24.735  1.00  0.00     0.063 A
HETATM    5  C6  UNL     1      13.084  10.470  25.974  1.00  0.00     0.104 A
HETATM    6  N5  UNL     1      13.734  11.636  26.266  1.00  0.00    -0.354 N
ATOM      7  H5  UNL     1      13.549  12.065  27.174  1.00  0.00     0.166 HD
HETATM    8  C8  UNL     1      14.591  12.253  25.452  1.00  0.00     0.024 A
HETATM    9  C9  UNL     1      15.263  13.511  25.858  1.00  0.00     0.069 C
ENDROOT
BRANCH   5  10
HETATM   10  C7  UNL     1      12.174   9.885  26.943  1.00  0.00     0.287 C
HETATM   11  O3  UNL     1      12.234  10.272  28.131  1.00  0.00    -0.264 OA
HETATM   12  N2  UNL     1      11.240   8.905  26.562  1.00  0.00    -0.254 N
ATOM     13  H2  UNL     1      11.175   8.568  25.602  1.00  0.00     0.191 HD
BRANCH  12  14
HETATM   14  N3  UNL     1      10.399   8.416  27.578  1.00  0.00    -0.207 N
ATOM     15  H3  UNL     1       9.655   8.939  28.040  1.00  0.00     0.201 HD
BRANCH  14  16
HETATM   16  S1  UNL     1      10.836   6.798  27.910  1.00  0.00     0.330 S
HETATM   17  O4  UNL     1       9.563   6.020  28.212  1.00  0.00    -0.181 OA
HETATM   18  O5  UNL     1      11.534   6.261  26.688  1.00  0.00    -0.181 OA
BRANCH  16  19
HETATM   19  N4  UNL     1      11.839   6.610  29.286  1.00  0.00    -0.310 N
ATOM     20  H42 UNL     1      12.652   5.995  29.283  1.00  0.00     0.170 HD
ATOM     21  H41 UNL     1      11.549   7.163  30.093  1.00  0.00     0.170 HD
ENDBRANCH  16  19
ENDBRANCH  14  16
ENDBRANCH  12  14
ENDBRANCH   5  10
BRANCH   1  22
HETATM   22  C2  UNL     1      15.781  12.320  23.245  1.00  0.00     0.296 C
HETATM   23  O2  UNL     1      15.333  13.172  22.412  1.00  0.00    -0.259 OA
BRANCH  22  24
HETATM   24  O1  UNL     1      17.123  12.047  23.173  1.00  0.00    -0.322 OA
HETATM   25  C1  UNL     1      17.825  11.256  24.100  1.00  0.00     0.213 C
ENDBRANCH  22  24
ENDBRANCH   1  22
TORSDOF 6
ENDMDL