MODEL 4
REMARK VINA RESULT: -5.498017812      2.872      7.632
REMARK  6 active torsions:
REMARK  status: ('A' for Active; 'I' for Inactive)
REMARK    1  A    between atoms: C3_5  and  N2_6
REMARK    2  A    between atoms: N2_6  and  N3_8
REMARK    3  A    between atoms: C4_13  and  C5_14
REMARK    4  A    between atoms: C5_14  and  C6_15
REMARK       I    between atoms: C6_15  and  N5_17
REMARK    5  A    between atoms: N5_17  and  C7_19
REMARK    6  A    between atoms: C7_19  and  N6_20
ROOT
HETATM    1  N1  UNL     1      14.534   8.516  22.060  1.00  0.00    -0.191 NA
HETATM    2  C1  UNL     1      14.398   9.355  22.844  1.00  0.00     0.109 C
HETATM    3  C2  UNL     1      14.249  10.423  23.829  1.00  0.00     0.111 A
HETATM    4  S1  UNL     1      15.255  11.758  24.161  1.00  0.00    -0.040 SA
HETATM    5  C3  UNL     1      14.344  12.455  25.417  1.00  0.00     0.164 A
HETATM    6  N4  UNL     1      13.300  11.634  25.535  1.00  0.00    -0.337 N
ATOM      7  H4  UNL     1      12.571  11.806  26.227  1.00  0.00     0.168 HD
HETATM    8  C4  UNL     1      13.239  10.596  24.733  1.00  0.00     0.048 A
ENDROOT
BRANCH   8   9
HETATM    9  C5  UNL     1      12.083   9.610  24.802  1.00  0.00     0.162 C
BRANCH   9  10
HETATM   10  C6  UNL     1      11.922   9.075  26.153  1.00  0.00     0.224 C
HETATM   11  O1  UNL     1      11.721   9.899  27.099  1.00  0.00    -0.273 OA
HETATM   12  N5  UNL     1      11.994   7.679  26.374  1.00  0.00    -0.335 N
ATOM     13  H5  UNL     1      12.158   7.063  25.579  1.00  0.00     0.164 HD
BRANCH  12  14
HETATM   14  C7  UNL     1      11.842   7.103  27.677  1.00  0.00     0.399 C
BRANCH  14  15
HETATM   15  N6  UNL     1      13.145   6.742  28.258  1.00  0.00     0.122 N
HETATM   16  C8  UNL     1      13.018   5.548  29.074  1.00  0.00     0.277 C
HETATM   17  C9  UNL     1      14.213   5.422  29.955  1.00  0.00     0.032 C
HETATM   18  C10 UNL     1      14.164   6.186  31.227  1.00  0.00     0.021 C
HETATM   19  C11 UNL     1      13.000   7.086  31.411  1.00  0.00     0.115 C
HETATM   20  N7  UNL     1      12.554   7.778  30.253  1.00  0.00    -0.398 N
HETATM   21  C12 UNL     1      13.487   7.823  29.167  1.00  0.00     0.392 C
ATOM     22  H7  UNL     1      11.633   8.213  30.199  1.00  0.00     0.154 HD
ENDBRANCH  14  15
ENDBRANCH  12  14
ENDBRANCH   9  10
ENDBRANCH   8   9
BRANCH   5  23
HETATM   23  N2  UNL     1      14.586  13.537  26.116  1.00  0.00    -0.286 N
ATOM     24  H2  UNL     1      13.952  14.332  26.046  1.00  0.00     0.188 HD
BRANCH  23  25
HETATM   25  N3  UNL     1      15.697  13.617  26.951  1.00  0.00    -0.343 N
ATOM     26  H32 UNL     1      16.274  12.786  27.074  1.00  0.00     0.176 HD
ATOM     27  H31 UNL     1      15.931  14.486  27.432  1.00  0.00     0.176 HD
ENDBRANCH  23  25
ENDBRANCH   5  23
TORSDOF 6
ENDMDL