MODEL 4
REMARK VINA RESULT: -5.917537930      5.607      8.555
REMARK  6 active torsions:
REMARK  status: ('A' for Active; 'I' for Inactive)
REMARK    1  A    between atoms: C1_2  and  C2_4
REMARK    2  A    between atoms: C2_4  and  N2_5
REMARK    3  A    between atoms: N2_5  and  C3_7
REMARK    4  A    between atoms: C6_14  and  C7_15
REMARK    5  A    between atoms: C7_15  and  N5_16
REMARK    6  A    between atoms: N5_16  and  C8_18
ROOT
HETATM    1  C3  UNL     1      13.939   8.415  27.885  1.00  0.00     0.115 A
HETATM    2  N3  UNL     1      15.111   8.063  27.225  1.00  0.00    -0.338 N
ATOM      3  H3  UNL     1      15.324   8.518  26.337  1.00  0.00     0.168 HD
HETATM    4  C4  UNL     1      15.962   7.166  27.693  1.00  0.00     0.182 A
HETATM    5  N4  UNL     1      15.762   6.519  28.856  1.00  0.00    -0.351 N
ATOM      6  H4  UNL     1      16.429   5.827  29.201  1.00  0.00     0.166 HD
HETATM    7  C5  UNL     1      14.634   6.825  29.554  1.00  0.00     0.055 A
HETATM    8  C6  UNL     1      14.509   6.212  30.808  1.00  0.00    -0.012 A
HETATM    9  C9  UNL     1      13.445   6.583  31.558  1.00  0.00     0.011 A
HETATM   10  C10 UNL     1      12.525   7.511  31.121  1.00  0.00     0.002 A
HETATM   11  C11 UNL     1      12.661   8.103  29.883  1.00  0.00     0.017 A
HETATM   12  C12 UNL     1      13.736   7.751  29.089  1.00  0.00     0.035 A
ENDROOT
BRANCH   8  13
HETATM   13  C7  UNL     1      15.485   5.132  31.072  1.00  0.00     0.179 C
BRANCH  13  14
HETATM   14  N5  UNL     1      15.875   5.257  32.440  1.00  0.00    -0.219 N
ATOM     15  H5  UNL     1      15.332   4.716  33.111  1.00  0.00     0.178 HD
BRANCH  14  16
HETATM   16  C8  UNL     1      16.819   5.963  32.925  1.00  0.00     0.709 A
HETATM   17  N6  UNL     1      16.860   6.236  34.270  1.00  0.00    -0.115 N
HETATM   18  N7  UNL     1      17.941   6.973  34.512  1.00  0.00    -0.213 N
ATOM     19  H6  UNL     1      16.180   5.928  34.964  1.00  0.00     0.207 HD
HETATM   20  N8  UNL     1      18.580   7.170  33.376  1.00  0.00    -0.213 N
ATOM     21  H7  UNL     1      18.227   7.327  35.425  1.00  0.00     0.210 HD
HETATM   22  N9  UNL     1      17.902   6.556  32.405  1.00  0.00    -0.115 N
ATOM     23  H8  UNL     1      19.443   7.700  33.260  1.00  0.00     0.210 HD
ATOM     24  H9  UNL     1      18.167   6.540  31.421  1.00  0.00     0.207 HD
ENDBRANCH  14  16
ENDBRANCH  13  14
ENDBRANCH   8  13
BRANCH   1  25
HETATM   25  N2  UNL     1      13.240   9.247  27.366  1.00  0.00    -0.367 N
ATOM     26  H2  UNL     1      12.850   9.743  28.168  1.00  0.00     0.161 HD
BRANCH  25  27
HETATM   27  C2  UNL     1      12.680   9.895  26.313  1.00  0.00     0.220 C
BRANCH  27  28
HETATM   28  C1  UNL     1      13.525  11.113  25.919  1.00  0.00     0.248 C
HETATM   29  N1  UNL     1      14.915  11.035  25.986  1.00  0.00    -0.061 NA
HETATM   30  O1  UNL     1      12.987  12.194  25.534  1.00  0.00    -0.275 OA
ENDBRANCH  27  28
ENDBRANCH  25  27
ENDBRANCH   1  25
TORSDOF 6
ENDMDL