MODEL 1
REMARK VINA RESULT: -5.014512350      0.000      0.000
REMARK  7 active torsions:
REMARK  status: ('A' for Active; 'I' for Inactive)
REMARK    1  A    between atoms: C3_3  and  N1_4
REMARK    2  A    between atoms: N1_4  and  N2_5
REMARK       I    between atoms: N1_4  and  C9_18
REMARK    3  A    between atoms: C4_7  and  C5_8
REMARK    4  A    between atoms: C6_10  and  N3_11
REMARK    5  A    between atoms: C9_18  and  C10_20
REMARK    6  A    between atoms: C10_20  and  N5_21
REMARK    7  A    between atoms: C10_20  and  C12_27
ROOT
HETATM    1  C1  UNL     1       8.750   6.936  26.273  1.00  0.00     0.014 C
HETATM    2  C2  UNL     1       9.647   7.157  27.045  1.00  0.00    -0.096 C
HETATM    3  C3  UNL     1      10.765   7.425  27.985  1.00  0.00     0.245 C
ENDROOT
BRANCH   3   4
HETATM    4  N1  UNL     1      11.957   7.703  27.142  1.00  0.00    -0.247 N
HETATM    5  C9  UNL     1      12.340   9.032  27.004  1.00  0.00     0.299 C
HETATM    6  O1  UNL     1      11.652   9.954  27.557  1.00  0.00    -0.267 OA
BRANCH   4   7
HETATM    7  N2  UNL     1      12.593   6.659  26.551  1.00  0.00    -0.305 N
HETATM    8  C4  UNL     1      13.290   5.719  27.022  1.00  0.00     0.128 C
ATOM      9  H2  UNL     1      12.486   6.629  25.537  1.00  0.00     0.186 HD
BRANCH   8  10
HETATM   10  C5  UNL     1      13.547   5.605  28.469  1.00  0.00     0.047 A
HETATM   11  S1  UNL     1      14.398   6.660  29.515  1.00  0.00    -0.051 SA
HETATM   12  C6  UNL     1      14.194   5.793  30.967  1.00  0.00     0.143 A
HETATM   13  N4  UNL     1      13.482   4.732  30.585  1.00  0.00    -0.340 N
HETATM   14  C7  UNL     1      13.148   4.620  29.333  1.00  0.00     0.026 A
ATOM     15  H4  UNL     1      13.206   4.022  31.262  1.00  0.00     0.168 HD
HETATM   16  C8  UNL     1      12.337   3.445  28.799  1.00  0.00     0.070 C
BRANCH  12  17
HETATM   17  N3  UNL     1      14.623   6.081  32.175  1.00  0.00    -0.380 N
ATOM     18  H32 UNL     1      14.126   5.964  33.058  1.00  0.00     0.158 HD
ATOM     19  H31 UNL     1      15.520   6.472  32.466  1.00  0.00     0.158 HD
ENDBRANCH  12  17
ENDBRANCH   8  10
ENDBRANCH   4   7
BRANCH   5  20
HETATM   20  C10 UNL     1      13.522   9.459  26.239  1.00  0.00     0.367 C
HETATM   21  C11 UNL     1      13.301  10.898  25.901  1.00  0.00     0.119 C
HETATM   22  N6  UNL     1      13.140  12.013  25.657  1.00  0.00    -0.194 NA
BRANCH  20  23
HETATM   23  N5  UNL     1      14.777   9.295  26.890  1.00  0.00    -0.040 N
ATOM     24  H53 UNL     1      14.786   8.416  27.408  1.00  0.00     0.277 HD
ATOM     25  H52 UNL     1      15.504   9.108  26.199  1.00  0.00     0.277 HD
ATOM     26  H51 UNL     1      15.067  10.059  27.499  1.00  0.00     0.277 HD
ENDBRANCH  20  23
BRANCH  20  27
HETATM   27  C12 UNL     1      13.559   8.767  24.900  1.00  0.00     0.292 C
HETATM   28  N7  UNL     1      12.436   8.897  24.045  1.00  0.00    -0.058 NA
HETATM   29  O2  UNL     1      14.545   8.091  24.533  1.00  0.00    -0.272 OA
ENDBRANCH  20  27
ENDBRANCH   5  20
ENDBRANCH   3   4
TORSDOF 7
ENDMDL