MODEL 5
REMARK VINA RESULT: -4.904590263      1.577      2.049
REMARK  7 active torsions:
REMARK  status: ('A' for Active; 'I' for Inactive)
REMARK    1  A    between atoms: C3_3  and  N1_4
REMARK    2  A    between atoms: N1_4  and  C4_6
REMARK    3  A    between atoms: C5_9  and  C6_10
REMARK    4  A    between atoms: C6_10  and  C7_11
REMARK    5  A    between atoms: C7_11  and  N3_12
REMARK    6  A    between atoms: N4_18  and  N5_19
REMARK    7  A    between atoms: C12_22  and  N6_23
ROOT
HETATM    1  C1  UNL     1      14.823   5.906  31.203  1.00  0.00     0.014 C
HETATM    2  C2  UNL     1      13.839   6.611  31.205  1.00  0.00    -0.097 C
HETATM    3  C3  UNL     1      12.625   7.462  31.182  1.00  0.00     0.231 C
ENDROOT
BRANCH   3   4
HETATM    4  N1  UNL     1      11.875   7.155  29.995  1.00  0.00    -0.216 N
ATOM      5  H1  UNL     1      11.034   6.585  30.092  1.00  0.00     0.178 HD
BRANCH   4   6
HETATM    6  C4  UNL     1      12.202   7.559  28.816  1.00  0.00     0.680 A
HETATM    7  N2  UNL     1      12.311   6.721  27.787  1.00  0.00    -0.194 N
HETATM    8  C5  UNL     1      12.648   7.049  26.512  1.00  0.00     0.048 A
ATOM      9  H2  UNL     1      12.122   5.736  27.974  1.00  0.00     0.184 HD
HETATM   10  C10 UNL     1      12.884   8.393  26.348  1.00  0.00     0.103 A
HETATM   11  C11 UNL     1      13.255   8.874  25.128  1.00  0.00     0.297 A
HETATM   12  C13 UNL     1      12.774   9.292  27.416  1.00  0.00     0.154 A
HETATM   13  O1  UNL     1      13.362   8.110  24.185  1.00  0.00    -0.265 OA
HETATM   14  N4  UNL     1      13.512  10.175  24.934  1.00  0.00    -0.054 N
HETATM   15  C12 UNL     1      13.401  11.044  25.974  1.00  0.00     0.701 A
HETATM   16  N7  UNL     1      13.035  10.598  27.199  1.00  0.00    -0.173 N
ATOM     17  H7  UNL     1      12.955  11.261  27.970  1.00  0.00     0.186 HD
HETATM   18  N8  UNL     1      12.434   8.867  28.638  1.00  0.00    -0.175 N
ATOM     19  H8  UNL     1      12.354   9.522  29.416  1.00  0.00     0.186 HD
BRANCH   8  20
HETATM   20  C6  UNL     1      12.670   6.016  25.467  1.00  0.00     0.089 C
BRANCH  20  21
HETATM   21  C7  UNL     1      12.699   4.600  25.925  1.00  0.00     0.277 C
BRANCH  21  22
HETATM   22  N3  UNL     1      11.417   3.980  25.774  1.00  0.00     0.080 N
HETATM   23  C8  UNL     1      10.724   3.597  26.942  1.00  0.00     0.309 C
HETATM   24  C9  UNL     1      11.493   2.876  24.845  1.00  0.00     0.309 C
ENDBRANCH  21  22
ENDBRANCH  20  21
ENDBRANCH   8  20
BRANCH  14  25
HETATM   25  N5  UNL     1      13.888  10.584  23.654  1.00  0.00    -0.321 N
ATOM     26  H52 UNL     1      13.348  10.344  22.822  1.00  0.00     0.178 HD
ATOM     27  H51 UNL     1      14.736  11.143  23.560  1.00  0.00     0.178 HD
ENDBRANCH  14  25
BRANCH  15  28
HETATM   28  N6  UNL     1      13.651  12.290  25.780  1.00  0.00    -0.233 N
ATOM     29  H62 UNL     1      14.608  12.640  25.828  1.00  0.00     0.174 HD
ATOM     30  H61 UNL     1      12.882  12.927  25.575  1.00  0.00     0.174 HD
ENDBRANCH  15  28
ENDBRANCH   4   6
ENDBRANCH   3   4
TORSDOF 7
ENDMDL