MODEL 2
REMARK VINA RESULT: -5.178577567      2.324      2.940
REMARK  9 active torsions:
REMARK  status: ('A' for Active; 'I' for Inactive)
REMARK    1  A    between atoms: C2_2  and  N1_4
REMARK    2  A    between atoms: C2_2  and  C4_8
REMARK       I    between atoms: C4_8  and  N2_10
REMARK    3  A    between atoms: N2_10  and  N3_11
REMARK       I    between atoms: N2_10  and  C5_15
REMARK    4  A    between atoms: N3_11  and  O2_13
REMARK    5  A    between atoms: C5_15  and  O4_17
REMARK    6  A    between atoms: O4_17  and  C6_18
REMARK    7  A    between atoms: C6_18  and  N4_19
REMARK    8  A    between atoms: C6_18  and  C8_24
REMARK    9  A    between atoms: N4_19  and  C7_21
ROOT
HETATM    1  C4  UNL     1      14.439   5.292  29.459  1.00  0.00     0.284 C
HETATM    2  O1  UNL     1      14.721   5.760  28.316  1.00  0.00    -0.268 OA
HETATM    3  N2  UNL     1      13.660   6.119  30.301  1.00  0.00    -0.143 N
HETATM    4  C5  UNL     1      13.205   7.411  29.909  1.00  0.00     0.393 C
HETATM    5  O3  UNL     1      12.511   8.118  30.691  1.00  0.00    -0.236 OA
ENDROOT
BRANCH   3   6
HETATM    6  N3  UNL     1      13.333   5.628  31.567  1.00  0.00    -0.196 N
ATOM      7  H3  UNL     1      12.735   4.811  31.682  1.00  0.00     0.216 HD
BRANCH   6   8
HETATM    8  O2  UNL     1      13.812   6.241  32.566  1.00  0.00    -0.274 OA
ATOM      9  H2  UNL     1      13.263   6.308  33.339  1.00  0.00     0.246 HD
ENDBRANCH   6   8
ENDBRANCH   3   6
BRANCH   1  10
HETATM   10  C2  UNL     1      14.928   3.963  29.815  1.00  0.00     0.198 C
HETATM   11  C1  UNL     1      15.964   3.439  28.843  1.00  0.00     0.056 C
HETATM   12  C3  UNL     1      13.828   2.925  29.882  1.00  0.00     0.056 C
BRANCH  10  13
HETATM   13  N1  UNL     1      15.564   4.006  31.117  1.00  0.00    -0.062 N
ATOM     14  H13 UNL     1      15.572   3.103  31.591  1.00  0.00     0.275 HD
ATOM     15  H12 UNL     1      16.576   4.131  31.067  1.00  0.00     0.275 HD
ATOM     16  H11 UNL     1      15.092   4.737  31.649  1.00  0.00     0.275 HD
ENDBRANCH  10  13
ENDBRANCH   1  10
BRANCH   4  17
HETATM   17  O4  UNL     1      13.499   7.946  28.665  1.00  0.00    -0.266 OA
BRANCH  17  18
HETATM   18  C6  UNL     1      12.454   8.221  27.758  1.00  0.00     0.336 C
BRANCH  18  19
HETATM   19  N4  UNL     1      11.270   7.430  28.050  1.00  0.00    -0.334 N
ATOM     20  H4  UNL     1      10.624   7.790  28.752  1.00  0.00     0.164 HD
BRANCH  19  21
HETATM   21  C7  UNL     1      10.947   6.209  27.439  1.00  0.00     0.183 C
HETATM   22  N5  UNL     1       9.835   5.463  27.888  1.00  0.00    -0.070 NA
HETATM   23  S1  UNL     1      11.849   5.650  26.214  1.00  0.00    -0.044 SA
ENDBRANCH  19  21
ENDBRANCH  18  19
BRANCH  18  24
HETATM   24  C8  UNL     1      12.101   9.643  27.714  1.00  0.00     0.224 C
HETATM   25  O5  UNL     1      12.713  10.551  27.112  1.00  0.00    -0.645 OA
HETATM   26  O6  UNL     1      10.953  10.075  28.411  1.00  0.00    -0.645 OA
ENDBRANCH  18  24
ENDBRANCH  17  18
ENDBRANCH   4  17
TORSDOF 9
ENDMDL