MODEL 2
REMARK VINA RESULT: -5.891635649      2.212      5.313
REMARK  9 active torsions:
REMARK  status: ('A' for Active; 'I' for Inactive)
REMARK    1  A    between atoms: N1_1  and  C1_5
REMARK    2  A    between atoms: C1_5  and  C2_6
REMARK    3  A    between atoms: C2_6  and  N2_7
REMARK    4  A    between atoms: N2_7  and  C3_8
REMARK    5  A    between atoms: N2_7  and  C5_12
REMARK    6  A    between atoms: C3_8  and  C4_9
REMARK    7  A    between atoms: C4_9  and  O1_10
REMARK    8  A    between atoms: C6_13  and  N3_14
REMARK    9  A    between atoms: C13_30  and  N6_31
ROOT
HETATM    1  C5  UNL     1      27.501  17.945  62.613  1.00  0.00     0.056 C
HETATM    2  C6  UNL     1      28.326  18.423  61.478  1.00  0.00     0.231 C
HETATM    3  C7  UNL     1      27.576  18.394  60.159  1.00  0.00     0.041 C
HETATM    4  C8  UNL     1      26.796  17.149  59.915  1.00  0.00     0.045 C
HETATM    5  C9  UNL     1      26.540  16.306  61.144  1.00  0.00     0.182 C
HETATM    6  C10 UNL     1      25.344  15.423  61.040  1.00  0.00     0.273 C
HETATM    7  N4  UNL     1      25.539  14.412  60.037  1.00  0.00    -0.071 N
ATOM      8  H41 UNL     1      25.399  14.784  59.098  1.00  0.00     0.277 HD
ATOM      9  H42 UNL     1      24.787  13.724  60.046  1.00  0.00     0.277 HD
HETATM   10  C11 UNL     1      26.827  13.789  60.172  1.00  0.00     0.260 C
HETATM   11  C12 UNL     1      27.497  14.126  61.487  1.00  0.00     0.260 C
HETATM   12  N5  UNL     1      27.743  15.578  61.462  1.00  0.00    -0.061 N
ATOM     13  H51 UNL     1      28.158  15.903  62.334  1.00  0.00     0.278 HD
ATOM     14  H52 UNL     1      28.504  15.818  60.828  1.00  0.00     0.278 HD
HETATM   15  C13 UNL     1      26.189  17.331  62.259  1.00  0.00     0.269 C
ENDROOT
BRANCH   1  16
HETATM   16  N2  UNL     1      27.386  18.827  63.745  1.00  0.00    -0.340 N
BRANCH  16  17
HETATM   17  C2  UNL     1      26.261  19.667  63.677  1.00  0.00     0.096 C
BRANCH  17  18
HETATM   18  C1  UNL     1      25.591  19.839  65.008  1.00  0.00     0.274 C
BRANCH  18  19
HETATM   19  N1  UNL     1      24.157  20.096  64.857  1.00  0.00    -0.075 N
ATOM     20  H13 UNL     1      23.939  21.082  64.992  1.00  0.00     0.274 HD
ATOM     21  H12 UNL     1      23.861  20.000  63.886  1.00  0.00     0.274 HD
ATOM     22  H11 UNL     1      23.604  19.504  65.477  1.00  0.00     0.274 HD
ENDBRANCH  18  19
ENDBRANCH  17  18
ENDBRANCH  16  17
BRANCH  16  23
HETATM   23  C3  UNL     1      27.981  18.435  64.923  1.00  0.00     0.094 C
BRANCH  23  24
HETATM   24  C4  UNL     1      28.882  17.245  64.948  1.00  0.00     0.209 C
BRANCH  24  25
HETATM   25  O1  UNL     1      28.046  16.132  65.358  1.00  0.00    -0.396 OA
ATOM     26  H1  UNL     1      27.720  15.750  64.553  1.00  0.00     0.209 HD
ENDBRANCH  24  25
ENDBRANCH  23  24
ENDBRANCH  16  23
ENDBRANCH   1  16
BRANCH   2  27
HETATM   27  N3  UNL     1      28.784  19.799  61.647  1.00  0.00    -0.070 N
ATOM     28  H33 UNL     1      28.791  20.062  62.632  1.00  0.00     0.275 HD
ATOM     29  H32 UNL     1      29.782  19.878  61.447  1.00  0.00     0.275 HD
ATOM     30  H31 UNL     1      28.247  20.467  61.094  1.00  0.00     0.275 HD
ENDBRANCH   2  27
BRANCH  15  31
HETATM   31  N6  UNL     1      25.633  16.667  63.396  1.00  0.00    -0.067 N
ATOM     32  H63 UNL     1      26.290  16.008  63.811  1.00  0.00     0.275 HD
ATOM     33  H62 UNL     1      25.528  17.297  64.191  1.00  0.00     0.275 HD
ATOM     34  H61 UNL     1      24.751  16.220  63.145  1.00  0.00     0.275 HD
ENDBRANCH  15  31
TORSDOF 9
ENDMDL