MODEL 5
REMARK VINA RESULT: -6.448432893      2.304      5.887
REMARK  8 active torsions:
REMARK  status: ('A' for Active; 'I' for Inactive)
REMARK    1  A    between atoms: N1_2  and  C2_4
REMARK    2  A    between atoms: C4_10  and  N4_11
REMARK    3  A    between atoms: N6_21  and  C8_22
REMARK    4  A    between atoms: C8_22  and  C9_23
REMARK    5  A    between atoms: C9_23  and  N7_24
REMARK    6  A    between atoms: N7_24  and  C10_27
REMARK    7  A    between atoms: C10_27  and  C11_28
REMARK    8  A    between atoms: C11_28  and  N8_29
ROOT
HETATM    1  C2  UNL     1      27.252  17.101  60.149  1.00  0.00     0.688 A
HETATM    2  N2  UNL     1      27.629  18.327  60.689  1.00  0.00    -0.174 N
ATOM      3  H2  UNL     1      27.364  19.184  60.204  1.00  0.00     0.186 HD
HETATM    4  C3  UNL     1      28.329  18.414  61.823  1.00  0.00     0.158 A
HETATM    5  N3  UNL     1      28.695  19.625  62.333  1.00  0.00    -0.175 N
ATOM      6  H3  UNL     1      28.429  20.480  61.845  1.00  0.00     0.186 HD
HETATM    7  C4  UNL     1      29.394  19.703  63.461  1.00  0.00     0.680 A
HETATM    8  N5  UNL     1      29.765  18.595  64.139  1.00  0.00    -0.155 N
ATOM      9  H5  UNL     1      30.302  18.687  65.002  1.00  0.00     0.187 HD
HETATM   10  C5  UNL     1      29.431  17.354  63.680  1.00  0.00     0.279 A
HETATM   11  O1  UNL     1      29.792  16.332  64.333  1.00  0.00    -0.266 OA
HETATM   12  C6  UNL     1      28.709  17.283  62.514  1.00  0.00     0.146 A
HETATM   13  C7  UNL     1      28.344  16.074  61.996  1.00  0.00     0.281 A
HETATM   14  O2  UNL     1      28.687  15.015  62.620  1.00  0.00    -0.266 OA
HETATM   15  N6  UNL     1      27.631  16.014  60.836  1.00  0.00    -0.145 N
ENDROOT
BRANCH  15  16
HETATM   16  C8  UNL     1      27.293  14.699  60.352  1.00  0.00     0.178 C
BRANCH  16  17
HETATM   17  C9  UNL     1      26.149  14.080  61.106  1.00  0.00     0.253 C
BRANCH  17  18
HETATM   18  N7  UNL     1      24.924  14.360  60.403  1.00  0.00    -0.072 N
ATOM     19  H72 UNL     1      25.058  15.086  59.700  1.00  0.00     0.277 HD
ATOM     20  H71 UNL     1      24.665  13.587  59.790  1.00  0.00     0.277 HD
BRANCH  18  21
HETATM   21  C10 UNL     1      23.843  14.698  61.310  1.00  0.00     0.259 C
BRANCH  21  22
HETATM   22  C11 UNL     1      24.221  15.942  62.133  1.00  0.00     0.257 C
BRANCH  22  23
HETATM   23  N8  UNL     1      23.776  17.068  61.295  1.00  0.00    -0.078 N
ATOM     24  H83 UNL     1      23.009  16.843  60.661  1.00  0.00     0.274 HD
ATOM     25  H82 UNL     1      23.284  17.802  61.805  1.00  0.00     0.274 HD
ATOM     26  H81 UNL     1      24.629  17.379  60.830  1.00  0.00     0.274 HD
ENDBRANCH  22  23
ENDBRANCH  21  22
ENDBRANCH  18  21
ENDBRANCH  17  18
ENDBRANCH  16  17
ENDBRANCH  15  16
BRANCH   1  27
HETATM   27  N1  UNL     1      26.614  17.158  59.107  1.00  0.00    -0.211 N
HETATM   28  C1  UNL     1      26.408  17.248  57.789  1.00  0.00     0.137 C
ATOM     29  H1  UNL     1      25.657  17.103  59.456  1.00  0.00     0.182 HD
ENDBRANCH   1  27
BRANCH   7  30
HETATM   30  N4  UNL     1      29.727  20.886  63.918  1.00  0.00    -0.234 N
ATOM     31  H42 UNL     1      30.419  20.963  64.663  1.00  0.00     0.174 HD
ATOM     32  H41 UNL     1      29.286  21.712  63.514  1.00  0.00     0.174 HD
ENDBRANCH   7  30
TORSDOF 8
ENDMDL