MODEL 3
REMARK VINA RESULT: -6.360747376      2.851      5.735
REMARK  10 active torsions:
REMARK  status: ('A' for Active; 'I' for Inactive)
REMARK    1  A    between atoms: O1_2  and  C2_3
REMARK    2  A    between atoms: C3_6  and  N2_7
REMARK    3  A    between atoms: N2_7  and  C4_9
REMARK    4  A    between atoms: C4_9  and  C5_10
REMARK    5  A    between atoms: C5_10  and  N3_11
REMARK    6  A    between atoms: C7_20  and  N6_21
REMARK    7  A    between atoms: C8_26  and  N8_27
REMARK    8  A    between atoms: N8_27  and  C9_29
REMARK    9  A    between atoms: C9_29  and  C10_30
REMARK   10  A    between atoms: C10_30  and  O2_31
ROOT
HETATM    1  C2  UNL     1      26.557  19.030  62.835  1.00  0.00     0.175 A
HETATM    2  N1  UNL     1      25.626  18.366  62.125  1.00  0.00    -0.170 N
ATOM      3  H1  UNL     1      24.651  18.656  62.206  1.00  0.00     0.186 HD
HETATM    4  C3  UNL     1      25.929  17.337  61.314  1.00  0.00     0.681 A
HETATM    5  N4  UNL     1      27.215  16.973  61.222  1.00  0.00    -0.175 N
ATOM      6  H4  UNL     1      27.466  16.194  60.611  1.00  0.00     0.186 HD
HETATM    7  C6  UNL     1      28.195  17.606  61.914  1.00  0.00     0.154 A
HETATM    8  N5  UNL     1      29.486  17.223  61.808  1.00  0.00    -0.175 N
ATOM      9  H5  UNL     1      29.719  16.443  61.195  1.00  0.00     0.186 HD
HETATM   10  C7  UNL     1      30.482  17.836  62.486  1.00  0.00     0.679 A
HETATM   11  N7  UNL     1      30.154  18.868  63.296  1.00  0.00    -0.176 N
ATOM     12  H7  UNL     1      30.895  19.339  63.814  1.00  0.00     0.186 HD
HETATM   13  C8  UNL     1      28.888  19.299  63.446  1.00  0.00     0.135 A
HETATM   14  C11 UNL     1      27.872  18.660  62.742  1.00  0.00     0.105 A
ENDROOT
BRANCH   4  15
HETATM   15  N2  UNL     1      24.982  16.763  60.676  1.00  0.00    -0.224 N
ATOM     16  H2  UNL     1      25.058  16.765  59.659  1.00  0.00     0.177 HD
BRANCH  15  17
HETATM   17  C4  UNL     1      23.837  16.123  61.218  1.00  0.00     0.165 C
BRANCH  17  18
HETATM   18  C5  UNL     1      24.019  14.643  61.450  1.00  0.00     0.249 C
BRANCH  18  19
HETATM   19  N3  UNL     1      24.916  14.112  60.438  1.00  0.00    -0.078 N
ATOM     20  H33 UNL     1      24.460  13.427  59.837  1.00  0.00     0.274 HD
ATOM     21  H32 UNL     1      25.144  14.801  59.722  1.00  0.00     0.274 HD
ATOM     22  H31 UNL     1      25.747  13.737  60.895  1.00  0.00     0.274 HD
ENDBRANCH  18  19
ENDBRANCH  17  18
ENDBRANCH  15  17
ENDBRANCH   4  15
BRANCH   1  23
HETATM   23  O1  UNL     1      26.247  20.096  63.676  1.00  0.00    -0.340 OA
HETATM   24  C1  UNL     1      25.214  20.084  64.616  1.00  0.00     0.211 C
ENDBRANCH   1  23
BRANCH  13  25
HETATM   25  N8  UNL     1      28.568  20.285  64.219  1.00  0.00    -0.373 N
ATOM     26  H8  UNL     1      27.617  20.656  64.215  1.00  0.00     0.161 HD
BRANCH  25  27
HETATM   27  C9  UNL     1      29.564  20.853  65.081  1.00  0.00     0.147 C
BRANCH  27  28
HETATM   28  C10 UNL     1      28.904  21.730  66.130  1.00  0.00     0.183 C
BRANCH  28  29
HETATM   29  O2  UNL     1      28.646  23.006  65.630  1.00  0.00    -0.399 OA
ATOM     30  H2  UNL     1      29.430  23.392  65.257  1.00  0.00     0.209 HD
ENDBRANCH  28  29
ENDBRANCH  27  28
ENDBRANCH  25  27
ENDBRANCH  13  25
BRANCH  10  31
HETATM   31  N6  UNL     1      31.702  17.423  62.343  1.00  0.00    -0.234 N
ATOM     32  H62 UNL     1      31.942  16.435  62.268  1.00  0.00     0.174 HD
ATOM     33  H61 UNL     1      32.462  18.103  62.302  1.00  0.00     0.174 HD
ENDBRANCH  10  31
TORSDOF 10
ENDMDL