MODEL 3
REMARK VINA RESULT: -7.088479855      2.427      4.934
REMARK  7 active torsions:
REMARK  status: ('A' for Active; 'I' for Inactive)
REMARK    1  A    between atoms: N1_1  and  C1_4
REMARK    2  A    between atoms: N5_15  and  C5_17
REMARK    3  A    between atoms: C5_17  and  C6_18
REMARK    4  A    between atoms: C6_18  and  N6_19
REMARK    5  A    between atoms: C7_25  and  O2_26
REMARK    6  A    between atoms: O2_26  and  C8_27
REMARK    7  A    between atoms: C8_27  and  C9_28
ROOT
HETATM    1  C1  UNL     1      24.558  15.882  62.272  1.00  0.00     0.114 A
HETATM    2  C2  UNL     1      24.500  14.943  61.258  1.00  0.00     0.287 A
HETATM    3  O1  UNL     1      23.405  14.345  61.091  1.00  0.00    -0.264 OA
HETATM    4  N2  UNL     1      25.591  14.705  60.499  1.00  0.00    -0.263 N
ATOM      5  H2  UNL     1      25.537  14.010  59.754  1.00  0.00     0.190 HD
HETATM    6  N3  UNL     1      26.737  15.355  60.700  1.00  0.00    -0.281 N
ATOM      7  H3  UNL     1      27.540  15.147  60.106  1.00  0.00     0.188 HD
HETATM    8  C3  UNL     1      26.857  16.286  61.678  1.00  0.00     0.152 A
HETATM    9  N4  UNL     1      28.036  16.913  61.839  1.00  0.00    -0.174 N
ATOM     10  H4  UNL     1      28.832  16.698  61.239  1.00  0.00     0.186 HD
HETATM   11  C4  UNL     1      28.131  17.830  62.813  1.00  0.00     0.681 A
HETATM   12  N5  UNL     1      29.201  18.480  63.049  1.00  0.00    -0.224 N
ATOM     13  H5  UNL     1      29.195  19.162  63.808  1.00  0.00     0.177 HD
HETATM   14  N7  UNL     1      27.054  18.110  63.613  1.00  0.00    -0.170 N
ATOM     15  H7  UNL     1      27.157  18.812  64.345  1.00  0.00     0.186 HD
HETATM   16  C7  UNL     1      25.881  17.501  63.470  1.00  0.00     0.174 A
HETATM   17  C10 UNL     1      25.766  16.558  62.476  1.00  0.00     0.093 A
ENDROOT
BRANCH  12  18
HETATM   18  C5  UNL     1      30.398  18.303  62.311  1.00  0.00     0.165 C
BRANCH  18  19
HETATM   19  C6  UNL     1      31.407  17.478  63.108  1.00  0.00     0.249 C
BRANCH  19  20
HETATM   20  N6  UNL     1      32.510  17.173  62.215  1.00  0.00    -0.078 N
ATOM     21  H63 UNL     1      32.493  17.722  61.356  1.00  0.00     0.274 HD
ATOM     22  H62 UNL     1      33.410  17.503  62.563  1.00  0.00     0.274 HD
ATOM     23  H61 UNL     1      32.492  16.167  62.047  1.00  0.00     0.274 HD
ENDBRANCH  19  20
ENDBRANCH  18  19
ENDBRANCH  12  18
BRANCH  16  24
HETATM   24  O2  UNL     1      24.771  17.761  64.260  1.00  0.00    -0.326 OA
BRANCH  24  25
HETATM   25  C8  UNL     1      24.898  18.745  65.269  1.00  0.00     0.276 C
BRANCH  25  26
HETATM   26  C9  UNL     1      24.070  19.917  64.891  1.00  0.00     0.255 C
HETATM   27  N8  UNL     1      22.674  19.779  65.040  1.00  0.00    -0.060 NA
HETATM   28  O3  UNL     1      24.522  21.002  64.458  1.00  0.00    -0.274 OA
ENDBRANCH  25  26
ENDBRANCH  24  25
ENDBRANCH  16  24
BRANCH   1  29
HETATM   29  N1  UNL     1      23.556  16.134  63.006  1.00  0.00    -0.394 N
ATOM     30  H12 UNL     1      22.613  16.077  62.623  1.00  0.00     0.156 HD
ATOM     31  H11 UNL     1      23.661  16.398  63.986  1.00  0.00     0.156 HD
ENDBRANCH   1  29
TORSDOF 7
ENDMDL