MODEL 2
REMARK VINA RESULT: -6.505962570      2.731      5.842
REMARK  9 active torsions:
REMARK  status: ('A' for Active; 'I' for Inactive)
REMARK    1  A    between atoms: N1_1  and  C1_4
REMARK    2  A    between atoms: C2_7  and  N3_8
REMARK    3  A    between atoms: N3_8  and  C3_10
REMARK    4  A    between atoms: C3_10  and  C4_11
REMARK    5  A    between atoms: C4_11  and  O1_12
REMARK    6  A    between atoms: N5_21  and  C8_22
REMARK    7  A    between atoms: C8_22  and  C9_23
REMARK    8  A    between atoms: C9_23  and  C10_24
REMARK    9  A    between atoms: C10_24  and  N6_25
ROOT
HETATM    1  C1  UNL     1      27.892  18.368  61.645  1.00  0.00     0.679 A
HETATM    2  N2  UNL     1      27.550  17.405  60.770  1.00  0.00    -0.176 N
ATOM      3  H2  UNL     1      28.161  17.165  59.989  1.00  0.00     0.186 HD
HETATM    4  C2  UNL     1      26.379  16.770  60.955  1.00  0.00     0.136 A
HETATM    5  C5  UNL     1      25.538  17.098  62.027  1.00  0.00     0.121 A
HETATM    6  C6  UNL     1      24.338  16.442  62.219  1.00  0.00     0.267 A
HETATM    7  O2  UNL     1      24.005  15.541  61.411  1.00  0.00    -0.267 OA
HETATM    8  N4  UNL     1      23.543  16.779  63.274  1.00  0.00    -0.274 N
ATOM      9  H4  UNL     1      22.657  16.293  63.414  1.00  0.00     0.173 HD
HETATM   10  C7  UNL     1      23.914  17.744  64.127  1.00  0.00     0.331 A
HETATM   11  O3  UNL     1      23.160  18.033  65.090  1.00  0.00    -0.246 OA
HETATM   12  N5  UNL     1      25.097  18.401  63.948  1.00  0.00    -0.284 N
HETATM   13  C11 UNL     1      25.904  18.085  62.912  1.00  0.00     0.146 A
HETATM   14  N7  UNL     1      27.076  18.688  62.689  1.00  0.00    -0.175 N
ATOM     15  H7  UNL     1      27.374  19.424  63.330  1.00  0.00     0.186 HD
ENDROOT
BRANCH  12  16
HETATM   16  C8  UNL     1      25.460  19.417  64.876  1.00  0.00     0.137 C
BRANCH  16  17
HETATM   17  C9  UNL     1      26.314  18.946  66.015  1.00  0.00     0.048 C
BRANCH  17  18
HETATM   18  C10 UNL     1      25.515  19.106  67.304  1.00  0.00     0.231 C
BRANCH  18  19
HETATM   19  N6  UNL     1      24.767  17.934  67.639  1.00  0.00    -0.079 N
ATOM     20  H63 UNL     1      23.959  18.168  68.214  1.00  0.00     0.274 HD
ATOM     21  H62 UNL     1      24.286  17.562  66.820  1.00  0.00     0.274 HD
ATOM     22  H61 UNL     1      25.338  17.217  68.085  1.00  0.00     0.274 HD
ENDBRANCH  18  19
ENDBRANCH  17  18
ENDBRANCH  16  17
ENDBRANCH  12  16
BRANCH   4  23
HETATM   23  N3  UNL     1      25.967  15.837  60.171  1.00  0.00    -0.373 N
ATOM     24  H3  UNL     1      25.032  15.926  59.773  1.00  0.00     0.161 HD
BRANCH  23  25
HETATM   25  C3  UNL     1      26.741  14.675  59.820  1.00  0.00     0.147 C
BRANCH  25  26
HETATM   26  C4  UNL     1      27.006  13.821  61.059  1.00  0.00     0.183 C
BRANCH  26  27
HETATM   27  O1  UNL     1      25.802  13.275  61.502  1.00  0.00    -0.399 OA
ATOM     28  H1  UNL     1      25.229  13.977  61.784  1.00  0.00     0.209 HD
ENDBRANCH  26  27
ENDBRANCH  25  26
ENDBRANCH  23  25
ENDBRANCH   4  23
BRANCH   1  29
HETATM   29  N1  UNL     1      29.009  18.983  61.481  1.00  0.00    -0.234 N
ATOM     30  H12 UNL     1      29.893  18.485  61.588  1.00  0.00     0.174 HD
ATOM     31  H11 UNL     1      28.991  19.974  61.241  1.00  0.00     0.174 HD
ENDBRANCH   1  29
TORSDOF 9
ENDMDL