MODEL 2
REMARK VINA RESULT: -6.131408415      1.181      3.309
REMARK  8 active torsions:
REMARK  status: ('A' for Active; 'I' for Inactive)
REMARK    1  A    between atoms: N1_2  and  C2_4
REMARK    2  A    between atoms: C3_7  and  N3_8
REMARK    3  A    between atoms: C6_13  and  N5_14
REMARK    4  A    between atoms: N5_14  and  N6_16
REMARK    5  A    between atoms: N6_16  and  C7_18
REMARK    6  A    between atoms: C7_18  and  C8_19
REMARK    7  A    between atoms: C8_19  and  N7_20
REMARK    8  A    between atoms: N7_20  and  C9_22
ROOT
HETATM    1  C2  UNL     1      27.240  19.832  61.597  1.00  0.00     0.706 A
HETATM    2  N2  UNL     1      28.249  20.109  62.444  1.00  0.00    -0.021 N
ATOM      3  H2  UNL     1      29.100  20.529  62.071  1.00  0.00     0.203 HD
HETATM    4  C3  UNL     1      28.178  19.853  63.763  1.00  0.00     0.708 A
HETATM    5  N4  UNL     1      27.031  19.298  64.203  1.00  0.00    -0.020 N
ATOM      6  H4  UNL     1      26.931  19.085  65.195  1.00  0.00     0.203 HD
HETATM    7  C6  UNL     1      26.009  19.015  63.362  1.00  0.00     0.725 A
HETATM    8  N9  UNL     1      26.098  19.278  62.045  1.00  0.00    -0.020 N
ATOM      9  H9  UNL     1      25.330  19.064  61.410  1.00  0.00     0.203 HD
ENDROOT
BRANCH   7  10
HETATM   10  N5  UNL     1      24.920  18.486  63.806  1.00  0.00    -0.135 N
ATOM     11  H5  UNL     1      24.699  18.633  64.791  1.00  0.00     0.205 HD
BRANCH  10  12
HETATM   12  N6  UNL     1      24.033  17.740  63.069  1.00  0.00    -0.321 N
ATOM     13  H6  UNL     1      23.194  18.208  62.728  1.00  0.00     0.180 HD
BRANCH  12  14
HETATM   14  C7  UNL     1      24.196  16.348  62.741  1.00  0.00     0.159 C
BRANCH  14  15
HETATM   15  C8  UNL     1      24.066  16.091  61.258  1.00  0.00     0.143 C
BRANCH  15  16
HETATM   16  N7  UNL     1      25.261  16.454  60.542  1.00  0.00    -0.368 N
ATOM     17  H7  UNL     1      25.241  17.236  59.886  1.00  0.00     0.161 HD
BRANCH  16  18
HETATM   18  C9  UNL     1      26.461  15.737  60.739  1.00  0.00     0.181 C
HETATM   19  N8  UNL     1      27.481  16.295  61.554  1.00  0.00    -0.070 NA
HETATM   20  S1  UNL     1      26.749  14.278  60.070  1.00  0.00    -0.044 SA
ENDBRANCH  16  18
ENDBRANCH  15  16
ENDBRANCH  14  15
ENDBRANCH  12  14
ENDBRANCH  10  12
ENDBRANCH   7  10
BRANCH   4  21
HETATM   21  N3  UNL     1      29.257  20.151  64.655  1.00  0.00    -0.225 N
HETATM   22  C4  UNL     1      30.372  19.287  64.900  1.00  0.00     0.168 C
HETATM   23  C5  UNL     1      29.204  21.423  65.353  1.00  0.00     0.168 C
ENDBRANCH   4  21
BRANCH   1  24
HETATM   24  N1  UNL     1      27.303  20.073  60.332  1.00  0.00    -0.229 N
HETATM   25  C1  UNL     1      27.806  19.018  59.475  1.00  0.00     0.165 C
ATOM     26  H1  UNL     1      27.009  20.971  59.948  1.00  0.00     0.177 HD
ENDBRANCH   1  24
TORSDOF 8
ENDMDL