MODEL 2
REMARK VINA RESULT: -6.575035030      1.235      1.359
REMARK  9 active torsions:
REMARK  status: ('A' for Active; 'I' for Inactive)
REMARK    1  A    between atoms: N1_1  and  C1_4
REMARK    2  A    between atoms: C2_7  and  N3_8
REMARK    3  A    between atoms: N3_8  and  N4_10
REMARK    4  A    between atoms: N6_18  and  C6_19
REMARK    5  A    between atoms: C6_19  and  O2_20
REMARK    6  A    between atoms: O2_20  and  C7_21
REMARK    7  A    between atoms: C7_21  and  C8_22
REMARK    8  A    between atoms: C8_22  and  C9_23
REMARK    9  A    between atoms: C9_23  and  O3_24
ROOT
HETATM    1  C1  UNL     1      24.173  17.014  63.234  1.00  0.00     0.705 A
HETATM    2  N2  UNL     1      23.681  16.064  62.421  1.00  0.00    -0.020 N
ATOM      3  H2  UNL     1      22.677  15.886  62.399  1.00  0.00     0.203 HD
HETATM    4  C2  UNL     1      24.493  15.353  61.643  1.00  0.00     0.735 A
HETATM    5  N5  UNL     1      25.824  15.575  61.661  1.00  0.00     0.062 N
HETATM    6  C3  UNL     1      26.589  14.815  60.848  1.00  0.00     0.285 A
HETATM    7  O1  UNL     1      26.088  13.939  60.105  1.00  0.00    -0.266 OA
HETATM    8  C4  UNL     1      27.934  15.034  60.862  1.00  0.00     0.094 A
HETATM    9  C5  UNL     1      28.437  16.006  61.694  1.00  0.00     0.117 A
HETATM   10  N6  UNL     1      27.675  16.770  62.510  1.00  0.00    -0.170 N
HETATM   11  C10 UNL     1      26.352  16.526  62.469  1.00  0.00     0.725 A
HETATM   12  N7  UNL     1      25.505  17.221  63.236  1.00  0.00    -0.021 N
ATOM     13  H7  UNL     1      25.885  17.941  63.850  1.00  0.00     0.203 HD
ENDROOT
BRANCH  10  14
HETATM   14  C6  UNL     1      28.263  17.785  63.361  1.00  0.00     0.316 C
BRANCH  14  15
HETATM   15  O2  UNL     1      27.890  19.058  62.981  1.00  0.00    -0.371 OA
BRANCH  15  16
HETATM   16  C7  UNL     1      27.979  19.996  63.968  1.00  0.00     0.172 C
BRANCH  16  17
HETATM   17  C8  UNL     1      27.286  19.607  65.249  1.00  0.00     0.052 C
BRANCH  17  18
HETATM   18  C9  UNL     1      25.846  20.133  65.235  1.00  0.00     0.166 C
BRANCH  18  19
HETATM   19  O3  UNL     1      25.385  20.228  63.926  1.00  0.00    -0.401 OA
ATOM     20  H3  UNL     1      24.444  20.102  63.902  1.00  0.00     0.209 HD
ENDBRANCH  18  19
ENDBRANCH  17  18
ENDBRANCH  16  17
ENDBRANCH  15  16
ENDBRANCH  14  15
ENDBRANCH  10  14
BRANCH   4  21
HETATM   21  N3  UNL     1      24.013  14.437  60.859  1.00  0.00    -0.137 N
ATOM     22  H3  UNL     1      24.361  14.346  59.904  1.00  0.00     0.205 HD
BRANCH  21  23
HETATM   23  N4  UNL     1      23.019  13.575  61.329  1.00  0.00    -0.331 N
ATOM     24  H42 UNL     1      22.376  13.903  62.051  1.00  0.00     0.177 HD
ATOM     25  H41 UNL     1      22.946  12.631  60.948  1.00  0.00     0.177 HD
ENDBRANCH  21  23
ENDBRANCH   4  21
BRANCH   1  26
HETATM   26  N1  UNL     1      23.391  17.728  64.010  1.00  0.00    -0.234 N
ATOM     27  H12 UNL     1      22.665  18.318  63.604  1.00  0.00     0.174 HD
ATOM     28  H11 UNL     1      23.487  17.713  65.025  1.00  0.00     0.174 HD
ENDBRANCH   1  26
TORSDOF 9
ENDMDL