MODEL 1
REMARK VINA RESULT: -6.901522951      0.000      0.000
REMARK  6 active torsions:
REMARK  status: ('A' for Active; 'I' for Inactive)
REMARK    1  A    between atoms: N1_2  and  C3_5
REMARK    2  A    between atoms: C3_5  and  C4_6
REMARK    3  A    between atoms: C4_6  and  N3_7
REMARK    4  A    between atoms: N3_7  and  S1_9
REMARK    5  A    between atoms: S1_9  and  C5_12
REMARK    6  A    between atoms: C7_17  and  N6_18
ROOT
HETATM    1  C1  UNL     1      31.983  17.156  62.269  1.00  0.00     0.168 C
HETATM    2  N1  UNL     1      30.562  17.428  62.279  1.00  0.00    -0.302 N
HETATM    3  C2  UNL     1      29.706  16.423  62.755  1.00  0.00     0.183 C
HETATM    4  N2  UNL     1      28.926  15.601  62.989  1.00  0.00    -0.172 NA
ENDROOT
BRANCH   2   5
HETATM    5  C3  UNL     1      30.130  18.682  61.947  1.00  0.00     0.095 C
BRANCH   5   6
HETATM    6  C4  UNL     1      29.025  19.396  62.772  1.00  0.00     0.177 C
BRANCH   6   7
HETATM    7  N3  UNL     1      27.852  19.434  61.894  1.00  0.00    -0.310 N
ATOM      8  H3  UNL     1      27.795  19.771  60.933  1.00  0.00     0.172 HD
BRANCH   7   9
HETATM    9  S1  UNL     1      26.579  18.772  62.873  1.00  0.00     0.266 S
HETATM   10  O1  UNL     1      25.613  19.963  63.128  1.00  0.00    -0.200 OA
HETATM   11  O2  UNL     1      27.135  18.322  64.207  1.00  0.00    -0.200 OA
BRANCH   9  12
HETATM   12  C5  UNL     1      25.665  17.414  62.291  1.00  0.00     0.164 C
HETATM   13  C6  UNL     1      25.955  16.870  61.163  1.00  0.00     0.159 C
HETATM   14  N4  UNL     1      27.038  17.507  60.367  1.00  0.00    -0.080 NA
HETATM   15  N5  UNL     1      25.281  15.939  60.596  1.00  0.00    -0.177 N
HETATM   16  C7  UNL     1      24.143  15.486  61.230  1.00  0.00     0.678 C
ATOM     17  H5  UNL     1      25.577  15.544  59.703  1.00  0.00     0.185 HD
HETATM   18  N7  UNL     1      23.748  16.168  62.332  1.00  0.00    -0.176 N
HETATM   19  C8  UNL     1      24.509  17.155  62.928  1.00  0.00     0.141 C
ATOM     20  H7  UNL     1      22.842  15.942  62.743  1.00  0.00     0.186 HD
HETATM   21  N8  UNL     1      24.112  17.737  64.003  1.00  0.00    -0.384 N
ATOM     22  H82 UNL     1      24.674  18.466  64.442  1.00  0.00     0.157 HD
ATOM     23  H81 UNL     1      23.235  17.540  64.486  1.00  0.00     0.157 HD
BRANCH  16  24
HETATM   24  N6  UNL     1      23.630  14.389  60.803  1.00  0.00    -0.234 N
ATOM     25  H62 UNL     1      23.507  14.132  59.824  1.00  0.00     0.174 HD
ATOM     26  H61 UNL     1      23.218  13.766  61.497  1.00  0.00     0.174 HD
ENDBRANCH  16  24
ENDBRANCH   9  12
ENDBRANCH   7   9
ENDBRANCH   6   7
ENDBRANCH   5   6
ENDBRANCH   2   5
TORSDOF 6
ENDMDL