MODEL 4
REMARK VINA RESULT: -7.311532530      3.477      5.943
REMARK  6 active torsions:
REMARK  status: ('A' for Active; 'I' for Inactive)
REMARK    1  A    between atoms: C1_2  and  N1_3
REMARK    2  A    between atoms: N1_3  and  N2_5
REMARK    3  A    between atoms: C4_17  and  C5_18
REMARK    4  A    between atoms: C5_18  and  N7_19
REMARK    5  A    between atoms: N7_19  and  C6_22
REMARK    6  A    between atoms: C6_22  and  C7_23
ROOT
HETATM    1  N2  UNL     1      24.840  16.754  63.193  1.00  0.00    -0.284 N
ATOM      2  H2  UNL     1      25.784  16.460  62.940  1.00  0.00     0.188 HD
HETATM    3  C2  UNL     1      24.670  17.884  63.782  1.00  0.00     0.134 C
HETATM    4  N3  UNL     1      23.319  18.231  64.105  1.00  0.00    -0.270 N
ATOM      5  H3  UNL     1      22.620  17.568  63.771  1.00  0.00     0.185 HD
HETATM    6  N4  UNL     1      22.793  19.328  64.800  1.00  0.00    -0.017 NA
HETATM    7  N5  UNL     1      23.469  19.564  65.980  1.00  0.00    -0.235 N
ATOM      8  H5  UNL     1      22.897  19.942  66.736  1.00  0.00     0.189 HD
HETATM    9  C3  UNL     1      24.831  19.364  66.306  1.00  0.00     0.333 C
HETATM   10  O2  UNL     1      25.146  19.656  67.482  1.00  0.00    -0.246 OA
HETATM   11  N6  UNL     1      25.914  18.882  65.518  1.00  0.00    -0.329 N
ATOM     12  H6  UNL     1      26.782  18.646  65.998  1.00  0.00     0.165 HD
HETATM   13  C4  UNL     1      25.866  18.703  64.063  1.00  0.00     0.182 C
ENDROOT
BRANCH  13  14
HETATM   14  C5  UNL     1      27.076  17.925  63.654  1.00  0.00     0.265 C
BRANCH  14  15
HETATM   15  N7  UNL     1      27.703  18.446  62.451  1.00  0.00    -0.069 N
ATOM     16  H72 UNL     1      27.036  18.729  61.735  1.00  0.00     0.277 HD
ATOM     17  H71 UNL     1      28.139  19.359  62.583  1.00  0.00     0.277 HD
BRANCH  15  18
HETATM   18  C6  UNL     1      28.636  17.414  62.003  1.00  0.00     0.272 C
BRANCH  18  19
HETATM   19  C7  UNL     1      27.971  16.307  61.313  1.00  0.00    -0.017 A
HETATM   20  C8  UNL     1      28.071  14.982  61.689  1.00  0.00     0.011 A
HETATM   21  C9  UNL     1      27.409  13.976  60.986  1.00  0.00     0.018 A
HETATM   22  C10 UNL     1      26.633  14.288  59.890  1.00  0.00     0.087 A
HETATM   23  N8  UNL     1      26.548  15.583  59.539  1.00  0.00    -0.375 N
HETATM   24  C11 UNL     1      27.181  16.570  60.207  1.00  0.00     0.096 A
ATOM     25  H8  UNL     1      25.978  15.832  58.730  1.00  0.00     0.164 HD
ENDBRANCH  18  19
ENDBRANCH  15  18
ENDBRANCH  14  15
ENDBRANCH  13  14
BRANCH   1  26
HETATM   26  N1  UNL     1      23.773  15.930  62.894  1.00  0.00    -0.276 N
ATOM     27  H1  UNL     1      22.867  16.111  63.326  1.00  0.00     0.189 HD
BRANCH  26  28
HETATM   28  C1  UNL     1      23.912  14.831  61.996  1.00  0.00     0.368 C
HETATM   29  O1  UNL     1      23.351  13.729  62.293  1.00  0.00    -0.282 OA
ENDBRANCH  26  28
ENDBRANCH   1  26
TORSDOF 6
ENDMDL