MODEL 5
REMARK VINA RESULT: -7.497796295      2.397      5.592
REMARK  4 active torsions:
REMARK  status: ('A' for Active; 'I' for Inactive)
REMARK       I    between atoms: N1_1  and  C1_5
REMARK       I    between atoms: C1_5  and  N2_6
REMARK       I    between atoms: C1_5  and  N3_10
REMARK    1  A    between atoms: N3_10  and  C2_12
REMARK    2  A    between atoms: C2_12  and  C3_13
REMARK    3  A    between atoms: C3_13  and  C4_14
REMARK    4  A    between atoms: C4_14  and  N4_15
ROOT
HETATM    1  N4  UNL     1      27.179  17.732  60.932  1.00  0.00    -0.254 N
HETATM    2  N5  UNL     1      27.478  16.677  60.197  1.00  0.00    -0.259 N
ATOM      3  H5  UNL     1      28.282  16.728  59.573  1.00  0.00     0.190 HD
HETATM    4  C5  UNL     1      26.774  15.552  60.238  1.00  0.00     0.288 A
HETATM    5  O1  UNL     1      27.019  14.533  59.562  1.00  0.00    -0.264 OA
HETATM    6  C6  UNL     1      25.680  15.495  61.095  1.00  0.00     0.127 A
HETATM    7  N6  UNL     1      24.914  14.399  61.202  1.00  0.00    -0.303 N
ATOM      8  H6  UNL     1      25.132  13.576  60.640  1.00  0.00     0.171 HD
HETATM    9  C7  UNL     1      23.850  14.369  62.049  1.00  0.00     0.327 A
HETATM   10  O2  UNL     1      23.181  13.299  62.088  1.00  0.00    -0.247 OA
HETATM   11  N7  UNL     1      23.522  15.429  62.811  1.00  0.00    -0.275 N
ATOM     12  H7  UNL     1      22.719  15.383  63.438  1.00  0.00     0.173 HD
HETATM   13  C8  UNL     1      24.260  16.548  62.738  1.00  0.00     0.267 A
HETATM   14  O3  UNL     1      23.972  17.548  63.439  1.00  0.00    -0.267 OA
HETATM   15  C9  UNL     1      25.349  16.594  61.878  1.00  0.00     0.134 A
HETATM   16  C10 UNL     1      26.134  17.723  61.773  1.00  0.00     0.280 A
HETATM   17  O4  UNL     1      25.825  18.704  62.483  1.00  0.00    -0.265 OA
ENDROOT
BRANCH   1  18
HETATM   18  C4  UNL     1      28.009  18.918  60.818  1.00  0.00     0.158 C
BRANCH  18  19
HETATM   19  C3  UNL     1      29.310  18.675  61.623  1.00  0.00     0.066 C
BRANCH  19  20
HETATM   20  C2  UNL     1      29.467  19.716  62.682  1.00  0.00     0.060 C
BRANCH  20  21
HETATM   21  N3  UNL     1      28.283  19.994  63.377  1.00  0.00    -0.354 N
HETATM   22  C1  UNL     1      28.124  19.519  64.689  1.00  0.00     0.479 C
HETATM   23  N1  UNL     1      26.887  20.169  65.211  1.00  0.00    -0.033 N
HETATM   24  N2  UNL     1      27.959  18.080  64.837  1.00  0.00    -0.033 N
ATOM     25  H13 UNL     1      26.037  19.820  64.769  1.00  0.00     0.278 HD
ATOM     26  H12 UNL     1      26.665  19.891  66.167  1.00  0.00     0.278 HD
ATOM     27  H11 UNL     1      27.003  21.177  65.107  1.00  0.00     0.278 HD
ATOM     28  H23 UNL     1      27.737  17.802  65.793  1.00  0.00     0.278 HD
ATOM     29  H22 UNL     1      27.109  17.731  64.395  1.00  0.00     0.278 HD
ATOM     30  H21 UNL     1      28.805  17.635  64.480  1.00  0.00     0.278 HD
ATOM     31  H3  UNL     1      27.543  20.537  62.933  1.00  0.00     0.162 HD
ENDBRANCH  20  21
ENDBRANCH  19  20
ENDBRANCH  18  19
ENDBRANCH   1  18
TORSDOF 4
ENDMDL