MODEL 5
REMARK VINA RESULT: -7.355663105      1.536      3.097
REMARK  5 active torsions:
REMARK  status: ('A' for Active; 'I' for Inactive)
REMARK    1  A    between atoms: C2_3  and  N2_4
REMARK    2  A    between atoms: N5_12  and  C5_14
REMARK    3  A    between atoms: C5_14  and  C6_15
REMARK    4  A    between atoms: C6_15  and  C7_16
REMARK    5  A    between atoms: C7_16  and  N6_17
REMARK       I    between atoms: N6_17  and  C8_19
REMARK       I    between atoms: N9_25  and  C10_27
ROOT
HETATM    1  N1  UNL     1      24.573  21.083  64.566  1.00  0.00    -0.196 NA
HETATM    2  C1  UNL     1      24.667  20.030  65.050  1.00  0.00     0.079 C
HETATM    3  C2  UNL     1      24.795  18.687  65.641  1.00  0.00     0.259 C
ENDROOT
BRANCH   3   4
HETATM    4  N2  UNL     1      24.819  17.745  64.555  1.00  0.00    -0.268 N
HETATM    5  C3  UNL     1      23.734  17.504  63.836  1.00  0.00     0.343 A
HETATM    6  O1  UNL     1      22.656  18.111  64.104  1.00  0.00    -0.245 OA
HETATM    7  N3  UNL     1      23.704  16.636  62.814  1.00  0.00    -0.249 N
HETATM    8  N4  UNL     1      24.849  16.000  62.539  1.00  0.00    -0.279 N
ATOM      9  H3  UNL     1      22.854  16.469  62.276  1.00  0.00     0.192 HD
HETATM   10  C4  UNL     1      25.978  16.203  63.232  1.00  0.00     0.161 A
ATOM     11  H4  UNL     1      24.863  15.331  61.768  1.00  0.00     0.189 HD
HETATM   12  N5  UNL     1      27.055  15.585  62.913  1.00  0.00    -0.372 N
HETATM   13  C9  UNL     1      26.005  17.113  64.301  1.00  0.00     0.161 A
ATOM     14  H5  UNL     1      27.887  15.773  63.472  1.00  0.00     0.161 HD
HETATM   15  N9  UNL     1      27.008  17.367  64.992  1.00  0.00    -0.314 N
HETATM   16  C10 UNL     1      28.301  16.912  64.988  1.00  0.00     0.187 C
ATOM     17  H9  UNL     1      26.829  18.061  65.718  1.00  0.00     0.170 HD
HETATM   18  N10 UNL     1      29.219  17.325  64.141  1.00  0.00    -0.373 N
HETATM   19  N11 UNL     1      28.771  15.934  65.969  1.00  0.00    -0.064 NA
ATOM     20 2H10 UNL     1      28.891  18.006  63.456  1.00  0.00     0.158 HD
ATOM     21 1H10 UNL     1      30.182  16.986  64.137  1.00  0.00     0.158 HD
BRANCH  12  22
HETATM   22  C5  UNL     1      27.178  14.668  61.851  1.00  0.00     0.123 C
BRANCH  22  23
HETATM   23  C6  UNL     1      27.807  15.272  60.587  1.00  0.00     0.039 C
BRANCH  23  24
HETATM   24  C7  UNL     1      26.829  16.163  59.865  1.00  0.00     0.123 C
BRANCH  24  25
HETATM   25  N6  UNL     1      27.378  17.488  59.665  1.00  0.00    -0.365 N
HETATM   26  C8  UNL     1      27.724  18.328  60.745  1.00  0.00     0.181 C
HETATM   27  N7  UNL     1      26.833  19.064  61.287  1.00  0.00    -0.374 N
HETATM   28  N8  UNL     1      29.048  18.382  61.257  1.00  0.00    -0.064 NA
ATOM     29  H72 UNL     1      25.882  19.025  60.920  1.00  0.00     0.158 HD
ATOM     30  H71 UNL     1      27.083  19.670  62.068  1.00  0.00     0.158 HD
ATOM     31  H6  UNL     1      27.519  17.826  58.713  1.00  0.00     0.162 HD
ENDBRANCH  24  25
ENDBRANCH  23  24
ENDBRANCH  22  23
ENDBRANCH  12  22
ENDBRANCH   3   4
TORSDOF 5
ENDMDL