MODEL 4
REMARK VINA RESULT: -6.610504314      1.974      2.355
REMARK  7 active torsions:
REMARK  status: ('A' for Active; 'I' for Inactive)
REMARK    1  A    between atoms: N1_1  and  S1_4
REMARK    2  A    between atoms: S1_4  and  N2_7
REMARK    3  A    between atoms: N2_7  and  C1_9
REMARK    4  A    between atoms: C1_9  and  C2_10
REMARK    5  A    between atoms: C2_10  and  O3_11
REMARK    6  A    between atoms: O3_11  and  N3_12
REMARK    7  A    between atoms: C7_25  and  O5_26
ROOT
HETATM    1  N3  UNL     1      27.086  19.254  61.540  1.00  0.00    -0.265 N
ATOM      2  H3  UNL     1      27.726  19.780  60.946  1.00  0.00     0.194 HD
HETATM    3  C3  UNL     1      26.844  18.263  60.938  1.00  0.00     0.106 C
HETATM    4  C4  UNL     1      27.387  17.840  59.581  1.00  0.00     0.117 C
HETATM    5  N4  UNL     1      26.444  16.981  59.036  1.00  0.00    -0.372 N
ATOM      6  H4  UNL     1      26.296  16.838  58.037  1.00  0.00     0.161 HD
HETATM    7  C5  UNL     1      25.718  16.330  60.061  1.00  0.00     0.248 C
HETATM    8  N5  UNL     1      26.271  14.989  60.343  1.00  0.00    -0.317 N
ATOM      9  H5  UNL     1      26.161  14.166  59.751  1.00  0.00     0.166 HD
HETATM   10  C6  UNL     1      26.990  15.033  61.594  1.00  0.00     0.320 C
HETATM   11  O4  UNL     1      27.773  14.145  62.044  1.00  0.00    -0.247 OA
HETATM   12  N6  UNL     1      26.685  16.244  62.234  1.00  0.00    -0.302 N
ATOM     13  H6  UNL     1      26.923  16.475  63.198  1.00  0.00     0.167 HD
HETATM   14  C7  UNL     1      25.988  17.107  61.325  1.00  0.00     0.222 C
ENDROOT
BRANCH   1  15
HETATM   15  O3  UNL     1      26.918  19.996  62.614  1.00  0.00    -0.279 OA
BRANCH  15  16
HETATM   16  C2  UNL     1      27.533  19.434  63.822  1.00  0.00     0.221 C
BRANCH  16  17
HETATM   17  C1  UNL     1      26.335  19.033  64.621  1.00  0.00     0.162 C
BRANCH  17  18
HETATM   18  N2  UNL     1      25.108  19.514  64.212  1.00  0.00    -0.301 N
ATOM     19  H2  UNL     1      24.993  20.198  63.463  1.00  0.00     0.173 HD
BRANCH  18  20
HETATM   20  S1  UNL     1      23.791  18.843  65.092  1.00  0.00     0.312 S
HETATM   21  O1  UNL     1      22.857  19.948  65.525  1.00  0.00    -0.183 OA
HETATM   22  O2  UNL     1      23.006  18.014  64.066  1.00  0.00    -0.183 OA
BRANCH  20  23
HETATM   23  N1  UNL     1      24.328  17.950  66.406  1.00  0.00    -0.312 N
ATOM     24  H12 UNL     1      23.816  17.161  66.799  1.00  0.00     0.170 HD
ATOM     25  H11 UNL     1      25.223  18.300  66.750  1.00  0.00     0.170 HD
ENDBRANCH  20  23
ENDBRANCH  18  20
ENDBRANCH  17  18
ENDBRANCH  16  17
ENDBRANCH  15  16
ENDBRANCH   1  15
BRANCH  14  26
HETATM   26  O5  UNL     1      24.736  17.503  61.856  1.00  0.00    -0.362 OA
ATOM     27  H5  UNL     1      24.121  16.782  61.929  1.00  0.00     0.213 HD
ENDBRANCH  14  26
TORSDOF 7
ENDMDL