MODEL 3
REMARK VINA RESULT: -7.182189510      2.699      4.224
REMARK  8 active torsions:
REMARK  status: ('A' for Active; 'I' for Inactive)
REMARK    1  A    between atoms: N1_1  and  C1_4
REMARK    2  A    between atoms: C2_7  and  S1_8
REMARK    3  A    between atoms: S1_8  and  N3_9
REMARK    4  A    between atoms: C3_16  and  N5_17
REMARK    5  A    between atoms: N5_17  and  C4_19
REMARK    6  A    between atoms: C4_19  and  C5_20
REMARK    7  A    between atoms: C5_20  and  C6_21
REMARK    8  A    between atoms: C6_21  and  N6_22
ROOT
HETATM    1  C1  UNL     1      26.740  17.250  58.874  1.00  0.00     0.692 A
HETATM    2  N2  UNL     1      26.277  16.294  59.696  1.00  0.00    -0.164 N
ATOM      3  H2  UNL     1      25.693  15.548  59.319  1.00  0.00     0.186 HD
HETATM    4  C2  UNL     1      26.571  16.304  61.008  1.00  0.00     0.252 A
HETATM    5  N4  UNL     1      27.344  17.291  61.500  1.00  0.00    -0.163 N
ATOM      6  H4  UNL     1      27.568  17.300  62.496  1.00  0.00     0.186 HD
HETATM    7  C3  UNL     1      27.833  18.276  60.703  1.00  0.00     0.694 A
HETATM    8  N9  UNL     1      27.522  18.237  59.404  1.00  0.00    -0.023 N
ATOM      9  H9  UNL     1      27.878  18.968  58.789  1.00  0.00     0.203 HD
ENDROOT
BRANCH   7  10
HETATM   10  N5  UNL     1      28.567  19.215  61.165  1.00  0.00    -0.225 N
ATOM     11  H5  UNL     1      28.550  20.097  60.652  1.00  0.00     0.177 HD
BRANCH  10  12
HETATM   12  C4  UNL     1      29.410  19.168  62.323  1.00  0.00     0.139 C
BRANCH  12  13
HETATM   13  C5  UNL     1      28.881  20.058  63.433  1.00  0.00     0.040 C
BRANCH  13  14
HETATM   14  C6  UNL     1      27.923  19.307  64.325  1.00  0.00     0.123 C
BRANCH  14  15
HETATM   15  N6  UNL     1      26.751  20.057  64.644  1.00  0.00    -0.367 N
HETATM   16  C7  UNL     1      25.566  19.774  64.239  1.00  0.00     0.196 C
HETATM   17  N7  UNL     1      24.441  20.559  64.591  1.00  0.00    -0.067 NA
HETATM   18  N8  UNL     1      25.387  18.638  63.413  1.00  0.00    -0.067 NA
ATOM     19  H6  UNL     1      26.864  20.878  65.238  1.00  0.00     0.161 HD
ENDBRANCH  14  15
ENDBRANCH  13  14
ENDBRANCH  12  13
ENDBRANCH  10  12
ENDBRANCH   7  10
BRANCH   4  20
HETATM   20  S1  UNL     1      25.937  15.030  62.029  1.00  0.00     0.289 S
HETATM   21  O1  UNL     1      26.989  14.755  63.087  1.00  0.00    -0.198 OA
HETATM   22  O2  UNL     1      25.800  13.769  61.235  1.00  0.00    -0.198 OA
BRANCH  20  23
HETATM   23  N3  UNL     1      24.436  15.464  62.745  1.00  0.00    -0.322 N
ATOM     24  H32 UNL     1      24.243  16.395  63.115  1.00  0.00     0.169 HD
ATOM     25  H31 UNL     1      23.776  14.686  62.752  1.00  0.00     0.169 HD
ENDBRANCH  20  23
ENDBRANCH   4  20
BRANCH   1  26
HETATM   26  N1  UNL     1      26.455  17.234  57.616  1.00  0.00    -0.234 N
ATOM     27  H12 UNL     1      26.101  16.388  57.168  1.00  0.00     0.174 HD
ATOM     28  H11 UNL     1      26.576  18.069  57.042  1.00  0.00     0.174 HD
ENDBRANCH   1  26
TORSDOF 8
ENDMDL