MODEL 1
REMARK VINA RESULT: -7.451362542      0.000      0.000
REMARK  9 active torsions:
REMARK  status: ('A' for Active; 'I' for Inactive)
REMARK    1  A    between atoms: N1_1  and  C1_4
REMARK    2  A    between atoms: C2_7  and  N3_8
REMARK    3  A    between atoms: C3_13  and  N5_14
REMARK    4  A    between atoms: N5_14  and  C4_16
REMARK    5  A    between atoms: C4_16  and  C5_17
REMARK    6  A    between atoms: C5_17  and  O1_18
REMARK    7  A    between atoms: C5_17  and  C6_20
REMARK    8  A    between atoms: C6_20  and  N6_21
REMARK    9  A    between atoms: N7_23  and  N8_25
ROOT
HETATM    1  N5  UNL     1      25.498  16.727  59.781  1.00  0.00    -0.223 N
ATOM      2  H5  UNL     1      24.953  17.085  58.997  1.00  0.00     0.177 HD
ENDROOT
BRANCH   1   3
HETATM    3  C3  UNL     1      24.892  16.267  60.801  1.00  0.00     0.707 A
HETATM    4  N4  UNL     1      24.465  17.129  61.742  1.00  0.00    -0.022 N
HETATM    5  C2  UNL     1      23.828  16.677  62.819  1.00  0.00     0.705 A
ATOM      6  H4  UNL     1      24.630  18.128  61.629  1.00  0.00     0.203 HD
HETATM    7  N2  UNL     1      23.602  15.349  62.983  1.00  0.00    -0.022 N
HETATM    8  C1  UNL     1      24.015  14.462  62.063  1.00  0.00     0.705 A
ATOM      9  H2  UNL     1      23.112  15.020  63.815  1.00  0.00     0.203 HD
HETATM   10  N9  UNL     1      24.656  14.949  60.984  1.00  0.00    -0.022 N
ATOM     11  H9  UNL     1      24.979  14.293  60.273  1.00  0.00     0.203 HD
BRANCH   5  12
HETATM   12  N3  UNL     1      23.430  17.534  63.708  1.00  0.00    -0.234 N
ATOM     13  H32 UNL     1      23.286  17.211  64.665  1.00  0.00     0.174 HD
ATOM     14  H31 UNL     1      23.264  18.508  63.456  1.00  0.00     0.174 HD
ENDBRANCH   5  12
BRANCH   8  15
HETATM   15  N1  UNL     1      23.808  13.191  62.203  1.00  0.00    -0.234 N
ATOM     16  H12 UNL     1      23.684  12.775  63.126  1.00  0.00     0.174 HD
ATOM     17  H11 UNL     1      23.760  12.565  61.399  1.00  0.00     0.174 HD
ENDBRANCH   8  15
ENDBRANCH   1   3
BRANCH   1  18
HETATM   18  C4  UNL     1      26.944  16.753  59.708  1.00  0.00     0.171 C
BRANCH  18  19
HETATM   19  C5  UNL     1      27.285  17.494  58.408  1.00  0.00     0.155 C
BRANCH  19  20
HETATM   20  O1  UNL     1      26.066  17.544  57.694  1.00  0.00    -0.392 OA
ATOM     21  H1  UNL     1      26.324  17.629  56.783  1.00  0.00     0.210 HD
ENDBRANCH  19  20
BRANCH  19  22
HETATM   22  C6  UNL     1      27.686  18.899  58.839  1.00  0.00     0.174 C
BRANCH  22  23
HETATM   23  N6  UNL     1      27.991  18.925  60.242  1.00  0.00    -0.320 N
HETATM   24  N7  UNL     1      27.470  19.804  60.972  1.00  0.00    -0.249 N
ATOM     25  H7  UNL     1      26.835  20.493  60.567  1.00  0.00     0.207 HD
ATOM     26  H6  UNL     1      28.626  18.235  60.643  1.00  0.00     0.181 HD
BRANCH  24  27
HETATM   27  N8  UNL     1      27.758  19.840  62.328  1.00  0.00    -0.314 N
HETATM   28  C7  UNL     1      28.955  20.350  62.944  1.00  0.00     0.144 C
HETATM   29  C8  UNL     1      29.204  19.294  64.026  1.00  0.00     0.023 C
HETATM   30  C9  UNL     1      27.854  18.771  64.416  1.00  0.00     0.023 C
HETATM   31  C10 UNL     1      26.898  19.366  63.380  1.00  0.00     0.144 C
ENDBRANCH  24  27
ENDBRANCH  22  23
ENDBRANCH  19  22
ENDBRANCH  18  19
ENDBRANCH   1  18
TORSDOF 9
ENDMDL