MODEL 3
REMARK VINA RESULT: -6.545864359      1.748      2.230
REMARK  7 active torsions:
REMARK  status: ('A' for Active; 'I' for Inactive)
REMARK    1  A    between atoms: N1_2  and  C2_3
REMARK    2  A    between atoms: N1_2  and  C12_24
REMARK    3  A    between atoms: C2_3  and  C3_4
REMARK    4  A    between atoms: C3_4  and  N2_5
REMARK    5  A    between atoms: C3_4  and  C4_9
REMARK       I    between atoms: C4_9  and  N3_11
REMARK    6  A    between atoms: C12_24  and  C13_28
REMARK    7  A    between atoms: C13_28  and  N7_29
ROOT
HETATM    1  C3  UNL     1      28.806  19.909  63.376  1.00  0.00     0.292 C
ENDROOT
BRANCH   1   2
HETATM    2  C2  UNL     1      29.276  19.705  64.830  1.00  0.00     0.166 C
BRANCH   2   3
HETATM    3  N1  UNL     1      28.768  20.709  65.696  1.00  0.00    -0.372 N
HETATM    4  C1  UNL     1      27.410  20.681  66.165  1.00  0.00     0.150 C
BRANCH   3   5
HETATM    5  C12 UNL     1      29.607  21.772  66.120  1.00  0.00     0.098 C
HETATM    6  N6  UNL     1      29.150  22.968  66.212  1.00  0.00    -0.388 N
ATOM      7  H62 UNL     1      28.172  23.130  65.973  1.00  0.00     0.157 HD
ATOM      8  H61 UNL     1      29.753  23.732  66.516  1.00  0.00     0.157 HD
BRANCH   5   9
HETATM    9  C13 UNL     1      31.037  21.535  66.470  1.00  0.00     0.304 C
BRANCH   9  10
HETATM   10  N7  UNL     1      31.842  22.681  66.138  1.00  0.00    -0.073 N
ATOM     11  H73 UNL     1      31.697  22.977  65.173  1.00  0.00     0.274 HD
ATOM     12  H72 UNL     1      31.512  23.522  66.610  1.00  0.00     0.274 HD
ATOM     13  H71 UNL     1      32.827  22.500  66.332  1.00  0.00     0.274 HD
ENDBRANCH   9  10
ENDBRANCH   5   9
ENDBRANCH   3   5
ENDBRANCH   2   3
ENDBRANCH   1   2
BRANCH   1  14
HETATM   14  N2  UNL     1      29.548  20.886  62.685  1.00  0.00    -0.065 N
ATOM     15  H23 UNL     1      30.138  21.415  63.327  1.00  0.00     0.275 HD
ATOM     16  H22 UNL     1      30.271  20.453  62.111  1.00  0.00     0.275 HD
ATOM     17  H21 UNL     1      28.967  21.511  62.126  1.00  0.00     0.275 HD
ENDBRANCH   1  14
BRANCH   1  18
HETATM   18  C4  UNL     1      28.713  18.563  62.807  1.00  0.00     0.252 C
HETATM   19  O1  UNL     1      29.874  18.059  62.511  1.00  0.00    -0.271 OA
HETATM   20  N3  UNL     1      27.586  17.759  62.542  1.00  0.00    -0.349 N
HETATM   21  C5  UNL     1      27.839  16.446  61.968  1.00  0.00     0.127 C
HETATM   22  C11 UNL     1      26.301  18.271  62.848  1.00  0.00     0.153 C
HETATM   23  C6  UNL     1      27.572  16.383  60.484  1.00  0.00     0.039 C
HETATM   24  C7  UNL     1      26.941  15.048  60.097  1.00  0.00     0.115 C
HETATM   25  N4  UNL     1      25.535  15.129  60.329  1.00  0.00    -0.420 N
HETATM   26  C8  UNL     1      25.052  14.384  61.458  1.00  0.00     0.141 C
ATOM     27  H4  UNL     1      24.915  15.679  59.734  1.00  0.00     0.153 HD
HETATM   28  C9  UNL     1      24.213  15.221  62.400  1.00  0.00     0.251 C
HETATM   29  N5  UNL     1      24.984  16.185  63.151  1.00  0.00    -0.072 N
HETATM   30  C10 UNL     1      25.110  17.432  62.480  1.00  0.00     0.252 C
ATOM     31  H52 UNL     1      24.600  16.311  64.087  1.00  0.00     0.277 HD
ATOM     32  H51 UNL     1      25.899  15.809  63.397  1.00  0.00     0.277 HD
ENDBRANCH   1  18
TORSDOF 7
ENDMDL