MODEL 1
REMARK VINA RESULT: -7.784929008      0.000      0.000
REMARK  6 active torsions:
REMARK  status: ('A' for Active; 'I' for Inactive)
REMARK    1  A    between atoms: C6_16  and  N4_17
REMARK    2  A    between atoms: N4_17  and  C7_19
REMARK    3  A    between atoms: C7_19  and  C8_20
REMARK    4  A    between atoms: C8_20  and  C9_21
REMARK    5  A    between atoms: C9_21  and  C10_22
REMARK    6  A    between atoms: C10_22  and  N5_23
ROOT
HETATM    1  N1  UNL     1      26.288  14.664  59.397  1.00  0.00    -0.383 N
ATOM      2  H11 UNL     1      26.853  15.353  58.901  1.00  0.00     0.157 HD
ATOM      3  H12 UNL     1      26.014  13.746  59.049  1.00  0.00     0.157 HD
HETATM    4  C1  UNL     1      25.899  14.986  60.540  1.00  0.00     0.132 C
HETATM    5  N2  UNL     1      25.143  14.063  61.206  1.00  0.00    -0.293 N
ATOM      6  H2  UNL     1      25.275  13.083  60.958  1.00  0.00     0.172 HD
HETATM    7  C2  UNL     1      24.237  14.344  62.162  1.00  0.00     0.328 C
HETATM    8  O1  UNL     1      23.682  13.339  62.693  1.00  0.00    -0.247 OA
HETATM    9  N3  UNL     1      23.799  15.502  62.673  1.00  0.00    -0.275 N
ATOM     10  H3  UNL     1      22.936  15.462  63.214  1.00  0.00     0.173 HD
HETATM   11  C3  UNL     1      24.377  16.719  62.550  1.00  0.00     0.266 C
HETATM   12  O2  UNL     1      23.811  17.724  63.039  1.00  0.00    -0.267 OA
HETATM   13  C4  UNL     1      25.588  17.026  61.915  1.00  0.00     0.118 A
HETATM   14  C5  UNL     1      26.123  18.242  62.254  1.00  0.00     0.234 A
HETATM   15  O3  UNL     1      25.482  18.953  63.081  1.00  0.00    -0.283 OA
HETATM   16  C6  UNL     1      27.323  18.664  61.706  1.00  0.00     0.168 A
HETATM   17  N6  UNL     1      27.944  17.850  60.835  1.00  0.00    -0.282 N
ATOM     18  H6  UNL     1      28.829  18.139  60.419  1.00  0.00     0.188 HD
HETATM   19  N7  UNL     1      27.419  16.677  60.512  1.00  0.00    -0.294 N
ATOM     20  H7  UNL     1      27.919  16.086  59.847  1.00  0.00     0.187 HD
HETATM   21  C11 UNL     1      26.272  16.236  61.014  1.00  0.00     0.111 A
ENDROOT
BRANCH  16  22
HETATM   22  N4  UNL     1      27.807  19.820  62.047  1.00  0.00    -0.372 N
ATOM     23  H4  UNL     1      27.303  20.685  61.848  1.00  0.00     0.161 HD
BRANCH  22  24
HETATM   24  C7  UNL     1      29.086  19.832  62.719  1.00  0.00     0.121 C
BRANCH  24  25
HETATM   25  C8  UNL     1      28.800  19.806  64.211  1.00  0.00     0.021 C
BRANCH  25  26
HETATM   26  C9  UNL     1      29.810  20.763  64.849  1.00  0.00     0.029 C
BRANCH  26  27
HETATM   27  C10 UNL     1      29.046  21.561  65.895  1.00  0.00     0.229 C
BRANCH  27  28
HETATM   28  N5  UNL     1      29.783  22.784  66.120  1.00  0.00    -0.079 N
ATOM     29  H53 UNL     1      30.579  22.662  66.746  1.00  0.00     0.274 HD
ATOM     30  H52 UNL     1      30.307  23.091  65.300  1.00  0.00     0.274 HD
ATOM     31  H51 UNL     1      29.116  23.481  66.452  1.00  0.00     0.274 HD
ENDBRANCH  27  28
ENDBRANCH  26  27
ENDBRANCH  25  26
ENDBRANCH  24  25
ENDBRANCH  22  24
ENDBRANCH  16  22
TORSDOF 6
ENDMDL