MODEL 3
REMARK VINA RESULT: -6.775447599      2.297      6.077
REMARK  8 active torsions:
REMARK  status: ('A' for Active; 'I' for Inactive)
REMARK    1  A    between atoms: O1_2  and  C2_3
REMARK    2  A    between atoms: C2_3  and  C3_4
REMARK    3  A    between atoms: C3_4  and  N1_5
REMARK    4  A    between atoms: C3_4  and  C4_9
REMARK    5  A    between atoms: C4_9  and  C5_10
REMARK    6  A    between atoms: C8_17  and  N4_18
REMARK    7  A    between atoms: C11_26  and  C12_27
REMARK    8  A    between atoms: N6_28  and  O3_30
ROOT
HETATM    1  C5  UNL     1      27.284  17.764  60.953  1.00  0.00    -0.028 A
HETATM    2  C6  UNL     1      27.323  16.794  59.971  1.00  0.00     0.097 A
HETATM    3  N2  UNL     1      26.506  15.770  59.914  1.00  0.00    -0.350 N
ATOM      4  H2  UNL     1      26.588  15.088  59.160  1.00  0.00     0.166 HD
HETATM    5  C7  UNL     1      25.573  15.626  60.841  1.00  0.00     0.137 A
HETATM    6  N3  UNL     1      24.755  14.562  60.748  1.00  0.00    -0.176 N
ATOM      7  H3  UNL     1      24.871  13.901  59.980  1.00  0.00     0.186 HD
HETATM    8  C8  UNL     1      23.789  14.363  61.654  1.00  0.00     0.680 A
HETATM    9  N5  UNL     1      23.662  15.245  62.651  1.00  0.00    -0.155 N
ATOM     10  H5  UNL     1      22.930  15.099  63.344  1.00  0.00     0.187 HD
HETATM   11  C9  UNL     1      24.477  16.336  62.776  1.00  0.00     0.274 A
HETATM   12  O2  UNL     1      24.262  17.079  63.737  1.00  0.00    -0.267 OA
HETATM   13  C10 UNL     1      25.469  16.566  61.867  1.00  0.00     0.089 A
HETATM   14  C11 UNL     1      26.302  17.670  61.979  1.00  0.00     0.008 A
ENDROOT
BRANCH   1  15
HETATM   15  C4  UNL     1      28.304  18.838  60.898  1.00  0.00     0.076 C
BRANCH  15  16
HETATM   16  C3  UNL     1      29.104  18.978  62.191  1.00  0.00     0.211 C
BRANCH  16  17
HETATM   17  C2  UNL     1      30.459  18.353  61.990  1.00  0.00     0.200 C
BRANCH  17  18
HETATM   18  O1  UNL     1      30.540  17.004  62.029  1.00  0.00    -0.394 OA
HETATM   19  C1  UNL     1      29.964  16.276  63.002  1.00  0.00     0.201 C
ENDBRANCH  17  18
ENDBRANCH  16  17
BRANCH  16  20
HETATM   20  N1  UNL     1      29.274  20.390  62.469  1.00  0.00    -0.073 N
ATOM     21  H13 UNL     1      28.409  20.832  62.780  1.00  0.00     0.274 HD
ATOM     22  H12 UNL     1      29.829  20.556  63.308  1.00  0.00     0.274 HD
ATOM     23  H11 UNL     1      29.669  20.843  61.645  1.00  0.00     0.274 HD
ENDBRANCH  16  20
ENDBRANCH  15  16
ENDBRANCH   1  15
BRANCH  14  24
HETATM   24  C12 UNL     1      26.246  18.707  62.956  1.00  0.00     0.127 C
HETATM   25  N6  UNL     1      25.593  19.593  63.499  1.00  0.00    -0.280 N
ATOM     26  H6  UNL     1      24.629  19.803  63.239  1.00  0.00     0.193 HD
BRANCH  25  27
HETATM   27  O3  UNL     1      26.300  20.324  64.545  1.00  0.00    -0.290 OA
ATOM     28  H3  UNL     1      25.748  20.656  65.243  1.00  0.00     0.244 HD
ENDBRANCH  25  27
ENDBRANCH  14  24
BRANCH   8  29
HETATM   29  N4  UNL     1      22.987  13.340  61.583  1.00  0.00    -0.234 N
ATOM     30  H42 UNL     1      22.595  12.939  62.434  1.00  0.00     0.174 HD
ATOM     31  H41 UNL     1      22.736  12.918  60.689  1.00  0.00     0.174 HD
ENDBRANCH   8  29
TORSDOF 8
ENDMDL