MODEL 2
REMARK VINA RESULT: -7.619417009      2.822      4.435
REMARK  5 active torsions:
REMARK  status: ('A' for Active; 'I' for Inactive)
REMARK    1  A    between atoms: C2_2  and  N1_3
REMARK       I    between atoms: C3_5  and  N2_6
REMARK       I    between atoms: C3_5  and  N4_10
REMARK    2  A    between atoms: N4_10  and  C5_12
REMARK    3  A    between atoms: C5_12  and  C6_13
REMARK    4  A    between atoms: C6_13  and  N5_14
REMARK    5  A    between atoms: N5_14  and  C7_16
ROOT
HETATM    1  N1  UNL     1      25.861  15.835  60.322  1.00  0.00    -0.226 N
ATOM      2  H1  UNL     1      26.408  16.693  60.395  1.00  0.00     0.177 HD
HETATM    3  C3  UNL     1      24.637  15.828  60.721  1.00  0.00     0.682 C
HETATM    4  N2  UNL     1      23.842  14.651  60.636  1.00  0.00    -0.126 N
ATOM      5  H2  UNL     1      23.459  14.351  59.739  1.00  0.00     0.197 HD
HETATM    6  C4  UNL     1      23.591  13.909  61.798  1.00  0.00     0.196 C
HETATM    7  N3  UNL     1      23.371  13.308  62.762  1.00  0.00    -0.171 NA
HETATM    8  N4  UNL     1      24.073  17.018  61.255  1.00  0.00    -0.224 N
ATOM      9  H4  UNL     1      23.939  17.823  60.643  1.00  0.00     0.177 HD
ENDROOT
BRANCH   1  10
HETATM   10  C2  UNL     1      26.471  14.645  59.771  1.00  0.00     0.133 C
HETATM   11  C1  UNL     1      27.531  14.058  60.638  1.00  0.00     0.027 C
ENDBRANCH   1  10
BRANCH   8  12
HETATM   12  C5  UNL     1      23.684  17.116  62.649  1.00  0.00     0.158 C
BRANCH  12  13
HETATM   13  C6  UNL     1      24.772  17.698  63.496  1.00  0.00     0.158 C
BRANCH  13  14
HETATM   14  N5  UNL     1      25.679  18.527  62.756  1.00  0.00    -0.224 N
ATOM     15  H5  UNL     1      25.286  19.175  62.073  1.00  0.00     0.177 HD
BRANCH  14  16
HETATM   16  C7  UNL     1      26.941  18.504  62.899  1.00  0.00     0.685 C
HETATM   17  N6  UNL     1      27.545  19.717  62.875  1.00  0.00    -0.141 N
HETATM   18  C8  UNL     1      28.853  20.046  62.811  1.00  0.00     0.341 C
ATOM     19  H6  UNL     1      26.907  20.512  62.912  1.00  0.00     0.189 HD
HETATM   20  O1  UNL     1      29.192  21.211  63.131  1.00  0.00    -0.246 OA
HETATM   21  N7  UNL     1      29.855  19.230  62.432  1.00  0.00    -0.270 N
HETATM   22  C9  UNL     1      29.875  17.869  62.405  1.00  0.00     0.318 C
ATOM     23  H7  UNL     1      30.710  19.692  62.123  1.00  0.00     0.174 HD
HETATM   24  O2  UNL     1      30.896  17.330  61.944  1.00  0.00    -0.262 OA
HETATM   25  C10 UNL     1      28.875  17.033  62.840  1.00  0.00     0.328 C
HETATM   26  O3  UNL     1      29.239  15.852  63.051  1.00  0.00    -0.261 OA
HETATM   27  N8  UNL     1      27.580  17.336  63.057  1.00  0.00    -0.151 N
ATOM     28  H8  UNL     1      27.002  16.565  63.390  1.00  0.00     0.188 HD
ENDBRANCH  14  16
ENDBRANCH  13  14
ENDBRANCH  12  13
ENDBRANCH   8  12
TORSDOF 5
ENDMDL