MODEL 5
REMARK VINA RESULT: -6.686241854      2.538      5.255
REMARK  8 active torsions:
REMARK  status: ('A' for Active; 'I' for Inactive)
REMARK    1  A    between atoms: N1_2  and  C2_4
REMARK    2  A    between atoms: C3_7  and  C4_8
REMARK    3  A    between atoms: C5_13  and  N5_14
REMARK    4  A    between atoms: C6_19  and  N7_20
REMARK    5  A    between atoms: N7_20  and  C7_22
REMARK    6  A    between atoms: C7_22  and  C8_23
REMARK    7  A    between atoms: C8_23  and  C9_24
REMARK    8  A    between atoms: C9_24  and  N8_25
ROOT
HETATM    1  C2  UNL     1      26.546  17.119  61.640  1.00  0.00     0.148 C
HETATM    2  N2  UNL     1      26.076  15.837  61.750  1.00  0.00    -0.321 N
ATOM      3  H2  UNL     1      26.669  15.126  61.321  1.00  0.00     0.169 HD
HETATM    4  C3  UNL     1      24.954  15.363  62.335  1.00  0.00     0.188 C
HETATM    5  N4  UNL     1      24.011  16.066  63.015  1.00  0.00    -0.172 N
ATOM      6  H4  UNL     1      23.186  15.531  63.286  1.00  0.00     0.186 HD
HETATM    7  C5  UNL     1      23.997  17.359  63.386  1.00  0.00     0.679 C
HETATM    8  N6  UNL     1      24.887  18.295  62.979  1.00  0.00    -0.173 N
ATOM      9  H6  UNL     1      24.576  19.260  63.094  1.00  0.00     0.186 HD
HETATM   10  C6  UNL     1      26.114  18.158  62.448  1.00  0.00     0.165 C
ENDROOT
BRANCH  10  11
HETATM   11  N7  UNL     1      26.947  19.049  62.705  1.00  0.00    -0.352 N
ATOM     12  H7  UNL     1      26.884  19.837  62.061  1.00  0.00     0.166 HD
BRANCH  11  13
HETATM   13  C7  UNL     1      27.949  19.222  63.669  1.00  0.00     0.064 C
BRANCH  13  14
HETATM   14  C8  UNL     1      27.484  19.064  65.098  1.00  0.00     0.064 C
BRANCH  14  15
HETATM   15  C9  UNL     1      27.026  20.335  65.737  1.00  0.00     0.127 C
BRANCH  15  16
HETATM   16  N8  UNL     1      25.784  20.051  66.433  1.00  0.00    -0.367 N
HETATM   17  C10 UNL     1      24.648  20.265  65.824  1.00  0.00     0.196 C
HETATM   18  N9  UNL     1      23.409  19.999  66.471  1.00  0.00    -0.067 NA
HETATM   19  N10 UNL     1      24.591  20.770  64.493  1.00  0.00    -0.067 NA
ATOM     20  H8  UNL     1      25.798  19.688  67.386  1.00  0.00     0.161 HD
ENDBRANCH  15  16
ENDBRANCH  14  15
ENDBRANCH  13  14
ENDBRANCH  11  13
ENDBRANCH  10  11
BRANCH   1  21
HETATM   21  N1  UNL     1      27.416  17.301  60.738  1.00  0.00    -0.378 N
HETATM   22  C1  UNL     1      27.248  17.557  59.341  1.00  0.00     0.148 C
ATOM     23  H1  UNL     1      28.384  17.258  61.057  1.00  0.00     0.160 HD
ENDBRANCH   1  21
BRANCH   7  24
HETATM   24  N5  UNL     1      23.055  17.700  64.191  1.00  0.00    -0.234 N
ATOM     25  H52 UNL     1      22.915  17.164  65.047  1.00  0.00     0.174 HD
ATOM     26  H51 UNL     1      22.498  18.506  63.907  1.00  0.00     0.174 HD
ENDBRANCH   7  24
BRANCH   4  27
HETATM   27  C4  UNL     1      24.726  13.914  62.219  1.00  0.00     0.299 C
HETATM   28  N3  UNL     1      23.410  13.423  62.432  1.00  0.00    -0.054 NA
HETATM   29  O1  UNL     1      25.654  13.123  61.943  1.00  0.00    -0.268 OA
ENDBRANCH   4  27
TORSDOF 8
ENDMDL