MODEL 3
REMARK VINA RESULT: -7.042790362      1.376      3.103
REMARK  6 active torsions:
REMARK  status: ('A' for Active; 'I' for Inactive)
REMARK    1  A    between atoms: C5_14  and  N4_15
REMARK    2  A    between atoms: C6_17  and  C7_18
REMARK    3  A    between atoms: C7_18  and  O4_19
REMARK    4  A    between atoms: O4_19  and  C8_20
REMARK    5  A    between atoms: C8_20  and  C9_21
REMARK    6  A    between atoms: C9_21  and  O5_22
ROOT
HETATM    1  O1  UNL     1      28.392  18.683  60.469  1.00  0.00    -0.247 OA
HETATM    2  C1  UNL     1      27.482  17.877  60.790  1.00  0.00     0.327 A
HETATM    3  N1  UNL     1      27.377  16.745  60.097  1.00  0.00    -0.275 N
ATOM      4  H1  UNL     1      28.017  16.543  59.330  1.00  0.00     0.173 HD
HETATM    5  C2  UNL     1      26.411  15.876  60.429  1.00  0.00     0.267 A
HETATM    6  O2  UNL     1      26.246  14.778  59.818  1.00  0.00    -0.267 OA
HETATM    7  C3  UNL     1      25.549  16.158  61.468  1.00  0.00     0.132 A
HETATM    8  C4  UNL     1      24.555  15.258  61.805  1.00  0.00     0.278 A
HETATM    9  O3  UNL     1      24.445  14.190  61.162  1.00  0.00    -0.266 OA
HETATM   10  N2  UNL     1      23.744  15.583  62.823  1.00  0.00    -0.264 N
ATOM     11  H2  UNL     1      23.005  14.929  63.083  1.00  0.00     0.190 HD
HETATM   12  N3  UNL     1      23.857  16.688  63.491  1.00  0.00    -0.281 N
ATOM     13  H3  UNL     1      23.203  16.864  64.254  1.00  0.00     0.188 HD
HETATM   14  C5  UNL     1      24.813  17.630  63.220  1.00  0.00     0.148 A
HETATM   15  C10 UNL     1      25.671  17.352  62.187  1.00  0.00     0.103 A
HETATM   16  N5  UNL     1      26.649  18.179  61.815  1.00  0.00    -0.304 N
ATOM     17  H5  UNL     1      26.772  19.060  62.314  1.00  0.00     0.171 HD
ENDROOT
BRANCH  14  18
HETATM   18  N4  UNL     1      24.837  18.628  63.899  1.00  0.00    -0.351 N
HETATM   19  C6  UNL     1      25.475  19.569  64.645  1.00  0.00     0.088 C
ATOM     20  H4  UNL     1      23.861  18.920  63.928  1.00  0.00     0.166 HD
BRANCH  19  21
HETATM   21  C7  UNL     1      24.568  20.690  65.189  1.00  0.00     0.212 C
BRANCH  21  22
HETATM   22  O4  UNL     1      23.580  20.064  65.890  1.00  0.00    -0.384 OA
BRANCH  22  23
HETATM   23  C8  UNL     1      23.804  19.817  67.215  1.00  0.00     0.194 C
BRANCH  23  24
HETATM   24  C9  UNL     1      23.546  18.364  67.521  1.00  0.00     0.190 C
BRANCH  24  25
HETATM   25  O5  UNL     1      23.177  17.654  66.372  1.00  0.00    -0.399 OA
ATOM     26  H5  UNL     1      23.246  16.716  66.505  1.00  0.00     0.209 HD
ENDBRANCH  24  25
ENDBRANCH  23  24
ENDBRANCH  22  23
ENDBRANCH  21  22
ENDBRANCH  19  21
ENDBRANCH  14  18
TORSDOF 6
ENDMDL