MODEL 3
REMARK VINA RESULT: -6.615194013      1.747      3.294
REMARK  9 active torsions:
REMARK  status: ('A' for Active; 'I' for Inactive)
REMARK    1  A    between atoms: C3_5  and  N2_6
REMARK    2  A    between atoms: N2_6  and  C4_8
REMARK    3  A    between atoms: C4_8  and  C5_9
REMARK    4  A    between atoms: C5_9  and  C6_10
REMARK    5  A    between atoms: C6_10  and  N3_11
REMARK    6  A    between atoms: N3_11  and  C7_13
REMARK    7  A    between atoms: C7_13  and  C8_14
REMARK    8  A    between atoms: C8_14  and  N4_15
REMARK    9  A    between atoms: C10_25  and  N8_26
ROOT
HETATM    1  C7  UNL     1      27.123  18.754  65.145  1.00  0.00     0.111 C
HETATM    2  N5  UNL     1      25.838  18.732  65.144  1.00  0.00    -0.282 N
ATOM      3  H5  UNL     1      25.354  17.873  65.405  1.00  0.00     0.179 HD
HETATM    4  C9  UNL     1      25.097  19.848  64.798  1.00  0.00     0.183 C
HETATM    5  N6  UNL     1      24.482  20.789  64.491  1.00  0.00    -0.172 NA
ENDROOT
BRANCH   1   6
HETATM    6  N3  UNL     1      27.773  19.960  64.780  1.00  0.00    -0.378 N
ATOM      7  H3  UNL     1      27.428  20.855  65.128  1.00  0.00     0.160 HD
BRANCH   6   8
HETATM    8  C6  UNL     1      28.922  19.915  63.915  1.00  0.00     0.122 C
BRANCH   8   9
HETATM    9  C5  UNL     1      28.519  20.176  62.508  1.00  0.00     0.040 C
BRANCH   9  10
HETATM   10  C4  UNL     1      28.394  18.851  61.761  1.00  0.00     0.139 C
BRANCH  10  11
HETATM   11  N2  UNL     1      27.019  18.674  61.440  1.00  0.00    -0.225 N
ATOM     12  H2  UNL     1      26.521  19.520  61.166  1.00  0.00     0.177 HD
BRANCH  11  13
HETATM   13  C3  UNL     1      26.326  17.609  61.446  1.00  0.00     0.693 C
HETATM   14  N1  UNL     1      26.941  16.482  61.015  1.00  0.00    -0.190 N
HETATM   15  C2  UNL     1      26.576  15.181  61.221  1.00  0.00     0.091 C
ATOM     16  H1  UNL     1      27.788  16.623  60.463  1.00  0.00     0.184 HD
HETATM   17  C1  UNL     1      27.493  14.153  60.644  1.00  0.00     0.075 C
HETATM   18  C11 UNL     1      25.466  14.719  61.895  1.00  0.00     0.282 C
HETATM   19  N9  UNL     1      24.469  15.419  62.449  1.00  0.00    -0.154 N
HETATM   20  O1  UNL     1      25.421  13.459  61.980  1.00  0.00    -0.266 OA
HETATM   21  C10 UNL     1      24.293  16.760  62.443  1.00  0.00     0.693 C
ATOM     22  H9  UNL     1      23.755  14.875  62.934  1.00  0.00     0.187 HD
HETATM   23  N7  UNL     1      25.061  17.713  61.876  1.00  0.00    -0.023 N
ATOM     24  H7  UNL     1      24.625  18.628  61.761  1.00  0.00     0.203 HD
BRANCH  21  25
HETATM   25  N8  UNL     1      23.252  17.198  63.060  1.00  0.00    -0.234 N
ATOM     26  H82 UNL     1      22.694  17.892  62.563  1.00  0.00     0.174 HD
ATOM     27  H81 UNL     1      23.101  16.797  63.986  1.00  0.00     0.174 HD
ENDBRANCH  21  25
ENDBRANCH  11  13
ENDBRANCH  10  11
ENDBRANCH   9  10
ENDBRANCH   8   9
ENDBRANCH   6   8
ENDBRANCH   1   6
BRANCH   1  28
HETATM   28  C8  UNL     1      27.939  17.571  65.511  1.00  0.00     0.306 C
BRANCH  28  29
HETATM   29  N4  UNL     1      27.666  16.504  64.571  1.00  0.00    -0.073 N
ATOM     30  H43 UNL     1      27.354  15.650  65.032  1.00  0.00     0.274 HD
ATOM     31  H42 UNL     1      26.829  16.680  64.015  1.00  0.00     0.274 HD
ATOM     32  H41 UNL     1      28.493  16.354  63.992  1.00  0.00     0.274 HD
ENDBRANCH  28  29
ENDBRANCH   1  28
TORSDOF 9
ENDMDL