MODEL 2
REMARK VINA RESULT: -7.577260245      2.844      6.610
REMARK  7 active torsions:
REMARK  status: ('A' for Active; 'I' for Inactive)
REMARK    1  A    between atoms: N1_1  and  N2_4
REMARK    2  A    between atoms: N2_4  and  N3_5
REMARK       I    between atoms: N3_5  and  C1_7
REMARK       I    between atoms: C1_7  and  N5_11
REMARK    3  A    between atoms: N5_11  and  C2_13
REMARK    4  A    between atoms: C2_13  and  C3_14
REMARK    5  A    between atoms: C2_13  and  C6_21
REMARK    6  A    between atoms: C3_14  and  C4_15
REMARK    7  A    between atoms: C4_15  and  N6_16
REMARK       I    between atoms: C6_21  and  N9_23
ROOT
HETATM    1  C2  UNL     1      24.846  17.018  62.941  1.00  0.00     0.193 C
ENDROOT
BRANCH   1   2
HETATM    2  N5  UNL     1      25.410  17.916  61.917  1.00  0.00    -0.211 N
HETATM    3  C1  UNL     1      26.583  17.575  61.208  1.00  0.00     0.699 C
HETATM    4  N3  UNL     1      26.838  18.142  59.921  1.00  0.00    -0.046 N
HETATM    5  N4  UNL     1      27.485  16.760  61.649  1.00  0.00    -0.233 N
ATOM      6  H3  UNL     1      27.117  19.120  59.827  1.00  0.00     0.223 HD
ATOM      7  H42 UNL     1      28.333  16.513  61.138  1.00  0.00     0.174 HD
ATOM      8  H41 UNL     1      27.303  16.355  62.567  1.00  0.00     0.174 HD
ATOM      9  H5  UNL     1      24.943  18.800  61.716  1.00  0.00     0.178 HD
BRANCH   4  10
HETATM   10  N2  UNL     1      26.702  17.353  58.828  1.00  0.00    -0.229 NA
BRANCH  10  11
HETATM   11  N1  UNL     1      26.573  16.704  57.911  1.00  0.00    -0.260 N
ATOM     12  H12 UNL     1      26.303  17.635  58.230  1.00  0.00     0.193 HD
ATOM     13  H11 UNL     1      26.466  16.106  57.092  1.00  0.00     0.193 HD
ENDBRANCH  10  11
ENDBRANCH   4  10
ENDBRANCH   1   2
BRANCH   1  14
HETATM   14  C3  UNL     1      23.781  16.213  62.231  1.00  0.00     0.055 C
BRANCH  14  15
HETATM   15  C4  UNL     1      24.092  14.778  62.025  1.00  0.00     0.124 C
BRANCH  15  16
HETATM   16  N6  UNL     1      24.865  14.578  60.805  1.00  0.00    -0.367 N
HETATM   17  C5  UNL     1      26.083  14.200  60.812  1.00  0.00     0.196 C
HETATM   18  N7  UNL     1      26.739  13.955  62.042  1.00  0.00    -0.067 NA
HETATM   19  N8  UNL     1      26.791  14.022  59.613  1.00  0.00    -0.067 NA
ATOM     20  H6  UNL     1      24.412  14.749  59.907  1.00  0.00     0.161 HD
ENDBRANCH  15  16
ENDBRANCH  14  15
ENDBRANCH   1  14
BRANCH   1  21
HETATM   21  C6  UNL     1      24.327  17.807  64.062  1.00  0.00     0.243 C
HETATM   22  O1  UNL     1      23.071  17.947  64.116  1.00  0.00    -0.271 OA
HETATM   23  N9  UNL     1      25.104  18.419  65.075  1.00  0.00    -0.347 N
HETATM   24  C7  UNL     1      26.542  18.395  65.157  1.00  0.00     0.153 C
HETATM   25  C10 UNL     1      24.444  19.156  66.170  1.00  0.00     0.153 C
HETATM   26  C8  UNL     1      26.999  19.861  65.130  1.00  0.00     0.252 C
HETATM   27  N10 UNL     1      26.524  20.447  66.370  1.00  0.00    -0.072 N
HETATM   28  C9  UNL     1      25.068  20.538  66.242  1.00  0.00     0.252 C
ATOM     29 2H10 UNL     1      26.829  19.941  67.202  1.00  0.00     0.277 HD
ATOM     30 1H10 UNL     1      26.970  21.336  66.598  1.00  0.00     0.277 HD
ENDBRANCH   1  21
TORSDOF 7
ENDMDL