MODEL 5
REMARK VINA RESULT: -6.611766498      2.573      4.487
REMARK  8 active torsions:
REMARK  status: ('A' for Active; 'I' for Inactive)
REMARK    1  A    between atoms: C1_2  and  C2_3
REMARK       I    between atoms: C1_2  and  N7_23
REMARK    2  A    between atoms: C2_3  and  C3_4
REMARK    3  A    between atoms: C3_4  and  N1_5
REMARK    4  A    between atoms: N1_5  and  C4_7
REMARK    5  A    between atoms: C8_19  and  N6_20
REMARK    6  A    between atoms: N7_23  and  C11_25
REMARK    7  A    between atoms: C11_25  and  C12_26
REMARK    8  A    between atoms: C12_26  and  O2_27
ROOT
HETATM    1  C4  UNL     1      24.046  17.511  63.584  1.00  0.00     0.145 A
HETATM    2  N2  UNL     1      23.742  16.223  63.385  1.00  0.00    -0.283 N
ATOM      3  H2  UNL     1      22.954  15.743  63.820  1.00  0.00     0.188 HD
HETATM    4  N3  UNL     1      24.596  15.654  62.553  1.00  0.00    -0.293 N
ATOM      5  H3  UNL     1      24.578  14.682  62.244  1.00  0.00     0.187 HD
HETATM    6  C5  UNL     1      25.505  16.600  62.182  1.00  0.00     0.122 A
HETATM    7  C6  UNL     1      25.171  17.774  62.823  1.00  0.00     0.107 A
HETATM    8  N4  UNL     1      25.863  18.844  62.657  1.00  0.00    -0.369 N
ATOM      9  H4  UNL     1      25.570  19.684  63.157  1.00  0.00     0.161 HD
HETATM   10  C7  UNL     1      27.030  18.934  61.807  1.00  0.00     0.245 A
HETATM   11  N5  UNL     1      27.330  17.674  61.163  1.00  0.00    -0.358 N
ATOM     12  H5  UNL     1      28.134  17.616  60.538  1.00  0.00     0.162 HD
HETATM   13  C8  UNL     1      26.550  16.530  61.371  1.00  0.00     0.131 A
ENDROOT
BRANCH   1  14
HETATM   14  N1  UNL     1      23.412  18.344  64.338  1.00  0.00    -0.373 N
ATOM     15  H1  UNL     1      22.776  19.014  63.905  1.00  0.00     0.161 HD
BRANCH  14  16
HETATM   16  C3  UNL     1      23.570  18.361  65.777  1.00  0.00     0.130 C
BRANCH  16  17
HETATM   17  C2  UNL     1      23.778  19.746  66.309  1.00  0.00     0.122 C
BRANCH  17  18
HETATM   18  C1  UNL     1      25.043  20.298  65.776  1.00  0.00     0.219 C
HETATM   19  O1  UNL     1      25.018  21.004  64.735  1.00  0.00    -0.274 OA
HETATM   20  N7  UNL     1      26.299  20.050  66.411  1.00  0.00    -0.359 N
ATOM     21  H7  UNL     1      26.342  19.480  67.255  1.00  0.00     0.162 HD
BRANCH  20  22
HETATM   22  C11 UNL     1      27.505  20.610  65.854  1.00  0.00     0.148 C
BRANCH  22  23
HETATM   23  C12 UNL     1      28.016  21.782  66.631  1.00  0.00     0.183 C
BRANCH  23  24
HETATM   24  O2  UNL     1      28.380  22.840  65.816  1.00  0.00    -0.399 OA
ATOM     25  H2  UNL     1      28.322  23.678  66.261  1.00  0.00     0.209 HD
ENDBRANCH  23  24
ENDBRANCH  22  23
ENDBRANCH  20  22
ENDBRANCH  17  18
ENDBRANCH  16  17
ENDBRANCH  14  16
ENDBRANCH   1  14
BRANCH  13  26
HETATM   26  N6  UNL     1      26.828  15.281  60.747  1.00  0.00    -0.362 N
HETATM   27  C9  UNL     1      26.721  14.337  59.678  1.00  0.00     0.144 A
HETATM   28  C10 UNL     1      27.518  13.987  60.862  1.00  0.00     0.144 A
ENDBRANCH  13  26
TORSDOF 8
ENDMDL