MODEL 1
REMARK VINA RESULT: -7.179908270      0.000      0.000
REMARK  6 active torsions:
REMARK  status: ('A' for Active; 'I' for Inactive)
REMARK    1  A    between atoms: N1_1  and  N2_4
REMARK    2  A    between atoms: N2_4  and  C1_6
REMARK    3  A    between atoms: N4_11  and  C4_13
REMARK    4  A    between atoms: C4_13  and  C5_14
REMARK    5  A    between atoms: C5_14  and  N5_15
REMARK    6  A    between atoms: C7_22  and  N9_23
ROOT
HETATM    1  C1  UNL     1      26.893  19.588  62.366  1.00  0.00     0.156 C
HETATM    2  C2  UNL     1      25.951  18.949  63.034  1.00  0.00     0.153 A
HETATM    3  N3  UNL     1      25.230  17.871  62.453  1.00  0.00    -0.174 N
ATOM      4  H3  UNL     1      25.419  17.560  61.500  1.00  0.00     0.186 HD
HETATM    5  C3  UNL     1      24.234  17.242  63.248  1.00  0.00     0.694 A
HETATM    6  N4  UNL     1      23.572  16.272  62.750  1.00  0.00    -0.224 N
ATOM      7  H4  UNL     1      22.854  15.812  63.310  1.00  0.00     0.177 HD
HETATM    8  N8  UNL     1      23.972  17.690  64.594  1.00  0.00    -0.022 N
ATOM      9  H8  UNL     1      23.250  17.218  65.137  1.00  0.00     0.203 HD
HETATM   10  C7  UNL     1      24.612  18.657  65.131  1.00  0.00     0.696 A
HETATM   11  N10 UNL     1      25.615  19.308  64.364  1.00  0.00    -0.174 N
ATOM     12  H10 UNL     1      26.123  20.080  64.795  1.00  0.00     0.186 HD
ENDROOT
BRANCH   6  13
HETATM   13  C4  UNL     1      23.822  15.818  61.411  1.00  0.00     0.157 C
BRANCH  13  14
HETATM   14  C5  UNL     1      24.296  14.375  61.482  1.00  0.00     0.142 C
BRANCH  14  15
HETATM   15  N5  UNL     1      25.415  14.206  60.577  1.00  0.00    -0.365 N
HETATM   16  C6  UNL     1      26.627  14.191  61.011  1.00  0.00     0.197 C
HETATM   17  N6  UNL     1      26.865  14.340  62.392  1.00  0.00    -0.067 NA
HETATM   18  N7  UNL     1      27.714  14.025  60.116  1.00  0.00    -0.067 NA
ATOM     19  H5  UNL     1      25.239  14.098  59.578  1.00  0.00     0.161 HD
ENDBRANCH  14  15
ENDBRANCH  13  14
ENDBRANCH   6  13
BRANCH  10  20
HETATM   20  N9  UNL     1      24.317  19.063  66.467  1.00  0.00    -0.217 N
HETATM   21  C8  UNL     1      23.774  18.222  67.517  1.00  0.00     0.141 C
HETATM   22  C9  UNL     1      22.765  19.191  68.149  1.00  0.00     0.022 C
HETATM   23  C10 UNL     1      23.619  20.435  68.267  1.00  0.00     0.022 C
HETATM   24  C11 UNL     1      24.492  20.380  67.055  1.00  0.00     0.141 C
ENDBRANCH  10  20
BRANCH   1  25
HETATM   25  N2  UNL     1      27.263  19.267  61.039  1.00  0.00    -0.315 N
ATOM     26  H2  UNL     1      26.553  19.292  60.307  1.00  0.00     0.185 HD
BRANCH  25  27
HETATM   27  N1  UNL     1      28.565  18.918  60.706  1.00  0.00    -0.345 N
ATOM     28  H12 UNL     1      29.004  18.155  61.221  1.00  0.00     0.176 HD
ATOM     29  H11 UNL     1      29.080  19.401  59.971  1.00  0.00     0.176 HD
ENDBRANCH  25  27
ENDBRANCH   1  25
TORSDOF 6
ENDMDL