MODEL 3
REMARK VINA RESULT: -6.652120673      3.013      5.988
REMARK  6 active torsions:
REMARK  status: ('A' for Active; 'I' for Inactive)
REMARK    1  A    between atoms: N1_1  and  C1_5
REMARK    2  A    between atoms: C1_5  and  C2_6
REMARK    3  A    between atoms: C2_6  and  C3_7
REMARK    4  A    between atoms: C3_7  and  C4_8
REMARK    5  A    between atoms: C6_13  and  C7_14
REMARK    6  A    between atoms: C10_24  and  N5_25
ROOT
HETATM    1  C4  UNL     1      27.843  16.267  62.643  1.00  0.00     0.158 C
HETATM    2  N2  UNL     1      29.237  15.927  62.420  1.00  0.00    -0.347 N
ATOM      3  H2  UNL     1      29.459  14.981  62.112  1.00  0.00     0.163 HD
HETATM    4  C5  UNL     1      30.300  16.831  62.603  1.00  0.00     0.247 C
HETATM    5  O1  UNL     1      31.292  16.788  61.830  1.00  0.00    -0.271 OA
HETATM    6  C6  UNL     1      30.343  17.870  63.682  1.00  0.00     0.238 C
HETATM    7  N3  UNL     1      30.062  19.187  63.150  1.00  0.00    -0.341 N
ATOM      8  H3  UNL     1      30.653  19.543  62.399  1.00  0.00     0.163 HD
HETATM    9  C8  UNL     1      29.000  20.010  63.624  1.00  0.00     0.244 C
HETATM   10  O3  UNL     1      28.938  21.173  63.102  1.00  0.00    -0.272 OA
HETATM   11  C9  UNL     1      28.031  19.564  64.648  1.00  0.00     0.337 C
HETATM   12  N4  UNL     1      27.141  18.538  64.156  1.00  0.00    -0.031 N
ATOM     13  H41 UNL     1      26.286  18.504  64.710  1.00  0.00     0.280 HD
ATOM     14  H42 UNL     1      27.511  17.609  64.360  1.00  0.00     0.280 HD
HETATM   15  C10 UNL     1      26.839  18.672  62.757  1.00  0.00     0.451 C
HETATM   16  C11 UNL     1      27.491  17.576  62.025  1.00  0.00     0.206 C
HETATM   17  O4  UNL     1      27.771  17.717  60.844  1.00  0.00    -0.291 OA
ENDROOT
BRANCH   1  18
HETATM   18  C3  UNL     1      26.917  15.237  62.033  1.00  0.00     0.034 C
BRANCH  18  19
HETATM   19  C2  UNL     1      27.609  14.271  61.122  1.00  0.00     0.029 C
BRANCH  19  20
HETATM   20  C1  UNL     1      26.666  14.058  59.930  1.00  0.00     0.230 C
BRANCH  20  21
HETATM   21  N1  UNL     1      26.453  15.368  59.335  1.00  0.00    -0.079 N
ATOM     22  H13 UNL     1      27.229  15.677  58.749  1.00  0.00     0.274 HD
ATOM     23  H12 UNL     1      25.737  15.371  58.609  1.00  0.00     0.274 HD
ATOM     24  H11 UNL     1      26.249  16.004  60.106  1.00  0.00     0.274 HD
ENDBRANCH  20  21
ENDBRANCH  19  20
ENDBRANCH  18  19
ENDBRANCH   1  18
BRANCH  15  25
HETATM   25  N5  UNL     1      25.403  18.606  62.546  1.00  0.00    -0.043 N
ATOM     26  H53 UNL     1      25.090  17.654  62.353  1.00  0.00     0.277 HD
ATOM     27  H52 UNL     1      24.883  18.763  63.409  1.00  0.00     0.277 HD
ATOM     28  H51 UNL     1      25.126  19.255  61.810  1.00  0.00     0.277 HD
ENDBRANCH  15  25
BRANCH   6  29
HETATM   29  C7  UNL     1      31.651  17.876  64.359  1.00  0.00     0.266 C
HETATM   30  O2  UNL     1      31.856  18.641  65.264  1.00  0.00    -0.304 OA
ENDBRANCH   6  29
TORSDOF 6
ENDMDL