MODEL 5
REMARK VINA RESULT: -7.170413504      2.279      4.354
REMARK  5 active torsions:
REMARK  status: ('A' for Active; 'I' for Inactive)
REMARK       I    between atoms: C1_4  and  N3_6
REMARK    1  A    between atoms: N3_6  and  N4_8
REMARK    2  A    between atoms: C3_12  and  C4_13
REMARK    3  A    between atoms: C4_13  and  C5_14
REMARK    4  A    between atoms: C5_14  and  N6_15
REMARK    5  A    between atoms: N6_15  and  S1_17
ROOT
HETATM    1  N4  UNL     1      25.936  19.587  63.553  1.00  0.00    -0.151 N
HETATM    2  N5  UNL     1      26.116  18.996  62.301  1.00  0.00    -0.273 N
ATOM      3  H5  UNL     1      25.347  18.760  61.674  1.00  0.00     0.189 HD
HETATM    4  C2  UNL     1      27.462  18.762  61.997  1.00  0.00     0.102 A
HETATM    5  C3  UNL     1      28.046  18.231  60.935  1.00  0.00     0.010 C
HETATM    6  C6  UNL     1      28.218  19.250  63.168  1.00  0.00     0.270 A
HETATM    7  O4  UNL     1      29.459  19.242  63.342  1.00  0.00    -0.280 OA
HETATM    8  C7  UNL     1      27.226  19.753  64.108  1.00  0.00     0.334 A
HETATM    9  O5  UNL     1      27.470  20.260  65.245  1.00  0.00    -0.260 OA
ENDROOT
BRANCH   5  10
HETATM   10  C4  UNL     1      27.149  17.777  59.816  1.00  0.00     0.050 C
BRANCH  10  11
HETATM   11  C5  UNL     1      26.631  16.399  60.049  1.00  0.00     0.138 C
BRANCH  11  12
HETATM   12  N6  UNL     1      25.192  16.441  60.027  1.00  0.00    -0.301 N
ATOM     13  H6  UNL     1      24.646  16.695  59.203  1.00  0.00     0.174 HD
BRANCH  12  14
HETATM   14  S1  UNL     1      24.494  16.018  61.539  1.00  0.00     0.204 S
HETATM   15  O1  UNL     1      23.721  14.735  61.403  1.00  0.00    -0.578 OA
HETATM   16  O2  UNL     1      25.516  15.910  62.627  1.00  0.00    -0.578 OA
HETATM   17  O3  UNL     1      23.413  17.221  61.966  1.00  0.00    -0.578 OA
ENDBRANCH  12  14
ENDBRANCH  11  12
ENDBRANCH  10  11
ENDBRANCH   5  10
BRANCH   1  18
HETATM   18  N3  UNL     1      24.747  19.964  64.192  1.00  0.00    -0.249 N
HETATM   19  C1  UNL     1      23.975  19.008  64.894  1.00  0.00     0.202 C
HETATM   20  N1  UNL     1      24.308  17.771  64.892  1.00  0.00    -0.372 N
HETATM   21  N2  UNL     1      22.822  19.387  65.612  1.00  0.00    -0.062 NA
ATOM     22  H12 UNL     1      23.752  17.082  65.397  1.00  0.00     0.158 HD
ATOM     23  H11 UNL     1      25.142  17.496  64.372  1.00  0.00     0.158 HD
ATOM     24  H3  UNL     1      24.435  20.934  64.150  1.00  0.00     0.192 HD
ENDBRANCH   1  18
TORSDOF 5
ENDMDL