MODEL 5
REMARK VINA RESULT: -6.499643152      2.221      2.869
REMARK  8 active torsions:
REMARK  status: ('A' for Active; 'I' for Inactive)
REMARK    1  A    between atoms: C2_5  and  N2_6
REMARK    2  A    between atoms: N2_6  and  C3_8
REMARK    3  A    between atoms: C3_8  and  C4_9
REMARK    4  A    between atoms: C4_9  and  C5_10
REMARK    5  A    between atoms: C5_10  and  N3_11
REMARK    6  A    between atoms: N3_11  and  C6_13
REMARK    7  A    between atoms: C6_13  and  N4_15
REMARK    8  A    between atoms: N4_15  and  O2_17
ROOT
HETATM    1  O1  UNL     1      31.510  17.687  62.743  1.00  0.00    -0.246 OA
HETATM    2  C1  UNL     1      30.341  18.012  62.408  1.00  0.00     0.341 C
HETATM    3  N1  UNL     1      29.552  17.094  61.819  1.00  0.00    -0.141 N
ATOM      4  H1  UNL     1      30.038  16.264  61.480  1.00  0.00     0.189 HD
HETATM    5  C2  UNL     1      28.210  17.099  61.604  1.00  0.00     0.685 C
HETATM    6  N5  UNL     1      27.285  17.988  62.023  1.00  0.00    -0.151 N
ATOM      7  H5  UNL     1      26.308  17.695  62.020  1.00  0.00     0.188 HD
HETATM    8  C7  UNL     1      27.566  19.235  62.444  1.00  0.00     0.328 C
HETATM    9  O3  UNL     1      26.544  19.930  62.655  1.00  0.00    -0.261 OA
HETATM   10  C8  UNL     1      28.807  19.841  62.671  1.00  0.00     0.318 C
HETATM   11  O4  UNL     1      28.791  21.074  62.874  1.00  0.00    -0.262 OA
HETATM   12  N6  UNL     1      30.034  19.286  62.702  1.00  0.00    -0.270 N
ATOM     13  H6  UNL     1      30.807  19.893  62.977  1.00  0.00     0.174 HD
ENDROOT
BRANCH   5  14
HETATM   14  N2  UNL     1      27.812  16.118  60.912  1.00  0.00    -0.226 N
ATOM     15  H2  UNL     1      27.348  16.357  60.035  1.00  0.00     0.177 HD
BRANCH  14  16
HETATM   16  C3  UNL     1      27.923  14.737  61.188  1.00  0.00     0.139 C
BRANCH  16  17
HETATM   17  C4  UNL     1      26.757  13.912  60.650  1.00  0.00     0.040 C
BRANCH  17  18
HETATM   18  C5  UNL     1      25.751  13.790  61.771  1.00  0.00     0.123 C
BRANCH  18  19
HETATM   19  N3  UNL     1      24.484  14.326  61.392  1.00  0.00    -0.366 N
ATOM     20  H3  UNL     1      23.742  13.704  61.071  1.00  0.00     0.161 HD
BRANCH  19  21
HETATM   21  C6  UNL     1      24.257  15.721  61.462  1.00  0.00     0.191 C
HETATM   22  S1  UNL     1      24.100  16.446  62.904  1.00  0.00    -0.039 SA
BRANCH  21  23
HETATM   23  N4  UNL     1      24.158  16.534  60.303  1.00  0.00    -0.244 N
ATOM     24  H4  UNL     1      23.251  16.817  59.933  1.00  0.00     0.196 HD
BRANCH  23  25
HETATM   25  O2  UNL     1      25.304  16.919  59.708  1.00  0.00    -0.288 OA
ATOM     26  H2  UNL     1      25.872  17.512  60.186  1.00  0.00     0.244 HD
ENDBRANCH  23  25
ENDBRANCH  21  23
ENDBRANCH  19  21
ENDBRANCH  18  19
ENDBRANCH  17  18
ENDBRANCH  16  17
ENDBRANCH  14  16
ENDBRANCH   5  14
TORSDOF 8
ENDMDL