MODEL 1
REMARK VINA RESULT: -6.542290927      0.000      0.000
REMARK  9 active torsions:
REMARK  status: ('A' for Active; 'I' for Inactive)
REMARK    1  A    between atoms: N1_1  and  N2_4
REMARK    2  A    between atoms: N2_4  and  N3_5
REMARK    3  A    between atoms: N3_5  and  N4_7
REMARK    4  A    between atoms: N4_7  and  C1_9
REMARK    5  A    between atoms: C2_10  and  C3_11
REMARK    6  A    between atoms: C3_11  and  C4_12
REMARK    7  A    between atoms: C4_12  and  N5_13
REMARK    8  A    between atoms: C8_22  and  S1_23
REMARK    9  A    between atoms: S1_23  and  N9_24
ROOT
HETATM    1  C1  UNL     1      26.760  17.305  61.873  1.00  0.00     0.082 A
HETATM    2  C2  UNL     1      28.091  17.137  61.584  1.00  0.00    -0.011 A
HETATM    3  C6  UNL     1      28.608  15.856  61.552  1.00  0.00     0.097 A
HETATM    4  N8  UNL     1      27.888  14.754  61.793  1.00  0.00    -0.373 N
ATOM      5  H8  UNL     1      28.311  13.827  61.757  1.00  0.00     0.164 HD
HETATM    6  C7  UNL     1      26.580  14.919  62.085  1.00  0.00     0.115 A
HETATM    7  C8  UNL     1      25.984  16.137  62.136  1.00  0.00     0.123 A
ENDROOT
BRANCH   1   8
HETATM    8  N4  UNL     1      26.148  18.332  61.871  1.00  0.00    -0.273 N
ATOM      9  H4  UNL     1      25.603  18.307  61.010  1.00  0.00     0.189 HD
BRANCH   8  10
HETATM   10  N3  UNL     1      25.834  19.473  62.431  1.00  0.00    -0.156 N
ATOM     11  H3  UNL     1      26.060  20.275  61.843  1.00  0.00     0.225 HD
BRANCH  10  12
HETATM   12  N2  UNL     1      25.348  19.787  63.465  1.00  0.00    -0.228 NA
BRANCH  12  13
HETATM   13  N1  UNL     1      24.810  20.114  64.583  1.00  0.00    -0.259 N
ATOM     14  H12 UNL     1      24.859  19.369  63.889  1.00  0.00     0.193 HD
ATOM     15  H11 UNL     1      24.389  20.387  65.472  1.00  0.00     0.193 HD
ENDBRANCH  12  13
ENDBRANCH  10  12
ENDBRANCH   8  10
ENDBRANCH   1   8
BRANCH   2  16
HETATM   16  C3  UNL     1      29.033  18.311  61.440  1.00  0.00     0.062 C
BRANCH  16  17
HETATM   17  C4  UNL     1      29.587  18.467  62.844  1.00  0.00     0.126 C
BRANCH  17  18
HETATM   18  N5  UNL     1      29.707  19.829  63.280  1.00  0.00    -0.367 N
HETATM   19  C5  UNL     1      28.865  20.196  64.215  1.00  0.00     0.196 C
HETATM   20  N6  UNL     1      27.946  19.243  64.694  1.00  0.00    -0.067 NA
HETATM   21  N7  UNL     1      28.893  21.509  64.695  1.00  0.00    -0.067 NA
ATOM     22  H5  UNL     1      30.399  20.468  62.889  1.00  0.00     0.161 HD
ENDBRANCH  17  18
ENDBRANCH  16  17
ENDBRANCH   2  16
BRANCH   7  23
HETATM   23  S1  UNL     1      24.329  16.320  62.515  1.00  0.00     0.260 S
HETATM   24  O1  UNL     1      23.684  17.091  61.367  1.00  0.00    -0.201 OA
HETATM   25  O2  UNL     1      24.174  17.127  63.787  1.00  0.00    -0.201 OA
BRANCH  23  26
HETATM   26  N9  UNL     1      23.460  14.881  62.698  1.00  0.00    -0.324 N
ATOM     27  H92 UNL     1      23.714  14.193  63.407  1.00  0.00     0.169 HD
ATOM     28  H91 UNL     1      22.677  14.757  62.056  1.00  0.00     0.169 HD
ENDBRANCH  23  26
ENDBRANCH   7  23
TORSDOF 9
ENDMDL