MODEL 1
REMARK VINA RESULT: -7.377983871      0.000      0.000
REMARK  7 active torsions:
REMARK  status: ('A' for Active; 'I' for Inactive)
REMARK    1  A    between atoms: N1_1  and  C1_5
REMARK    2  A    between atoms: C1_5  and  C2_6
REMARK    3  A    between atoms: C2_6  and  N2_7
REMARK    4  A    between atoms: N2_7  and  C3_9
REMARK    5  A    between atoms: C4_13  and  C5_14
REMARK    6  A    between atoms: C5_14  and  C6_15
REMARK    7  A    between atoms: C6_15  and  N5_16
ROOT
HETATM    1  C3  UNL     1      26.447  15.993  61.717  1.00  0.00     0.186 C
HETATM    2  N3  UNL     1      26.984  16.837  62.635  1.00  0.00    -0.273 N
ATOM      3  H3  UNL     1      26.966  16.487  63.593  1.00  0.00     0.189 HD
HETATM    4  N4  UNL     1      27.531  18.047  62.496  1.00  0.00    -0.236 N
HETATM    5  C4  UNL     1      27.907  18.842  63.513  1.00  0.00     0.053 A
HETATM    6  C8  UNL     1      28.430  20.010  62.993  1.00  0.00     0.117 A
HETATM    7  N8  UNL     1      28.358  19.891  61.655  1.00  0.00    -0.344 N
ATOM      8  H8  UNL     1      28.669  20.595  60.985  1.00  0.00     0.167 HD
HETATM    9  C9  UNL     1      27.814  18.702  61.331  1.00  0.00     0.196 A
HETATM   10  C10 UNL     1      27.608  18.289  60.036  1.00  0.00     0.294 C
HETATM   11  O1  UNL     1      27.997  19.069  59.138  1.00  0.00    -0.264 OA
HETATM   12  N9  UNL     1      27.036  17.143  59.632  1.00  0.00    -0.284 N
ATOM     13  H9  UNL     1      26.905  17.060  58.625  1.00  0.00     0.172 HD
HETATM   14  C11 UNL     1      26.604  16.077  60.357  1.00  0.00     0.293 C
HETATM   15  O2  UNL     1      26.332  15.078  59.653  1.00  0.00    -0.264 OA
ENDROOT
BRANCH   1  16
HETATM   16  N2  UNL     1      25.719  15.017  62.128  1.00  0.00    -0.369 N
ATOM     17  H2  UNL     1      26.145  14.091  62.186  1.00  0.00     0.161 HD
BRANCH  16  18
HETATM   18  C2  UNL     1      24.338  15.155  62.511  1.00  0.00     0.148 C
BRANCH  18  19
HETATM   19  C1  UNL     1      23.515  14.012  61.916  1.00  0.00     0.249 C
BRANCH  19  20
HETATM   20  N1  UNL     1      23.434  14.139  60.475  1.00  0.00    -0.078 N
ATOM     21  H13 UNL     1      22.870  14.942  60.197  1.00  0.00     0.274 HD
ATOM     22  H12 UNL     1      24.324  14.429  60.070  1.00  0.00     0.274 HD
ATOM     23  H11 UNL     1      23.092  13.274  60.058  1.00  0.00     0.274 HD
ENDBRANCH  19  20
ENDBRANCH  18  19
ENDBRANCH  16  18
ENDBRANCH   1  16
BRANCH   5  24
HETATM   24  C5  UNL     1      27.774  18.505  64.953  1.00  0.00     0.080 C
BRANCH  24  25
HETATM   25  C6  UNL     1      26.593  19.228  65.565  1.00  0.00     0.128 C
BRANCH  25  26
HETATM   26  N5  UNL     1      25.350  18.536  65.308  1.00  0.00    -0.367 N
HETATM   27  C7  UNL     1      24.391  19.195  64.779  1.00  0.00     0.196 C
HETATM   28  N6  UNL     1      24.532  20.561  64.452  1.00  0.00    -0.067 NA
HETATM   29  N7  UNL     1      23.171  18.524  64.525  1.00  0.00    -0.067 NA
ATOM     30  H5  UNL     1      25.241  17.549  65.543  1.00  0.00     0.161 HD
ENDBRANCH  25  26
ENDBRANCH  24  25
ENDBRANCH   5  24
TORSDOF 7
ENDMDL