MODEL 1
REMARK VINA RESULT: -7.855613631      0.000      0.000
REMARK  6 active torsions:
REMARK  status: ('A' for Active; 'I' for Inactive)
REMARK    1  A    between atoms: N3_4  and  C2_6
REMARK    2  A    between atoms: C2_6  and  C3_7
REMARK    3  A    between atoms: C3_7  and  C4_8
REMARK    4  A    between atoms: C4_8  and  C5_9
REMARK    5  A    between atoms: C5_9  and  N4_10
REMARK    6  A    between atoms: C5_9  and  C6_14
ROOT
HETATM    1  C6  UNL     1      27.260  16.687  60.494  1.00  0.00     0.207 C
HETATM    2  N5  UNL     1      28.309  16.026  61.317  1.00  0.00    -0.344 N
ATOM      3  H5  UNL     1      28.255  15.011  61.234  1.00  0.00     0.163 HD
HETATM    4  C7  UNL     1      29.359  16.411  62.182  1.00  0.00     0.236 C
HETATM    5  O1  UNL     1      29.454  15.615  63.187  1.00  0.00    -0.272 OA
HETATM    6  C8  UNL     1      30.371  17.465  62.251  1.00  0.00     0.225 C
HETATM    7  N6  UNL     1      29.736  18.693  62.750  1.00  0.00    -0.356 N
ATOM      8  H6  UNL     1      30.120  19.066  63.619  1.00  0.00     0.162 HD
HETATM    9  C9  UNL     1      28.756  19.369  62.237  1.00  0.00     0.191 C
HETATM   10  N7  UNL     1      28.428  20.490  63.002  1.00  0.00    -0.063 NA
HETATM   11  N8  UNL     1      27.939  19.208  61.058  1.00  0.00    -0.299 N
ATOM     12  H8  UNL     1      27.526  20.082  60.730  1.00  0.00     0.171 HD
HETATM   13  C10 UNL     1      27.585  18.073  60.247  1.00  0.00     0.248 C
HETATM   14  O2  UNL     1      27.569  18.412  59.033  1.00  0.00    -0.271 OA
ENDROOT
BRANCH   1  15
HETATM   15  C5  UNL     1      25.983  16.305  61.113  1.00  0.00     0.215 C
BRANCH  15  16
HETATM   16  C4  UNL     1      25.517  16.863  62.377  1.00  0.00     0.037 C
BRANCH  16  17
HETATM   17  C3  UNL     1      24.068  16.709  62.725  1.00  0.00     0.022 C
BRANCH  17  18
HETATM   18  C2  UNL     1      23.737  17.458  64.022  1.00  0.00     0.122 C
BRANCH  18  19
HETATM   19  N3  UNL     1      24.487  18.681  64.119  1.00  0.00    -0.367 N
HETATM   20  C1  UNL     1      23.948  19.768  64.564  1.00  0.00     0.196 C
HETATM   21  N1  UNL     1      22.593  19.742  64.962  1.00  0.00    -0.067 NA
HETATM   22  N2  UNL     1      24.649  20.987  64.675  1.00  0.00    -0.067 NA
ATOM     23  H3  UNL     1      25.465  18.691  63.830  1.00  0.00     0.161 HD
ENDBRANCH  18  19
ENDBRANCH  17  18
ENDBRANCH  16  17
ENDBRANCH  15  16
BRANCH  15  24
HETATM   24  N4  UNL     1      24.977  16.755  60.079  1.00  0.00    -0.073 N
ATOM     25  H43 UNL     1      25.400  17.132  59.232  1.00  0.00     0.274 HD
ATOM     26  H42 UNL     1      24.476  15.987  59.632  1.00  0.00     0.274 HD
ATOM     27  H41 UNL     1      24.367  17.415  60.562  1.00  0.00     0.274 HD
ENDBRANCH  15  24
ENDBRANCH   1  15
TORSDOF 6
ENDMDL