MODEL 3
REMARK VINA RESULT: -7.467071716      2.109      7.422
REMARK  5 active torsions:
REMARK  status: ('A' for Active; 'I' for Inactive)
REMARK    1  A    between atoms: C1_2  and  C2_4
REMARK    2  A    between atoms: C2_4  and  N2_5
REMARK       I    between atoms: N2_5  and  C3_7
REMARK    3  A    between atoms: C3_7  and  C4_9
REMARK    4  A    between atoms: C4_9  and  N3_10
REMARK       I    between atoms: N3_10  and  C5_12
REMARK    5  A    between atoms: C5_12  and  C6_14
REMARK       I    between atoms: C6_14  and  N4_16
ROOT
HETATM    1  N2  UNL     1      24.902  18.163  66.325  1.00  0.00    -0.320 N
ATOM      2  H2  UNL     1      25.915  18.056  66.373  1.00  0.00     0.165 HD
HETATM    3  C3  UNL     1      24.323  18.046  65.070  1.00  0.00     0.237 C
HETATM    4  O2  UNL     1      23.075  18.166  64.948  1.00  0.00    -0.272 OA
ENDROOT
BRANCH   3   5
HETATM    5  C4  UNL     1      25.052  17.784  63.824  1.00  0.00     0.225 C
BRANCH   5   6
HETATM    6  N3  UNL     1      25.066  16.451  63.338  1.00  0.00    -0.344 N
HETATM    7  C5  UNL     1      24.206  16.110  62.268  1.00  0.00     0.310 C
HETATM    8  O3  UNL     1      23.453  16.969  61.765  1.00  0.00    -0.262 OA
ATOM      9  H3  UNL     1      25.683  15.753  63.751  1.00  0.00     0.163 HD
BRANCH   7  10
HETATM   10  C6  UNL     1      24.180  14.764  61.733  1.00  0.00     0.315 C
HETATM   11  O4  UNL     1      23.478  13.857  62.263  1.00  0.00    -0.262 OA
HETATM   12  N4  UNL     1      24.940  14.402  60.588  1.00  0.00    -0.295 N
HETATM   13  C7  UNL     1      26.211  14.422  60.542  1.00  0.00     0.203 C
ATOM     14  H4  UNL     1      24.436  14.109  59.751  1.00  0.00     0.171 HD
HETATM   15  N5  UNL     1      27.040  14.809  61.625  1.00  0.00    -0.066 NA
HETATM   16  N6  UNL     1      26.837  14.031  59.318  1.00  0.00    -0.066 NA
ENDBRANCH   7  10
ENDBRANCH   5   6
ENDBRANCH   3   5
BRANCH   1  17
HETATM   17  C2  UNL     1      24.220  18.421  67.567  1.00  0.00     0.278 C
HETATM   18  C8  UNL     1      25.058  18.511  68.768  1.00  0.00     0.073 C
HETATM   19  C9  UNL     1      24.199  17.852  69.853  1.00  0.00     0.032 C
HETATM   20  C10 UNL     1      23.454  16.826  69.085  1.00  0.00     0.236 C
HETATM   21  N7  UNL     1      23.248  17.385  67.787  1.00  0.00    -0.040 N
ATOM     22  H72 UNL     1      22.292  17.714  67.652  1.00  0.00     0.280 HD
ATOM     23  H71 UNL     1      23.260  16.678  67.051  1.00  0.00     0.280 HD
BRANCH  17  24
HETATM   24  C1  UNL     1      23.427  19.696  67.434  1.00  0.00     0.288 C
HETATM   25  N1  UNL     1      24.038  20.948  67.170  1.00  0.00    -0.058 NA
HETATM   26  O1  UNL     1      22.183  19.675  67.557  1.00  0.00    -0.272 OA
ENDBRANCH  17  24
ENDBRANCH   1  17
TORSDOF 5
ENDMDL