MODEL 1
REMARK VINA RESULT: -7.288867319      0.000      0.000
REMARK  6 active torsions:
REMARK  status: ('A' for Active; 'I' for Inactive)
REMARK    1  A    between atoms: N3_4  and  C2_6
REMARK    2  A    between atoms: C2_6  and  C3_7
REMARK    3  A    between atoms: C3_7  and  C4_8
REMARK    4  A    between atoms: C4_8  and  C5_9
REMARK    5  A    between atoms: C5_9  and  N4_10
REMARK    6  A    between atoms: C5_9  and  C6_14
REMARK       I    between atoms: C6_14  and  N5_16
ROOT
HETATM    1  C6  UNL     1      26.748  16.483  60.395  1.00  0.00     0.257 C
HETATM    2  O1  UNL     1      26.467  17.024  59.297  1.00  0.00    -0.271 OA
HETATM    3  N5  UNL     1      27.561  17.193  61.302  1.00  0.00    -0.281 N
HETATM    4  C7  UNL     1      27.872  16.544  62.551  1.00  0.00     0.237 C
HETATM    5  C8  UNL     1      29.220  16.910  63.078  1.00  0.00     0.236 C
HETATM    6  O2  UNL     1      29.926  15.916  63.415  1.00  0.00    -0.272 OA
HETATM    7  N6  UNL     1      29.849  18.169  63.267  1.00  0.00    -0.358 N
ATOM      8  H6  UNL     1      30.861  18.091  63.165  1.00  0.00     0.162 HD
HETATM    9  C9  UNL     1      29.465  19.528  63.562  1.00  0.00     0.142 C
HETATM   10  C10 UNL     1      28.340  20.065  62.753  1.00  0.00     0.142 C
HETATM   11  N7  UNL     1      28.245  19.603  61.409  1.00  0.00    -0.363 N
ATOM     12  H7  UNL     1      28.475  20.343  60.746  1.00  0.00     0.162 HD
HETATM   13  C11 UNL     1      27.944  18.487  60.795  1.00  0.00     0.193 C
HETATM   14  N8  UNL     1      28.003  18.573  59.386  1.00  0.00    -0.063 NA
ENDROOT
BRANCH   1  15
HETATM   15  C5  UNL     1      26.206  15.143  60.653  1.00  0.00     0.275 C
BRANCH  15  16
HETATM   16  C4  UNL     1      24.715  15.157  60.911  1.00  0.00     0.044 C
BRANCH  16  17
HETATM   17  C3  UNL     1      24.402  15.451  62.366  1.00  0.00     0.022 C
BRANCH  17  18
HETATM   18  C2  UNL     1      23.809  16.867  62.385  1.00  0.00     0.122 C
BRANCH  18  19
HETATM   19  N3  UNL     1      23.349  17.223  63.694  1.00  0.00    -0.367 N
HETATM   20  C1  UNL     1      23.923  18.123  64.431  1.00  0.00     0.196 C
HETATM   21  N1  UNL     1      23.407  18.417  65.713  1.00  0.00    -0.067 NA
HETATM   22  N2  UNL     1      25.074  18.849  64.005  1.00  0.00    -0.067 NA
ATOM     23  H3  UNL     1      22.528  16.745  64.066  1.00  0.00     0.161 HD
ENDBRANCH  18  19
ENDBRANCH  17  18
ENDBRANCH  16  17
ENDBRANCH  15  16
BRANCH  15  24
HETATM   24  N4  UNL     1      26.365  14.314  59.449  1.00  0.00    -0.066 N
ATOM     25  H43 UNL     1      27.093  13.604  59.526  1.00  0.00     0.275 HD
ATOM     26  H42 UNL     1      25.593  13.667  59.284  1.00  0.00     0.275 HD
ATOM     27  H41 UNL     1      26.514  14.984  58.695  1.00  0.00     0.275 HD
ENDBRANCH  15  24
ENDBRANCH   1  15
TORSDOF 6
ENDMDL