MODEL 3
REMARK VINA RESULT: -7.188499383      2.454      5.977
REMARK  4 active torsions:
REMARK  status: ('A' for Active; 'I' for Inactive)
REMARK       I    between atoms: C1_4  and  N3_6
REMARK    1  A    between atoms: C5_13  and  C6_14
REMARK    2  A    between atoms: C6_14  and  C7_15
REMARK    3  A    between atoms: C6_14  and  C9_23
REMARK    4  A    between atoms: N5_16  and  N6_18
ROOT
HETATM    1  N1  UNL     1      27.220  19.801  61.388  1.00  0.00    -0.374 N
ATOM      2  H11 UNL     1      26.202  19.855  61.418  1.00  0.00     0.158 HD
ATOM      3  H12 UNL     1      27.836  20.604  61.514  1.00  0.00     0.158 HD
HETATM    4  C1  UNL     1      27.718  18.609  61.175  1.00  0.00     0.184 C
HETATM    5  N2  UNL     1      29.138  18.533  61.132  1.00  0.00    -0.064 NA
HETATM    6  N3  UNL     1      26.857  17.486  60.999  1.00  0.00    -0.340 N
HETATM    7  C2  UNL     1      27.155  16.607  59.906  1.00  0.00     0.146 C
HETATM    8  C3  UNL     1      26.574  15.246  60.009  1.00  0.00     0.142 C
HETATM    9  N4  UNL     1      25.240  15.280  60.520  1.00  0.00    -0.358 N
ATOM     10  H4  UNL     1      24.508  14.711  60.097  1.00  0.00     0.162 HD
HETATM   11  C4  UNL     1      24.951  16.121  61.629  1.00  0.00     0.241 C
HETATM   12  O1  UNL     1      23.971  15.799  62.354  1.00  0.00    -0.271 OA
HETATM   13  C5  UNL     1      25.765  17.326  61.923  1.00  0.00     0.196 C
ENDROOT
BRANCH  13  14
HETATM   14  C6  UNL     1      26.161  17.446  63.367  1.00  0.00     0.147 C
BRANCH  14  15
HETATM   15  C7  UNL     1      24.930  17.562  64.176  1.00  0.00     0.096 C
HETATM   16  N5  UNL     1      25.015  17.988  65.386  1.00  0.00    -0.313 N
ATOM     17  H5  UNL     1      25.940  18.231  65.740  1.00  0.00     0.185 HD
BRANCH  16  18
HETATM   18  N6  UNL     1      23.937  18.137  66.236  1.00  0.00    -0.277 N
HETATM   19  C8  UNL     1      23.464  19.302  66.500  1.00  0.00     0.215 C
HETATM   20  N7  UNL     1      22.348  19.403  67.386  1.00  0.00    -0.065 NA
HETATM   21  N8  UNL     1      24.052  20.446  65.918  1.00  0.00    -0.065 NA
ATOM     22  H6  UNL     1      23.511  17.314  66.660  1.00  0.00     0.189 HD
ENDBRANCH  16  18
ENDBRANCH  14  15
BRANCH  14  23
HETATM   23  C9  UNL     1      27.009  16.375  63.879  1.00  0.00     0.242 C
HETATM   24  N9  UNL     1      27.959  16.581  64.912  1.00  0.00    -0.061 NA
HETATM   25  O2  UNL     1      26.911  15.217  63.400  1.00  0.00    -0.276 OA
ENDBRANCH  14  23
ENDBRANCH  13  14
TORSDOF 4
ENDMDL