MODEL 2
REMARK VINA RESULT: -7.155206296      1.755      2.166
REMARK  6 active torsions:
REMARK  status: ('A' for Active; 'I' for Inactive)
REMARK    1  A    between atoms: N3_12  and  N4_14
REMARK    2  A    between atoms: C9_18  and  N5_19
REMARK    3  A    between atoms: N5_19  and  C10_21
REMARK    4  A    between atoms: C10_21  and  C11_22
REMARK    5  A    between atoms: C11_22  and  C12_23
REMARK    6  A    between atoms: C12_23  and  N6_24
ROOT
HETATM    1  C1  UNL     1      27.819  18.710  59.597  1.00  0.00     0.045 C
HETATM    2  C2  UNL     1      28.099  18.685  60.888  1.00  0.00     0.051 A
HETATM    3  N1  UNL     1      29.220  19.017  61.524  1.00  0.00    -0.355 N
ATOM      4  H1  UNL     1      30.063  19.358  61.061  1.00  0.00     0.166 HD
HETATM    5  C3  UNL     1      29.102  18.846  62.872  1.00  0.00     0.037 A
HETATM    6  C4  UNL     1      30.057  19.101  63.746  1.00  0.00     0.044 C
HETATM    7  C5  UNL     1      27.849  18.378  63.144  1.00  0.00     0.041 A
HETATM    8  C6  UNL     1      27.227  18.283  61.892  1.00  0.00     0.074 A
HETATM    9  N2  UNL     1      26.007  17.876  61.788  1.00  0.00    -0.342 N
ATOM     10  H2  UNL     1      25.590  17.828  60.858  1.00  0.00     0.167 HD
HETATM   11  C7  UNL     1      25.222  17.495  62.895  1.00  0.00     0.101 A
HETATM   12  N3  UNL     1      23.998  17.114  62.789  1.00  0.00    -0.295 N
ATOM     13  H3  UNL     1      23.492  16.855  63.636  1.00  0.00     0.187 HD
HETATM   14  C8  UNL     1      25.795  17.540  64.251  1.00  0.00     0.135 A
HETATM   15  C9  UNL     1      27.216  18.039  64.248  1.00  0.00     0.027 A
ENDROOT
BRANCH  15  16
HETATM   16  N5  UNL     1      27.786  18.105  65.554  1.00  0.00    -0.392 N
ATOM     17  H5  UNL     1      28.308  17.325  65.953  1.00  0.00     0.159 HD
BRANCH  16  18
HETATM   18  C10 UNL     1      27.582  19.347  66.287  1.00  0.00     0.121 C
BRANCH  18  19
HETATM   19  C11 UNL     1      26.506  19.242  67.313  1.00  0.00     0.039 C
BRANCH  19  20
HETATM   20  C12 UNL     1      25.463  20.295  67.086  1.00  0.00     0.123 C
BRANCH  20  21
HETATM   21  N6  UNL     1      24.246  19.681  66.557  1.00  0.00    -0.367 N
HETATM   22  C13 UNL     1      23.835  19.995  65.397  1.00  0.00     0.196 C
HETATM   23  N7  UNL     1      24.552  20.931  64.621  1.00  0.00    -0.067 NA
HETATM   24  N8  UNL     1      22.653  19.403  64.877  1.00  0.00    -0.067 NA
ATOM     25  H6  UNL     1      23.729  19.003  67.118  1.00  0.00     0.161 HD
ENDBRANCH  20  21
ENDBRANCH  19  20
ENDBRANCH  18  19
ENDBRANCH  16  18
ENDBRANCH  15  16
BRANCH  12  26
HETATM   26  N4  UNL     1      23.333  17.038  61.572  1.00  0.00    -0.344 N
ATOM     27  H42 UNL     1      23.281  16.125  61.119  1.00  0.00     0.176 HD
ATOM     28  H41 UNL     1      22.903  17.847  61.123  1.00  0.00     0.176 HD
ENDBRANCH  12  26
TORSDOF 6
ENDMDL