MODEL 2
REMARK VINA RESULT: -7.523025574      2.510      3.494
REMARK  6 active torsions:
REMARK  status: ('A' for Active; 'I' for Inactive)
REMARK    1  A    between atoms: N1_1  and  C1_5
REMARK    2  A    between atoms: C1_5  and  C2_6
REMARK    3  A    between atoms: C4_11  and  C5_12
REMARK    4  A    between atoms: C5_12  and  C6_13
REMARK    5  A    between atoms: C6_13  and  C7_14
REMARK    6  A    between atoms: C7_14  and  N3_15
ROOT
HETATM    1  C2  UNL     1      25.633  16.550  61.595  1.00  0.00     0.202 C
HETATM    2  N2  UNL     1      25.502  17.810  62.213  1.00  0.00    -0.344 N
ATOM      3  H2  UNL     1      24.549  18.070  62.466  1.00  0.00     0.163 HD
HETATM    4  C3  UNL     1      26.491  18.770  62.536  1.00  0.00     0.241 C
HETATM    5  O1  UNL     1      26.327  19.987  62.229  1.00  0.00    -0.271 OA
HETATM    6  C4  UNL     1      27.785  18.504  63.239  1.00  0.00     0.176 C
HETATM    7  N6  UNL     1      28.891  18.374  62.316  1.00  0.00    -0.346 N
ATOM      8  H6  UNL     1      29.212  19.174  61.772  1.00  0.00     0.163 HD
HETATM    9  C9  UNL     1      29.516  17.114  62.186  1.00  0.00     0.236 C
HETATM   10  O2  UNL     1      30.780  17.034  62.007  1.00  0.00    -0.272 OA
HETATM   11  C10 UNL     1      28.666  15.901  62.263  1.00  0.00     0.225 C
HETATM   12  N7  UNL     1      28.006  15.823  60.955  1.00  0.00    -0.350 N
ATOM     13  H7  UNL     1      28.509  15.360  60.198  1.00  0.00     0.163 HD
HETATM   14  C11 UNL     1      26.745  16.336  60.674  1.00  0.00     0.242 C
HETATM   15  O3  UNL     1      26.504  16.665  59.477  1.00  0.00    -0.271 OA
ENDROOT
BRANCH   6  16
HETATM   16  C5  UNL     1      28.165  19.712  64.123  1.00  0.00     0.036 C
BRANCH  16  17
HETATM   17  C6  UNL     1      27.763  19.305  65.537  1.00  0.00     0.022 C
BRANCH  17  18
HETATM   18  C7  UNL     1      26.509  20.047  65.966  1.00  0.00     0.122 C
BRANCH  18  19
HETATM   19  N3  UNL     1      25.330  19.224  65.856  1.00  0.00    -0.367 N
HETATM   20  C8  UNL     1      24.333  19.696  65.170  1.00  0.00     0.196 C
HETATM   21  N4  UNL     1      23.143  18.943  65.019  1.00  0.00    -0.067 NA
HETATM   22  N5  UNL     1      24.375  20.975  64.540  1.00  0.00    -0.067 NA
ATOM     23  H3  UNL     1      25.281  18.307  66.299  1.00  0.00     0.161 HD
ENDBRANCH  18  19
ENDBRANCH  17  18
ENDBRANCH  16  17
ENDBRANCH   6  16
BRANCH   1  24
HETATM   24  C1  UNL     1      24.353  16.113  60.890  1.00  0.00     0.264 C
BRANCH  24  25
HETATM   25  N1  UNL     1      24.372  14.704  60.580  1.00  0.00    -0.077 N
ATOM     26  H13 UNL     1      24.876  14.520  59.712  1.00  0.00     0.274 HD
ATOM     27  H12 UNL     1      24.973  14.188  61.223  1.00  0.00     0.274 HD
ATOM     28  H11 UNL     1      23.431  14.313  60.555  1.00  0.00     0.274 HD
ENDBRANCH  24  25
ENDBRANCH   1  24
TORSDOF 6
ENDMDL