MODEL 1
REMARK VINA RESULT: -8.291370611      0.000      0.000
REMARK  4 active torsions:
REMARK  status: ('A' for Active; 'I' for Inactive)
REMARK       I    between atoms: C1_4  and  N3_6
REMARK    1  A    between atoms: N3_6  and  C2_8
REMARK    2  A    between atoms: C2_8  and  C3_9
REMARK    3  A    between atoms: C3_9  and  N4_10
REMARK       I    between atoms: N4_10  and  C4_12
REMARK    4  A    between atoms: C4_12  and  C5_14
ROOT
HETATM    1  C5  UNL     1      27.294  18.167  61.382  1.00  0.00     0.174 C
HETATM    2  N5  UNL     1      27.133  18.173  60.104  1.00  0.00    -0.306 N
ATOM      3  H5  UNL     1      27.269  18.987  59.504  1.00  0.00     0.170 HD
HETATM    4  C6  UNL     1      26.738  16.887  59.645  1.00  0.00     0.267 C
HETATM    5  O2  UNL     1      26.763  16.545  58.443  1.00  0.00    -0.269 OA
HETATM    6  C7  UNL     1      26.337  16.149  60.826  1.00  0.00     0.235 C
HETATM    7  N6  UNL     1      27.021  16.867  61.876  1.00  0.00    -0.342 N
ATOM      8  H6  UNL     1      27.263  16.506  62.799  1.00  0.00     0.163 HD
HETATM    9  C8  UNL     1      24.914  15.976  61.038  1.00  0.00     0.045 C
HETATM   10  N7  UNL     1      23.975  16.682  60.559  1.00  0.00    -0.401 N
ATOM     11  H71 UNL     1      22.973  16.560  60.708  1.00  0.00     0.155 HD
ATOM     12  H72 UNL     1      24.093  17.487  59.943  1.00  0.00     0.155 HD
HETATM   13  C9  UNL     1      24.743  14.806  61.933  1.00  0.00     0.178 C
HETATM   14  N8  UNL     1      26.007  14.074  61.802  1.00  0.00    -0.353 N
ATOM     15  H8  UNL     1      26.249  13.218  62.299  1.00  0.00     0.162 HD
HETATM   16  C10 UNL     1      26.842  14.752  60.870  1.00  0.00     0.262 C
HETATM   17  O3  UNL     1      27.790  14.282  60.228  1.00  0.00    -0.270 OA
ENDROOT
BRANCH   1  18
HETATM   18  C4  UNL     1      27.706  19.351  62.183  1.00  0.00     0.285 C
HETATM   19  N4  UNL     1      29.067  19.666  62.354  1.00  0.00    -0.353 N
ATOM     20  H4  UNL     1      29.771  19.071  61.916  1.00  0.00     0.162 HD
HETATM   21  O1  UNL     1      26.842  20.087  62.716  1.00  0.00    -0.264 OA
BRANCH  19  22
HETATM   22  C3  UNL     1      29.501  20.802  63.128  1.00  0.00     0.142 C
BRANCH  22  23
HETATM   23  C2  UNL     1      29.745  20.471  64.557  1.00  0.00     0.142 C
BRANCH  23  24
HETATM   24  N3  UNL     1      29.920  21.689  65.350  1.00  0.00    -0.363 N
HETATM   25  C1  UNL     1      28.943  22.179  66.228  1.00  0.00     0.181 C
HETATM   26  N1  UNL     1      29.252  22.988  67.174  1.00  0.00    -0.374 N
HETATM   27  N2  UNL     1      27.591  21.780  66.077  1.00  0.00    -0.064 NA
ATOM     28  H12 UNL     1      28.541  23.344  67.813  1.00  0.00     0.158 HD
ATOM     29  H11 UNL     1      30.224  23.274  67.283  1.00  0.00     0.158 HD
ATOM     30  H3  UNL     1      30.793  22.207  65.258  1.00  0.00     0.162 HD
ENDBRANCH  23  24
ENDBRANCH  22  23
ENDBRANCH  19  22
ENDBRANCH   1  18
TORSDOF 4
ENDMDL