MODEL 4
REMARK VINA RESULT: -7.321512620      1.525      1.812
REMARK  6 active torsions:
REMARK  status: ('A' for Active; 'I' for Inactive)
REMARK    1  A    between atoms: N3_4  and  C2_6
REMARK    2  A    between atoms: C2_6  and  C3_7
REMARK    3  A    between atoms: C3_7  and  C4_8
REMARK    4  A    between atoms: C6_13  and  C7_14
REMARK    5  A    between atoms: C7_14  and  S1_15
REMARK    6  A    between atoms: S1_15  and  N5_16
ROOT
HETATM    1  C4  UNL     1      27.640  16.695  61.093  1.00  0.00     0.171 C
HETATM    2  C5  UNL     1      28.279  15.504  61.678  1.00  0.00     0.232 C
HETATM    3  O1  UNL     1      29.149  15.645  62.563  1.00  0.00    -0.273 OA
HETATM    4  N4  UNL     1      27.888  14.234  61.219  1.00  0.00    -0.338 N
ATOM      5  H4  UNL     1      28.554  13.461  61.198  1.00  0.00     0.164 HD
HETATM    6  C6  UNL     1      26.528  14.046  60.777  1.00  0.00     0.202 C
HETATM    7  N6  UNL     1      26.063  15.155  59.996  1.00  0.00    -0.338 N
ATOM      8  H6  UNL     1      25.208  15.049  59.450  1.00  0.00     0.164 HD
HETATM    9  C8  UNL     1      26.758  16.408  59.956  1.00  0.00     0.232 C
HETATM   10  O4  UNL     1      26.625  17.217  59.007  1.00  0.00    -0.273 OA
ENDROOT
BRANCH   1  11
HETATM   11  C3  UNL     1      26.974  17.565  62.125  1.00  0.00     0.043 C
BRANCH  11  12
HETATM   12  C2  UNL     1      27.690  18.889  62.270  1.00  0.00     0.123 C
BRANCH  12  13
HETATM   13  N3  UNL     1      28.761  18.749  63.237  1.00  0.00    -0.367 N
HETATM   14  C1  UNL     1      29.340  19.790  63.733  1.00  0.00     0.196 C
HETATM   15  N1  UNL     1      28.995  21.106  63.389  1.00  0.00    -0.067 NA
HETATM   16  N2  UNL     1      30.381  19.572  64.674  1.00  0.00    -0.067 NA
ATOM     17  H3  UNL     1      29.060  17.818  63.529  1.00  0.00     0.161 HD
ENDBRANCH  12  13
ENDBRANCH  11  12
ENDBRANCH   1  11
BRANCH   6  18
HETATM   18  C7  UNL     1      25.703  13.779  62.011  1.00  0.00     0.209 C
BRANCH  18  19
HETATM   19  S1  UNL     1      24.059  14.416  61.891  1.00  0.00     0.228 S
HETATM   20  O2  UNL     1      23.218  13.644  62.893  1.00  0.00    -0.206 OA
HETATM   21  O3  UNL     1      23.960  15.849  62.249  1.00  0.00    -0.206 OA
BRANCH  19  22
HETATM   22  N5  UNL     1      23.365  14.172  60.351  1.00  0.00    -0.328 N
ATOM     23  H52 UNL     1      22.609  13.507  60.186  1.00  0.00     0.168 HD
ATOM     24  H51 UNL     1      23.786  14.759  59.630  1.00  0.00     0.168 HD
ENDBRANCH  19  22
ENDBRANCH  18  19
ENDBRANCH   6  18
TORSDOF 6
ENDMDL