MODEL 4
REMARK VINA RESULT: -6.829168289      1.999      2.446
REMARK  7 active torsions:
REMARK  status: ('A' for Active; 'I' for Inactive)
REMARK    1  A    between atoms: N1_2  and  C3_4
REMARK    2  A    between atoms: C3_4  and  C4_5
REMARK       I    between atoms: C4_5  and  N2_7
REMARK    3  A    between atoms: N2_7  and  C5_9
REMARK    4  A    between atoms: C7_16  and  N5_17
REMARK    5  A    between atoms: N5_17  and  C8_19
REMARK    6  A    between atoms: C8_19  and  C9_20
REMARK    7  A    between atoms: C9_20  and  N6_21
ROOT
HETATM    1  C5  UNL     1      27.057  18.684  61.706  1.00  0.00     0.701 A
HETATM    2  N3  UNL     1      27.620  19.446  60.757  1.00  0.00    -0.129 N
ATOM      3  H3  UNL     1      28.020  20.352  61.003  1.00  0.00     0.205 HD
HETATM    4  N4  UNL     1      27.659  19.028  59.498  1.00  0.00    -0.249 N
ATOM      5  H4  UNL     1      28.087  19.610  58.777  1.00  0.00     0.191 HD
HETATM    6  C6  UNL     1      27.133  17.836  59.178  1.00  0.00     0.304 A
HETATM    7  O2  UNL     1      27.188  17.480  57.996  1.00  0.00    -0.263 OA
HETATM    8  C7  UNL     1      26.549  17.036  60.135  1.00  0.00     0.187 A
HETATM    9  N9  UNL     1      26.528  17.501  61.413  1.00  0.00    -0.170 N
ATOM     10  H9  UNL     1      26.104  16.938  62.151  1.00  0.00     0.186 HD
ENDROOT
BRANCH   8  11
HETATM   11  N5  UNL     1      26.029  15.896  59.915  1.00  0.00    -0.367 N
ATOM     12  H5  UNL     1      25.032  15.867  59.700  1.00  0.00     0.161 HD
BRANCH  11  13
HETATM   13  C8  UNL     1      26.741  14.636  59.946  1.00  0.00     0.165 C
BRANCH  13  14
HETATM   14  C9  UNL     1      26.725  14.012  61.310  1.00  0.00     0.082 C
BRANCH  14  15
HETATM   15  N6  UNL     1      25.435  13.634  61.698  1.00  0.00    -0.345 N
HETATM   16  C10 UNL     1      24.451  14.187  62.226  1.00  0.00     0.200 C
HETATM   17  N7  UNL     1      23.270  13.391  62.457  1.00  0.00    -0.067 NA
HETATM   18  N8  UNL     1      24.389  15.534  62.622  1.00  0.00    -0.067 NA
ATOM     19  H6  UNL     1      25.252  12.652  61.495  1.00  0.00     0.167 HD
ENDBRANCH  14  15
ENDBRANCH  13  14
ENDBRANCH  11  13
ENDBRANCH   8  11
BRANCH   1  20
HETATM   20  N2  UNL     1      27.034  19.117  62.912  1.00  0.00    -0.157 N
HETATM   21  C4  UNL     1      28.242  19.530  63.528  1.00  0.00     0.264 C
HETATM   22  O1  UNL     1      28.570  20.738  63.432  1.00  0.00    -0.271 OA
ATOM     23  H2  UNL     1      26.153  19.163  63.426  1.00  0.00     0.187 HD
BRANCH  21  24
HETATM   24  C3  UNL     1      29.126  18.603  64.274  1.00  0.00     0.374 C
BRANCH  24  25
HETATM   25  N1  UNL     1      30.471  18.698  63.785  1.00  0.00     0.088 N
HETATM   26  C1  UNL     1      30.554  17.939  62.544  1.00  0.00     0.310 C
HETATM   27  C2  UNL     1      31.383  18.112  64.774  1.00  0.00     0.310 C
ENDBRANCH  24  25
ENDBRANCH  21  24
ENDBRANCH   1  20
TORSDOF 7
ENDMDL