MODEL 5
REMARK VINA RESULT: -6.727319478      2.194      3.558
REMARK  9 active torsions:
REMARK  status: ('A' for Active; 'I' for Inactive)
REMARK    1  A    between atoms: C3_3  and  N1_4
REMARK    2  A    between atoms: N1_4  and  C4_6
REMARK    3  A    between atoms: C5_9  and  N3_10
REMARK    4  A    between atoms: N5_15  and  N6_16
REMARK    5  A    between atoms: C7_19  and  C8_20
REMARK    6  A    between atoms: C8_20  and  C9_21
REMARK    7  A    between atoms: C9_21  and  N7_22
REMARK    8  A    between atoms: C9_21  and  C10_26
REMARK    9  A    between atoms: C10_26  and  N8_27
ROOT
HETATM    1  C1  UNL     1      26.836  14.066  59.997  1.00  0.00     0.014 C
HETATM    2  C2  UNL     1      26.824  15.235  59.662  1.00  0.00    -0.098 C
HETATM    3  C3  UNL     1      26.835  16.649  59.247  1.00  0.00     0.215 C
ENDROOT
BRANCH   3   4
HETATM    4  N1  UNL     1      26.734  17.459  60.406  1.00  0.00    -0.364 N
ATOM      5  H1  UNL     1      25.984  18.150  60.395  1.00  0.00     0.162 HD
BRANCH   4   6
HETATM    6  C4  UNL     1      27.450  17.444  61.460  1.00  0.00     0.144 A
HETATM    7  N2  UNL     1      28.696  17.988  61.315  1.00  0.00    -0.174 N
HETATM    8  C5  UNL     1      29.535  17.980  62.355  1.00  0.00     0.695 A
ATOM      9  H2  UNL     1      28.982  18.396  60.425  1.00  0.00     0.186 HD
HETATM   10  N4  UNL     1      29.095  17.427  63.503  1.00  0.00    -0.111 N
HETATM   11  N5  UNL     1      27.911  16.897  63.682  1.00  0.00    -0.189 N
ATOM     12  H4  UNL     1      29.737  17.421  64.296  1.00  0.00     0.207 HD
HETATM   13  C7  UNL     1      27.033  16.890  62.639  1.00  0.00     0.098 A
BRANCH   8  14
HETATM   14  N3  UNL     1      30.737  18.482  62.279  1.00  0.00    -0.229 N
HETATM   15  C6  UNL     1      31.871  17.581  62.382  1.00  0.00     0.165 C
ATOM     16  H3  UNL     1      30.877  19.484  62.150  1.00  0.00     0.177 HD
ENDBRANCH   8  14
BRANCH  11  17
HETATM   17  N6  UNL     1      27.554  16.352  64.923  1.00  0.00    -0.323 N
ATOM     18  H62 UNL     1      28.108  15.607  65.345  1.00  0.00     0.178 HD
ATOM     19  H61 UNL     1      26.731  16.691  65.421  1.00  0.00     0.178 HD
ENDBRANCH  11  17
BRANCH  13  20
HETATM   20  C8  UNL     1      25.707  16.326  62.885  1.00  0.00     0.099 C
BRANCH  20  21
HETATM   21  C9  UNL     1      24.552  17.231  62.947  1.00  0.00     0.207 C
BRANCH  21  22
HETATM   22  N7  UNL     1      23.442  16.822  62.091  1.00  0.00    -0.073 N
ATOM     23  H73 UNL     1      23.613  15.898  61.696  1.00  0.00     0.274 HD
ATOM     24  H72 UNL     1      22.614  16.618  62.650  1.00  0.00     0.274 HD
ATOM     25  H71 UNL     1      23.225  17.493  61.355  1.00  0.00     0.274 HD
ENDBRANCH  21  22
BRANCH  21  26
HETATM   26  C10 UNL     1      24.048  17.742  64.235  1.00  0.00     0.155 C
BRANCH  26  27
HETATM   27  N8  UNL     1      24.731  18.937  64.692  1.00  0.00    -0.365 N
HETATM   28  C11 UNL     1      24.111  20.007  65.078  1.00  0.00     0.197 C
HETATM   29  N9  UNL     1      22.683  20.015  65.054  1.00  0.00    -0.067 NA
HETATM   30  N10 UNL     1      24.779  21.163  65.524  1.00  0.00    -0.067 NA
ATOM     31  H8  UNL     1      25.750  18.935  64.710  1.00  0.00     0.161 HD
ENDBRANCH  26  27
ENDBRANCH  21  26
ENDBRANCH  20  21
ENDBRANCH  13  20
ENDBRANCH   4   6
ENDBRANCH   3   4
TORSDOF 9
ENDMDL