MODEL 4
REMARK VINA RESULT: -5.715279129      2.030      3.221
REMARK  17 active torsions:
REMARK  status: ('A' for Active; 'I' for Inactive)
REMARK    1  A    between atoms: N1_1  and  C1_4
REMARK    2  A    between atoms: N4_12  and  O1_13
REMARK    3  A    between atoms: C5_15  and  N5_16
REMARK    4  A    between atoms: N6_19  and  C6_20
REMARK    5  A    between atoms: C6_20  and  N7_21
REMARK    6  A    between atoms: N7_21  and  C7_23
REMARK    7  A    between atoms: C8_24  and  N8_25
REMARK    8  A    between atoms: N8_25  and  C9_27
REMARK    9  A    between atoms: C10_30  and  C11_31
REMARK   10  A    between atoms: C11_31  and  N10_32
REMARK   11  A    between atoms: N10_32  and  C12_35
REMARK   12  A    between atoms: C12_35  and  N11_36
REMARK   13  A    between atoms: C12_35  and  N12_40
REMARK   14  A    between atoms: C12_35  and  O2_44
REMARK   15  A    between atoms: C14_47  and  O3_48
REMARK   16  A    between atoms: C15_50  and  O4_51
REMARK   17  A    between atoms: N13_56  and  O7_57
ROOT
HETATM    1  C7  UNL     1      24.015   6.898   6.173  1.00  0.00     0.187 A
HETATM    2  C8  UNL     1      22.893   6.397   6.794  1.00  0.00     0.197 A
HETATM    3  O5  UNL     1      22.107   7.468   7.054  1.00  0.00    -0.238 OA
HETATM    4  C16 UNL     1      22.665   8.546   6.643  1.00  0.00     0.399 A
HETATM    5  O6  UNL     1      22.151   9.700   6.760  1.00  0.00    -0.235 OA
HETATM    6  N13 UNL     1      23.845   8.241   6.091  1.00  0.00    -0.145 N
ENDROOT
BRANCH   2   7
HETATM    7  N8  UNL     1      22.506   5.099   7.151  1.00  0.00    -0.344 N
ATOM      8  H8  UNL     1      21.980   4.616   6.423  1.00  0.00     0.163 HD
BRANCH   7   9
HETATM    9  C9  UNL     1      22.700   4.312   8.333  1.00  0.00     0.211 C
HETATM   10  N9  UNL     1      23.973   4.548   8.895  1.00  0.00    -0.394 N
HETATM   11  C10 UNL     1      24.034   5.136  10.211  1.00  0.00     0.107 C
ATOM     12  H9  UNL     1      24.824   4.312   8.385  1.00  0.00     0.155 HD
HETATM   13  C13 UNL     1      23.007   6.201  10.345  1.00  0.00     0.061 C
HETATM   14  C14 UNL     1      21.604   5.672  10.175  1.00  0.00     0.152 C
HETATM   15  C15 UNL     1      21.523   4.486   9.294  1.00  0.00     0.189 C
BRANCH  11  16
HETATM   16  C11 UNL     1      24.069   4.114  11.304  1.00  0.00     0.265 C
BRANCH  16  17
HETATM   17  N10 UNL     1      25.208   3.237  11.122  1.00  0.00     0.010 N
ATOM     18 2H10 UNL     1      25.731   3.448  10.272  1.00  0.00     0.285 HD
ATOM     19 1H10 UNL     1      25.951   3.419  11.796  1.00  0.00     0.285 HD
BRANCH  17  20
HETATM   20  C12 UNL     1      24.744   1.848  11.161  1.00  0.00     0.558 C
BRANCH  20  21
HETATM   21  N11 UNL     1      23.531   1.739  11.960  1.00  0.00     0.005 N
ATOM     22 3H11 UNL     1      23.108   0.814  11.883  1.00  0.00     0.282 HD
ATOM     23 2H11 UNL     1      23.735   1.729  12.959  1.00  0.00     0.282 HD
ATOM     24 1H11 UNL     1      22.874   2.479  11.714  1.00  0.00     0.282 HD
ENDBRANCH  20  21
BRANCH  20  25
HETATM   25  N12 UNL     1      24.530   1.282   9.861  1.00  0.00     0.005 N
ATOM     26 3H12 UNL     1      24.534   0.263   9.906  1.00  0.00     0.282 HD
ATOM     27 2H12 UNL     1      23.569   1.434   9.554  1.00  0.00     0.282 HD
ATOM     28 1H12 UNL     1      25.191   1.616   9.160  1.00  0.00     0.282 HD
ENDBRANCH  20  25
BRANCH  20  29
HETATM   29  O2  UNL     1      25.726   1.100  11.808  1.00  0.00    -0.321 OA
ATOM     30  H2  UNL     1      26.114   1.656  12.473  1.00  0.00     0.216 HD
ENDBRANCH  20  29
ENDBRANCH  17  20
ENDBRANCH  16  17
ENDBRANCH  11  16
BRANCH  14  31
HETATM   31  O3  UNL     1      20.769   6.729   9.837  1.00  0.00    -0.393 OA
ATOM     32  H3  UNL     1      20.464   6.602   8.946  1.00  0.00     0.210 HD
ENDBRANCH  14  31
BRANCH  15  33
HETATM   33  O4  UNL     1      20.395   4.656   8.455  1.00  0.00    -0.389 OA
ATOM     34  H4  UNL     1      19.869   5.317   8.890  1.00  0.00     0.210 HD
ENDBRANCH  15  33
ENDBRANCH   7   9
ENDBRANCH   2   7
BRANCH   1  35
HETATM   35  N7  UNL     1      25.104   6.181   5.628  1.00  0.00    -0.354 N
ATOM     36  H7  UNL     1      24.865   5.541   4.871  1.00  0.00     0.163 HD
BRANCH  35  37
HETATM   37  C6  UNL     1      26.496   6.216   5.976  1.00  0.00     0.274 C
BRANCH  37  38
HETATM   38  N6  UNL     1      26.861   5.256   7.023  1.00  0.00    -0.147 N
HETATM   39  C3  UNL     1      27.016   3.950   6.913  1.00  0.00     0.160 A
HETATM   40  N3  UNL     1      26.863   3.022   5.974  1.00  0.00    -0.336 N
HETATM   41  C4  UNL     1      27.435   3.439   8.165  1.00  0.00     0.169 A
HETATM   42  C2  UNL     1      27.059   1.727   6.099  1.00  0.00     0.183 A
ATOM     43  H3  UNL     1      26.560   3.350   5.056  1.00  0.00     0.168 HD
HETATM   44  N2  UNL     1      27.450   1.249   7.264  1.00  0.00    -0.337 N
HETATM   45  C1  UNL     1      27.643   2.099   8.314  1.00  0.00     0.134 A
ATOM     46  H2  UNL     1      27.606   0.248   7.381  1.00  0.00     0.168 HD
HETATM   47  N4  UNL     1      27.504   4.517   8.971  1.00  0.00    -0.045 N
HETATM   48  C5  UNL     1      27.161   5.604   8.289  1.00  0.00     0.708 A
BRANCH  45  49
HETATM   49  N1  UNL     1      28.030   1.614   9.440  1.00  0.00    -0.383 N
ATOM     50  H12 UNL     1      29.022   1.497   9.645  1.00  0.00     0.157 HD
ATOM     51  H11 UNL     1      27.325   1.342  10.126  1.00  0.00     0.157 HD
ENDBRANCH  45  49
BRANCH  47  52
HETATM   52  O1  UNL     1      27.885   4.482  10.323  1.00  0.00    -0.269 OA
ATOM     53  H1  UNL     1      28.382   5.162  10.764  1.00  0.00     0.245 HD
ENDBRANCH  47  52
BRANCH  48  54
HETATM   54  N5  UNL     1      27.125   6.789   8.776  1.00  0.00    -0.232 N
ATOM     55  H52 UNL     1      27.875   7.480   8.733  1.00  0.00     0.174 HD
ATOM     56  H51 UNL     1      26.329   7.191   9.272  1.00  0.00     0.174 HD
ENDBRANCH  48  54
ENDBRANCH  37  38
ENDBRANCH  35  37
ENDBRANCH   1  35
BRANCH   6  57
HETATM   57  O7  UNL     1      24.637   9.198   5.535  1.00  0.00    -0.277 OA
ATOM     58  H7  UNL     1      24.421  10.065   5.211  1.00  0.00     0.245 HD
ENDBRANCH   6  57
TORSDOF 17
ENDMDL