MODEL 1
REMARK VINA RESULT: -6.839872661      0.000      0.000
REMARK  17 active torsions:
REMARK  status: ('A' for Active; 'I' for Inactive)
REMARK    1  A    between atoms: N1_1  and  C1_4
REMARK    2  A    between atoms: C2_7  and  C3_8
REMARK    3  A    between atoms: C3_8  and  O1_9
REMARK    4  A    between atoms: C3_8  and  C4_11
REMARK    5  A    between atoms: N5_16  and  C5_17
REMARK    6  A    between atoms: N6_19  and  O3_20
REMARK    7  A    between atoms: C6_22  and  N7_23
REMARK    8  A    between atoms: N7_23  and  C7_25
REMARK    9  A    between atoms: C7_25  and  O4_26
REMARK   10  A    between atoms: C7_25  and  C8_28
REMARK   11  A    between atoms: C8_28  and  C9_29
REMARK   12  A    between atoms: C10_32  and  O7_33
REMARK   13  A    between atoms: C11_35  and  O8_36
REMARK   14  A    between atoms: C12_38  and  O9_39
REMARK   15  A    between atoms: C13_43  and  C14_44
REMARK   16  A    between atoms: C14_44  and  O10_45
REMARK   17  A    between atoms: C14_44  and  O11_47
ROOT
HETATM    1  C4  UNL     1      28.414  -1.236  13.995  1.00  0.00     0.115 A
HETATM    2  N3  UNL     1      29.095  -0.653  12.962  1.00  0.00    -0.283 N
ATOM      3  H3  UNL     1      30.110  -0.601  12.883  1.00  0.00     0.188 HD
HETATM    4  N4  UNL     1      28.250  -0.175  12.096  1.00  0.00    -0.236 N
ATOM      5  H4  UNL     1      28.507   0.307  11.235  1.00  0.00     0.208 HD
HETATM    6  N5  UNL     1      27.003  -0.404  12.497  1.00  0.00    -0.220 N
HETATM    7  C12 UNL     1      27.092  -1.056  13.657  1.00  0.00     0.188 A
ENDROOT
BRANCH   6   8
HETATM    8  C5  UNL     1      25.864   0.047  11.710  1.00  0.00     0.304 C
HETATM    9  O2  UNL     1      24.787   0.185  12.582  1.00  0.00    -0.246 OA
HETATM   10  N6  UNL     1      23.731   0.643  11.899  1.00  0.00    -0.043 NA
HETATM   11  C6  UNL     1      23.915   2.037  11.660  1.00  0.00     0.242 C
HETATM   12  C10 UNL     1      25.227   2.398  11.003  1.00  0.00     0.192 C
HETATM   13  C11 UNL     1      26.261   1.335  11.045  1.00  0.00     0.202 C
BRANCH  10  14
HETATM   14  O3  UNL     1      23.358  -0.078  10.852  1.00  0.00    -0.287 OA
ATOM     15  H3  UNL     1      22.919  -0.898  11.045  1.00  0.00     0.239 HD
ENDBRANCH  10  14
BRANCH  11  16
HETATM   16  N7  UNL     1      22.870   2.592  10.873  1.00  0.00    -0.374 N
ATOM     17  H7  UNL     1      22.704   2.267   9.920  1.00  0.00     0.157 HD
BRANCH  16  18
HETATM   18  C7  UNL     1      22.066   3.605  11.442  1.00  0.00     0.224 C
BRANCH  18  19
HETATM   19  O4  UNL     1      22.675   4.142  12.579  1.00  0.00    -0.377 OA
ATOM     20  H4  UNL     1      22.067   4.163  13.309  1.00  0.00     0.212 HD
ENDBRANCH  18  19
BRANCH  18  21
HETATM   21  C8  UNL     1      21.515   4.646  10.529  1.00  0.00     0.166 C
BRANCH  21  22
HETATM   22  C9  UNL     1      22.358   5.899  10.650  1.00  0.00     0.176 C
HETATM   23  O5  UNL     1      23.628   5.805  10.676  1.00  0.00    -0.648 OA
HETATM   24  O6  UNL     1      21.824   7.164  10.739  1.00  0.00    -0.648 OA
ENDBRANCH  21  22
ENDBRANCH  18  21
ENDBRANCH  16  18
ENDBRANCH  11  16
BRANCH  12  25
HETATM   25  O7  UNL     1      25.651   3.620  11.508  1.00  0.00    -0.389 OA
ATOM     26  H7  UNL     1      25.413   3.666  12.426  1.00  0.00     0.210 HD
ENDBRANCH  12  25
BRANCH  13  27
HETATM   27  O8  UNL     1      26.699   0.968   9.750  1.00  0.00    -0.388 OA
ATOM     28  H8  UNL     1      27.307   1.649   9.487  1.00  0.00     0.210 HD
ENDBRANCH  13  27
ENDBRANCH   6   8
BRANCH   7  29
HETATM   29  O9  UNL     1      25.972  -1.475  14.387  1.00  0.00    -0.343 OA
ATOM     30  H9  UNL     1      25.662  -2.367  14.496  1.00  0.00     0.219 HD
ENDBRANCH   7  29
BRANCH   1  31
HETATM   31  C3  UNL     1      29.031  -1.850  15.158  1.00  0.00     0.241 C
BRANCH  31  32
HETATM   32  C2  UNL     1      29.551  -0.973  16.228  1.00  0.00     0.118 A
HETATM   33  N2  UNL     1      30.159  -1.455  17.337  1.00  0.00    -0.328 N
HETATM   34  C1  UNL     1      30.693  -0.687  18.283  1.00  0.00     0.127 A
ATOM     35  H2  UNL     1      30.212  -2.466  17.455  1.00  0.00     0.169 HD
HETATM   36  C15 UNL     1      30.653   0.707  18.177  1.00  0.00     0.117 A
HETATM   37  C13 UNL     1      30.027   1.201  17.033  1.00  0.00     0.094 A
HETATM   38  N9  UNL     1      31.220   1.560  19.167  1.00  0.00    -0.096 NA
HETATM   39  N8  UNL     1      29.508   0.371  16.122  1.00  0.00    -0.341 N
ATOM     40  H8  UNL     1      29.057   0.777  15.302  1.00  0.00     0.167 HD
BRANCH  34  41
HETATM   41  N1  UNL     1      31.268  -1.159  19.334  1.00  0.00    -0.384 N
ATOM     42  H12 UNL     1      32.123  -1.691  19.177  1.00  0.00     0.157 HD
ATOM     43  H11 UNL     1      30.908  -1.020  20.279  1.00  0.00     0.157 HD
ENDBRANCH  34  41
BRANCH  37  44
HETATM   44  C14 UNL     1      29.950   2.658  16.847  1.00  0.00     0.307 C
BRANCH  44  45
HETATM   45  O10 UNL     1      29.248   3.253  17.905  1.00  0.00    -0.366 OA
ATOM     46  H10 UNL     1      28.386   3.530  17.618  1.00  0.00     0.213 HD
ENDBRANCH  44  45
BRANCH  44  47
HETATM   47  O11 UNL     1      31.253   3.195  16.886  1.00  0.00    -0.366 OA
ATOM     48  H11 UNL     1      31.273   3.913  17.507  1.00  0.00     0.213 HD
ENDBRANCH  44  47
ENDBRANCH  37  44
ENDBRANCH  31  32
BRANCH  31  49
HETATM   49  O1  UNL     1      30.033  -2.796  14.796  1.00  0.00    -0.382 OA
ATOM     50  H1  UNL     1      30.527  -2.463  14.056  1.00  0.00     0.211 HD
ENDBRANCH  31  49
ENDBRANCH   1  31
TORSDOF 17
ENDMDL