MODEL 3
REMARK VINA RESULT: -5.193611852      2.915      4.440
REMARK  20 active torsions:
REMARK  status: ('A' for Active; 'I' for Inactive)
REMARK    1  A    between atoms: O1_2  and  C2_3
REMARK       I    between atoms: C2_3  and  N1_5
REMARK    2  A    between atoms: N1_5  and  C3_7
REMARK    3  A    between atoms: C5_9  and  N2_10
REMARK    4  A    between atoms: N2_10  and  C6_12
REMARK    5  A    between atoms: C7_14  and  C8_15
REMARK    6  A    between atoms: C8_15  and  O4_16
REMARK    7  A    between atoms: C9_18  and  O5_19
REMARK    8  A    between atoms: C10_21  and  O6_22
REMARK    9  A    between atoms: C11_24  and  N3_25
REMARK   10  A    between atoms: N3_25  and  C12_27
REMARK   11  A    between atoms: C12_27  and  N4_28
REMARK   12  A    between atoms: C12_27  and  O7_32
REMARK   13  A    between atoms: O7_32  and  N5_33
REMARK   14  A    between atoms: C13_36  and  C14_37
REMARK   15  A    between atoms: C14_37  and  N7_42
REMARK   16  A    between atoms: N6_38  and  O8_40
REMARK   17  A    between atoms: N7_42  and  C15_44
REMARK   18  A    between atoms: C15_44  and  N8_45
REMARK   19  A    between atoms: C15_44  and  O9_49
REMARK   20  A    between atoms: C16_53  and  O10_54
ROOT
HETATM    1  C3  UNL     1      20.881   2.840   7.589  1.00  0.00     0.090 A
HETATM    2  C4  UNL     1      21.498   3.987   8.011  1.00  0.00     0.065 A
HETATM    3  C5  UNL     1      22.235   4.061   9.213  1.00  0.00     0.063 A
HETATM    4  C13 UNL     1      22.313   2.921   9.956  1.00  0.00     0.107 A
HETATM    5  N9  UNL     1      21.694   1.787   9.522  1.00  0.00    -0.330 N
ATOM      6  H9  UNL     1      21.772   0.951  10.101  1.00  0.00     0.168 HD
HETATM    7  C16 UNL     1      20.998   1.700   8.399  1.00  0.00     0.168 A
ENDROOT
BRANCH   3   8
HETATM    8  N2  UNL     1      22.801   5.301   9.584  1.00  0.00    -0.360 N
ATOM      9  H2  UNL     1      22.518   5.725  10.467  1.00  0.00     0.162 HD
BRANCH   8  10
HETATM   10  C6  UNL     1      23.787   6.006   8.741  1.00  0.00     0.246 C
HETATM   11  O3  UNL     1      24.919   5.240   8.517  1.00  0.00    -0.355 OA
HETATM   12  C7  UNL     1      25.673   5.065   9.650  1.00  0.00     0.179 C
HETATM   13  C9  UNL     1      26.273   6.435   9.974  1.00  0.00     0.180 C
HETATM   14  C10 UNL     1      25.113   7.320  10.363  1.00  0.00     0.176 C
HETATM   15  C11 UNL     1      24.082   7.367   9.274  1.00  0.00     0.160 C
BRANCH  12  16
HETATM   16  C8  UNL     1      26.738   4.037   9.464  1.00  0.00     0.198 C
BRANCH  16  17
HETATM   17  O4  UNL     1      27.865   4.384  10.164  1.00  0.00    -0.398 OA
ATOM     18  H4  UNL     1      28.590   4.538   9.569  1.00  0.00     0.209 HD
ENDBRANCH  16  17
ENDBRANCH  12  16
BRANCH  13  19
HETATM   19  O5  UNL     1      26.976   6.875   8.876  1.00  0.00    -0.390 OA
ATOM     20  H5  UNL     1      27.284   7.757   9.048  1.00  0.00     0.210 HD
ENDBRANCH  13  19
BRANCH  14  21
HETATM   21  O6  UNL     1      25.522   8.579  10.767  1.00  0.00    -0.391 OA
ATOM     22  H6  UNL     1      25.946   9.064  10.069  1.00  0.00     0.210 HD
ENDBRANCH  14  21
BRANCH  15  23
HETATM   23  N3  UNL     1      24.333   8.361   8.283  1.00  0.00    -0.362 N
ATOM     24  H3  UNL     1      24.518   9.332   8.534  1.00  0.00     0.158 HD
BRANCH  23  25
HETATM   25  C12 UNL     1      24.314   7.931   6.929  1.00  0.00     0.446 C
BRANCH  25  26
HETATM   26  N4  UNL     1      23.545   8.877   6.124  1.00  0.00    -0.033 N
ATOM     27  H43 UNL     1      22.539   8.716   6.196  1.00  0.00     0.279 HD
ATOM     28  H42 UNL     1      23.570   9.821   6.510  1.00  0.00     0.279 HD
ATOM     29  H41 UNL     1      23.869   8.849   5.157  1.00  0.00     0.279 HD
ENDBRANCH  25  26
BRANCH  25  30
HETATM   30  O7  UNL     1      25.584   7.906   6.347  1.00  0.00    -0.232 OA
BRANCH  30  31
HETATM   31  N5  UNL     1      26.391   8.872   6.802  1.00  0.00    -0.307 N
ATOM     32  H52 UNL     1      26.298   9.270   7.736  1.00  0.00     0.184 HD
ATOM     33  H51 UNL     1      27.095   9.160   6.123  1.00  0.00     0.184 HD
ENDBRANCH  30  31
ENDBRANCH  25  30
ENDBRANCH  23  25
ENDBRANCH  15  23
ENDBRANCH   8  10
ENDBRANCH   3   8
BRANCH   4  34
HETATM   34  C14 UNL     1      23.083   2.895  11.194  1.00  0.00     0.153 C
HETATM   35  N6  UNL     1      22.668   3.451  12.257  1.00  0.00    -0.251 N
ATOM     36  H6  UNL     1      21.767   3.929  12.242  1.00  0.00     0.196 HD
BRANCH  35  37
HETATM   37  O8  UNL     1      23.384   3.434  13.426  1.00  0.00    -0.288 OA
ATOM     38  H8  UNL     1      23.127   2.907  14.174  1.00  0.00     0.244 HD
ENDBRANCH  35  37
BRANCH  34  39
HETATM   39  N7  UNL     1      24.353   2.213  11.186  1.00  0.00    -0.325 N
ATOM     40  H7  UNL     1      25.225   2.710  11.003  1.00  0.00     0.165 HD
BRANCH  39  41
HETATM   41  C15 UNL     1      24.338   0.792  11.450  1.00  0.00     0.425 C
BRANCH  41  42
HETATM   42  N8  UNL     1      25.683   0.313  11.629  1.00  0.00    -0.035 N
ATOM     43  H83 UNL     1      26.225   0.913  12.251  1.00  0.00     0.279 HD
ATOM     44  H82 UNL     1      25.714  -0.542  12.185  1.00  0.00     0.279 HD
ATOM     45  H81 UNL     1      26.133   0.196  10.721  1.00  0.00     0.279 HD
ENDBRANCH  41  42
BRANCH  41  46
HETATM   46  O9  UNL     1      23.604   0.502  12.601  1.00  0.00    -0.355 OA
ATOM     47  H9  UNL     1      23.341  -0.411  12.618  1.00  0.00     0.213 HD
ENDBRANCH  41  46
ENDBRANCH  39  41
ENDBRANCH  34  39
ENDBRANCH   4  34
BRANCH   1  48
HETATM   48  N1  UNL     1      20.137   2.735   6.398  1.00  0.00    -0.299 N
HETATM   49  C2  UNL     1      18.826   3.136   6.217  1.00  0.00     0.364 C
HETATM   50  O2  UNL     1      18.094   3.651   7.062  1.00  0.00    -0.238 OA
ATOM     51  H1  UNL     1      20.610   2.325   5.593  1.00  0.00     0.171 HD
BRANCH  49  52
HETATM   52  O1  UNL     1      18.238   2.948   4.938  1.00  0.00    -0.309 OA
HETATM   53  C1  UNL     1      17.444   3.963   4.384  1.00  0.00     0.215 C
ENDBRANCH  49  52
ENDBRANCH   1  48
BRANCH   7  54
HETATM   54  O10 UNL     1      20.372   0.545   7.969  1.00  0.00    -0.344 OA
ATOM     55  H10 UNL     1      19.433   0.482   8.095  1.00  0.00     0.219 HD
ENDBRANCH   7  54
TORSDOF 20
ENDMDL