MODEL 3
REMARK VINA RESULT: -6.193219547      4.137      8.012
REMARK  16 active torsions:
REMARK  status: ('A' for Active; 'I' for Inactive)
REMARK    1  A    between atoms: N1_1  and  C1_4
REMARK    2  A    between atoms: C2_7  and  O1_8
REMARK    3  A    between atoms: C3_10  and  C4_11
REMARK    4  A    between atoms: N7_23  and  C7_24
REMARK    5  A    between atoms: C7_24  and  C8_25
REMARK    6  A    between atoms: C7_24  and  C14_47
REMARK    7  A    between atoms: C9_28  and  N9_29
REMARK    8  A    between atoms: N9_29  and  C10_31
REMARK    9  A    between atoms: C10_31  and  C11_32
REMARK   10  A    between atoms: C10_31  and  C12_35
REMARK   11  A    between atoms: C12_35  and  N10_36
REMARK   12  A    between atoms: C12_35  and  O5_40
REMARK   13  A    between atoms: C13_44  and  O6_45
REMARK   14  A    between atoms: C14_47  and  O7_48
REMARK   15  A    between atoms: C14_47  and  O8_50
REMARK   16  A    between atoms: N12_52  and  N13_53
ROOT
HETATM    1  C7  UNL     1      24.552   0.596  10.517  1.00  0.00     0.220 C
ENDROOT
BRANCH   1   2
HETATM    2  N7  UNL     1      24.544   1.896   9.913  1.00  0.00    -0.243 N
HETATM    3  C5  UNL     1      24.469   3.118  10.468  1.00  0.00     0.177 A
HETATM    4  N4  UNL     1      24.373   3.523  11.826  1.00  0.00    -0.222 N
HETATM    5  C6  UNL     1      24.497   4.099   9.450  1.00  0.00     0.128 A
HETATM    6  O2  UNL     1      24.314   4.871  12.059  1.00  0.00    -0.155 OA
ATOM      7  H4  UNL     1      24.350   2.845  12.588  1.00  0.00     0.198 HD
HETATM    8  N3  UNL     1      24.344   5.786  11.053  1.00  0.00    -0.237 N
HETATM    9  C4  UNL     1      24.429   5.496   9.796  1.00  0.00     0.122 A
ATOM     10  H3  UNL     1      24.295   6.772  11.309  1.00  0.00     0.197 HD
HETATM   11  N5  UNL     1      24.590   3.378   8.334  1.00  0.00    -0.280 N
HETATM   12  N6  UNL     1      24.616   2.118   8.590  1.00  0.00    -0.237 N
ATOM     13  H5  UNL     1      24.633   3.775   7.395  1.00  0.00     0.188 HD
ATOM     14  H6  UNL     1      24.684   1.385   7.884  1.00  0.00     0.208 HD
BRANCH   9  15
HETATM   15  C3  UNL     1      24.452   6.570   8.821  1.00  0.00     0.156 A
HETATM   16  C2  UNL     1      23.442   7.223   8.177  1.00  0.00     0.187 A
HETATM   17  N2  UNL     1      23.973   8.167   7.346  1.00  0.00    -0.167 N
HETATM   18  C1  UNL     1      25.294   8.086   7.485  1.00  0.00     0.699 A
ATOM     19  H2  UNL     1      23.460   8.806   6.738  1.00  0.00     0.186 HD
HETATM   20  N12 UNL     1      25.627   7.140   8.361  1.00  0.00    -0.087 N
BRANCH  16  21
HETATM   21  O1  UNL     1      22.075   7.041   8.273  1.00  0.00    -0.344 OA
ATOM     22  H1  UNL     1      21.607   6.492   7.656  1.00  0.00     0.219 HD
ENDBRANCH  16  21
BRANCH  18  23
HETATM   23  N1  UNL     1      26.201   8.814   6.870  1.00  0.00    -0.233 N
ATOM     24  H12 UNL     1      26.036   9.208   5.943  1.00  0.00     0.174 HD
ATOM     25  H11 UNL     1      27.128   9.062   7.217  1.00  0.00     0.174 HD
ENDBRANCH  18  23
BRANCH  20  26
HETATM   26  N13 UNL     1      26.900   6.750   8.780  1.00  0.00    -0.324 N
ATOM     27 2H13 UNL     1      27.394   5.934   8.419  1.00  0.00     0.178 HD
ATOM     28 1H13 UNL     1      27.505   7.190   9.473  1.00  0.00     0.178 HD
ENDBRANCH  20  26
ENDBRANCH   9  15
ENDBRANCH   1   2
BRANCH   1  29
HETATM   29  C8  UNL     1      25.806   0.273  11.251  1.00  0.00     0.107 A
HETATM   30  N8  UNL     1      25.830  -0.477  12.357  1.00  0.00    -0.189 N
HETATM   31  C9  UNL     1      27.107  -0.579  12.755  1.00  0.00     0.681 A
ATOM     32  H8  UNL     1      25.022  -0.897  12.817  1.00  0.00     0.184 HD
HETATM   33  N11 UNL     1      27.887   0.104  11.904  1.00  0.00    -0.169 N
HETATM   34  C13 UNL     1      27.092   0.634  10.970  1.00  0.00     0.181 A
ATOM     35  H11 UNL     1      28.901   0.200  11.960  1.00  0.00     0.186 HD
BRANCH  31  36
HETATM   36  N9  UNL     1      27.542  -1.305  13.919  1.00  0.00    -0.207 N
ATOM     37  H9  UNL     1      28.088  -0.810  14.626  1.00  0.00     0.178 HD
BRANCH  36  38
HETATM   38  C10 UNL     1      27.242  -2.695  14.131  1.00  0.00     0.256 C
BRANCH  38  39
HETATM   39  C11 UNL     1      25.894  -2.909  14.664  1.00  0.00     0.201 C
HETATM   40  O3  UNL     1      25.026  -3.555  14.048  1.00  0.00    -0.646 OA
HETATM   41  O4  UNL     1      25.583  -2.361  15.910  1.00  0.00    -0.646 OA
ENDBRANCH  38  39
BRANCH  38  42
HETATM   42  C12 UNL     1      28.227  -3.290  15.114  1.00  0.00     0.350 C
BRANCH  42  43
HETATM   43  N10 UNL     1      27.612  -4.434  15.748  1.00  0.00    -0.051 N
ATOM     44 3H10 UNL     1      27.474  -4.298  16.749  1.00  0.00     0.277 HD
ATOM     45 2H10 UNL     1      26.632  -4.546  15.486  1.00  0.00     0.277 HD
ATOM     46 1H10 UNL     1      28.170  -5.261  15.540  1.00  0.00     0.277 HD
ENDBRANCH  42  43
BRANCH  42  47
HETATM   47  O5  UNL     1      28.573  -2.356  16.084  1.00  0.00    -0.368 OA
ATOM     48  H5  UNL     1      27.950  -2.375  16.800  1.00  0.00     0.212 HD
ENDBRANCH  42  47
ENDBRANCH  38  42
ENDBRANCH  36  38
ENDBRANCH  31  36
BRANCH  34  49
HETATM   49  O6  UNL     1      27.460   1.430   9.875  1.00  0.00    -0.344 OA
ATOM     50  H6  UNL     1      27.626   2.363   9.930  1.00  0.00     0.219 HD
ENDBRANCH  34  49
ENDBRANCH   1  29
BRANCH   1  51
HETATM   51  C14 UNL     1      23.325   0.296  11.350  1.00  0.00     0.284 C
BRANCH  51  52
HETATM   52  O7  UNL     1      23.281  -1.093  11.508  1.00  0.00    -0.369 OA
ATOM     53  H7  UNL     1      22.479  -1.388  11.093  1.00  0.00     0.212 HD
ENDBRANCH  51  52
BRANCH  51  54
HETATM   54  O8  UNL     1      23.564   0.878  12.618  1.00  0.00    -0.369 OA
ATOM     55  H8  UNL     1      24.094   0.252  13.098  1.00  0.00     0.212 HD
ENDBRANCH  51  54
ENDBRANCH   1  51
TORSDOF 16
ENDMDL