MODEL 3
REMARK VINA RESULT: -5.164336462      2.298      3.741
REMARK  15 active torsions:
REMARK  status: ('A' for Active; 'I' for Inactive)
REMARK    1  A    between atoms: O1_2  and  N1_3
REMARK    2  A    between atoms: N1_3  and  C2_5
REMARK    3  A    between atoms: C2_5  and  N2_6
REMARK    4  A    between atoms: C2_5  and  O5_37
REMARK    5  A    between atoms: N2_6  and  C3_8
REMARK    6  A    between atoms: C3_8  and  C4_9
REMARK    7  A    between atoms: C5_11  and  N3_12
REMARK    8  A    between atoms: C7_18  and  N6_19
REMARK    9  A    between atoms: C8_24  and  N8_25
REMARK   10  A    between atoms: C10_31  and  O3_32
REMARK   11  A    between atoms: C11_34  and  O4_35
REMARK   12  A    between atoms: O5_37  and  C12_38
REMARK   13  A    between atoms: N10_39  and  C13_41
REMARK   14  A    between atoms: C13_41  and  O6_42
REMARK   15  A    between atoms: N13_51  and  O7_52
ROOT
HETATM    1  C4  UNL     1      23.156   1.473  10.779  1.00  0.00     0.173 C
HETATM    2  O2  UNL     1      23.792   2.468   9.997  1.00  0.00    -0.353 OA
HETATM    3  C5  UNL     1      23.417   3.605  10.675  1.00  0.00     0.279 C
HETATM    4  C10 UNL     1      23.771   3.324  12.092  1.00  0.00     0.200 C
HETATM    5  C11 UNL     1      23.629   1.825  12.202  1.00  0.00     0.181 C
ENDROOT
BRANCH   1   6
HETATM    6  C3  UNL     1      23.577   0.104  10.399  1.00  0.00     0.153 C
BRANCH   6   7
HETATM    7  N2  UNL     1      24.924  -0.085  10.022  1.00  0.00    -0.377 N
ATOM      8  H2  UNL     1      25.275   0.270   9.132  1.00  0.00     0.157 HD
BRANCH   7   9
HETATM    9  C2  UNL     1      25.782  -0.788  10.923  1.00  0.00     0.352 C
BRANCH   9  10
HETATM   10  N1  UNL     1      25.208  -1.355  12.073  1.00  0.00    -0.256 N
ATOM     11  H1  UNL     1      24.529  -2.111  11.980  1.00  0.00     0.192 HD
BRANCH  10  12
HETATM   12  O1  UNL     1      25.539  -0.920  13.260  1.00  0.00    -0.286 OA
HETATM   13  C1  UNL     1      26.201  -1.907  13.996  1.00  0.00     0.237 C
ENDBRANCH  10  12
ENDBRANCH   9  10
BRANCH   9  14
HETATM   14  O5  UNL     1      26.868   0.056  11.351  1.00  0.00    -0.302 OA
BRANCH  14  15
HETATM   15  C12 UNL     1      27.403   0.999  10.503  1.00  0.00     0.232 C
HETATM   16  N10 UNL     1      26.912   2.198  10.546  1.00  0.00    -0.325 N
ATOM     17  H10 UNL     1      26.155   2.369  11.208  1.00  0.00     0.169 HD
BRANCH  16  18
HETATM   18  C13 UNL     1      27.330   3.277   9.760  1.00  0.00     0.188 C
HETATM   19  C14 UNL     1      26.931   3.477   8.505  1.00  0.00     0.189 A
HETATM   20  N11 UNL     1      26.037   2.672   7.746  1.00  0.00    -0.168 N
HETATM   21  N14 UNL     1      27.330   4.557   7.663  1.00  0.00    -0.240 N
HETATM   22  C15 UNL     1      25.894   3.243   6.472  1.00  0.00     0.719 A
ATOM     23  H11 UNL     1      25.578   1.822   8.073  1.00  0.00     0.186 HD
HETATM   24  N12 UNL     1      25.154   2.790   5.491  1.00  0.00    -0.231 N
HETATM   25  N13 UNL     1      26.705   4.417   6.435  1.00  0.00     0.017 N
ATOM     26 2H12 UNL     1      24.573   1.951   5.517  1.00  0.00     0.174 HD
ATOM     27 1H12 UNL     1      25.049   3.205   4.565  1.00  0.00     0.174 HD
ATOM     28  H14 UNL     1      27.971   5.307   7.921  1.00  0.00     0.192 HD
BRANCH  18  29
HETATM   29  O6  UNL     1      28.212   4.190  10.312  1.00  0.00    -0.343 OA
ATOM     30  H6  UNL     1      27.929   5.092  10.403  1.00  0.00     0.219 HD
ENDBRANCH  18  29
BRANCH  25  31
HETATM   31  O7  UNL     1      26.805   5.215   5.355  1.00  0.00    -0.254 OA
ATOM     32  H7  UNL     1      26.062   5.461   4.817  1.00  0.00     0.247 HD
ENDBRANCH  25  31
ENDBRANCH  16  18
ENDBRANCH  14  15
ENDBRANCH   9  14
ENDBRANCH   7   9
ENDBRANCH   6   7
ENDBRANCH   1   6
BRANCH   5  33
HETATM   33  O4  UNL     1      22.659   1.422  13.092  1.00  0.00    -0.390 OA
ATOM     34  H4  UNL     1      22.983   1.567  13.973  1.00  0.00     0.210 HD
ENDBRANCH   5  33
BRANCH   3  35
HETATM   35  N3  UNL     1      24.024   4.805  10.155  1.00  0.00    -0.227 N
HETATM   36  N4  UNL     1      24.823   5.605  10.843  1.00  0.00    -0.236 N
HETATM   37  N5  UNL     1      25.215   6.610  10.094  1.00  0.00    -0.279 N
ATOM     38  H4  UNL     1      25.095   5.461  11.816  1.00  0.00     0.208 HD
HETATM   39  C6  UNL     1      24.666   6.484   8.874  1.00  0.00     0.140 A
ATOM     40  H5  UNL     1      25.835   7.363  10.390  1.00  0.00     0.189 HD
HETATM   41  C7  UNL     1      24.751   7.251   7.735  1.00  0.00     0.147 A
HETATM   42  C9  UNL     1      23.908   5.328   8.927  1.00  0.00     0.173 A
HETATM   43  N7  UNL     1      24.065   6.841   6.655  1.00  0.00    -0.175 N
HETATM   44  C8  UNL     1      23.326   5.702   6.727  1.00  0.00     0.679 A
ATOM     45  H7  UNL     1      24.099   7.379   5.789  1.00  0.00     0.186 HD
HETATM   46  N9  UNL     1      23.248   4.964   7.833  1.00  0.00    -0.173 N
ATOM     47  H9  UNL     1      22.680   4.117   7.841  1.00  0.00     0.186 HD
BRANCH  41  48
HETATM   48  N6  UNL     1      25.441   8.332   7.635  1.00  0.00    -0.383 N
ATOM     49  H62 UNL     1      25.374   9.012   8.393  1.00  0.00     0.157 HD
ATOM     50  H61 UNL     1      26.050   8.558   6.849  1.00  0.00     0.157 HD
ENDBRANCH  41  48
BRANCH  44  51
HETATM   51  N8  UNL     1      22.658   5.301   5.675  1.00  0.00    -0.234 N
ATOM     52  H82 UNL     1      22.543   4.297   5.536  1.00  0.00     0.174 HD
ATOM     53  H81 UNL     1      22.275   5.993   5.031  1.00  0.00     0.174 HD
ENDBRANCH  44  51
ENDBRANCH   3  35
BRANCH   4  54
HETATM   54  O3  UNL     1      25.072   3.691  12.425  1.00  0.00    -0.388 OA
ATOM     55  H3  UNL     1      25.698   3.549  11.725  1.00  0.00     0.210 HD
ENDBRANCH   4  54
TORSDOF 15
ENDMDL