MODEL 5
REMARK VINA RESULT: -5.243022478      2.083      3.462
REMARK  21 active torsions:
REMARK  status: ('A' for Active; 'I' for Inactive)
REMARK    1  A    between atoms: N1_1  and  C1_4
REMARK    2  A    between atoms: N4_12  and  C5_13
REMARK    3  A    between atoms: C5_13  and  C6_14
REMARK    4  A    between atoms: C6_14  and  O1_15
REMARK    5  A    between atoms: C6_14  and  N5_17
REMARK    6  A    between atoms: N5_17  and  N6_18
REMARK    7  A    between atoms: N5_17  and  C7_22
REMARK    8  A    between atoms: N6_18  and  O2_20
REMARK    9  A    between atoms: C7_22  and  O3_23
REMARK   10  A    between atoms: C7_22  and  C8_25
REMARK   11  A    between atoms: C8_25  and  O4_26
REMARK   12  A    between atoms: C8_25  and  C9_28
REMARK   13  A    between atoms: C9_28  and  O5_29
REMARK   14  A    between atoms: C9_28  and  O6_31
REMARK   15  A    between atoms: C10_33  and  N7_34
REMARK   16  A    between atoms: C11_35  and  O7_36
REMARK   17  A    between atoms: C13_40  and  C14_41
REMARK   18  A    between atoms: C14_41  and  N9_42
REMARK   19  A    between atoms: C14_41  and  O8_46
REMARK   20  A    between atoms: C15_48  and  O9_49
REMARK   21  A    between atoms: C16_51  and  N10_52
ROOT
HETATM    1  C1  UNL     1      24.318   1.298   7.959  1.00  0.00     0.679 A
HETATM    2  N2  UNL     1      24.892   2.501   7.773  1.00  0.00    -0.174 N
ATOM      3  H2  UNL     1      24.517   3.140   7.072  1.00  0.00     0.186 HD
HETATM    4  C2  UNL     1      25.972   2.869   8.517  1.00  0.00     0.155 A
HETATM    5  C3  UNL     1      26.450   1.979   9.453  1.00  0.00     0.124 A
HETATM    6  N3  UNL     1      27.506   2.552  10.058  1.00  0.00    -0.346 N
ATOM      7  H3  UNL     1      28.076   2.144  10.798  1.00  0.00     0.167 HD
HETATM    8  C4  UNL     1      27.667   3.765   9.501  1.00  0.00     0.185 A
HETATM    9  N4  UNL     1      26.735   3.982   8.551  1.00  0.00    -0.323 N
HETATM   10  C10 UNL     1      25.868   0.744   9.650  1.00  0.00     0.162 A
HETATM   11  N11 UNL     1      24.805   0.432   8.891  1.00  0.00    -0.174 N
ATOM     12  H11 UNL     1      24.353  -0.474   9.015  1.00  0.00     0.186 HD
ENDROOT
BRANCH  10  13
HETATM   13  N7  UNL     1      26.393  -0.148  10.629  1.00  0.00    -0.257 N
HETATM   14  C11 UNL     1      25.861  -0.216  11.861  1.00  0.00     0.175 A
HETATM   15  C12 UNL     1      26.383  -1.078  12.776  1.00  0.00     0.111 A
HETATM   16  N8  UNL     1      25.828  -1.151  14.064  1.00  0.00    -0.097 NA
HETATM   17  C13 UNL     1      27.468  -1.909  12.486  1.00  0.00     0.062 A
HETATM   18  C15 UNL     1      27.993  -1.817  11.216  1.00  0.00     0.122 A
HETATM   19  C16 UNL     1      27.440  -0.924  10.292  1.00  0.00     0.143 A
BRANCH  14  20
HETATM   20  O7  UNL     1      24.785   0.603  12.160  1.00  0.00    -0.344 OA
ATOM     21  H7  UNL     1      24.680   0.901  13.056  1.00  0.00     0.219 HD
ENDBRANCH  14  20
BRANCH  17  22
HETATM   22  C14 UNL     1      28.006  -2.833  13.514  1.00  0.00     0.355 C
BRANCH  22  23
HETATM   23  N9  UNL     1      28.532  -2.023  14.623  1.00  0.00    -0.049 N
ATOM     24  H93 UNL     1      28.084  -2.237  15.515  1.00  0.00     0.277 HD
ATOM     25  H92 UNL     1      29.483  -2.279  14.883  1.00  0.00     0.277 HD
ATOM     26  H91 UNL     1      28.444  -1.041  14.363  1.00  0.00     0.277 HD
ENDBRANCH  22  23
BRANCH  22  27
HETATM   27  O8  UNL     1      27.026  -3.663  14.046  1.00  0.00    -0.366 OA
ATOM     28  H8  UNL     1      27.385  -4.317  14.634  1.00  0.00     0.212 HD
ENDBRANCH  22  27
ENDBRANCH  17  22
BRANCH  18  29
HETATM   29  O9  UNL     1      29.062  -2.622  10.901  1.00  0.00    -0.356 OA
ATOM     30  H9  UNL     1      29.465  -2.512  10.048  1.00  0.00     0.218 HD
ENDBRANCH  18  29
BRANCH  19  31
HETATM   31  N10 UNL     1      27.958  -0.874   9.132  1.00  0.00    -0.383 N
ATOM     32 2H10 UNL     1      27.514  -1.412   8.388  1.00  0.00     0.157 HD
ATOM     33 1H10 UNL     1      28.791  -0.316   8.943  1.00  0.00     0.157 HD
ENDBRANCH  19  31
ENDBRANCH  10  13
BRANCH   1  34
HETATM   34  N1  UNL     1      23.293   0.889   7.289  1.00  0.00    -0.234 N
ATOM     35  H12 UNL     1      23.284   1.128   6.297  1.00  0.00     0.174 HD
ATOM     36  H11 UNL     1      22.527   0.358   7.703  1.00  0.00     0.174 HD
ENDBRANCH   1  34
BRANCH   9  37
HETATM   37  C5  UNL     1      26.571   5.162   7.723  1.00  0.00     0.186 C
BRANCH  37  38
HETATM   38  C6  UNL     1      25.998   6.304   8.505  1.00  0.00     0.258 C
BRANCH  38  39
HETATM   39  O1  UNL     1      26.961   6.803   9.371  1.00  0.00    -0.373 OA
ATOM     40  H1  UNL     1      26.540   7.147  10.151  1.00  0.00     0.212 HD
ENDBRANCH  38  39
BRANCH  38  41
HETATM   41  N5  UNL     1      24.803   6.005   9.212  1.00  0.00    -0.247 N
BRANCH  41  42
HETATM   42  N6  UNL     1      23.644   5.733   8.472  1.00  0.00    -0.208 N
ATOM     43  H6  UNL     1      23.627   4.885   7.905  1.00  0.00     0.215 HD
BRANCH  42  44
HETATM   44  O2  UNL     1      22.642   6.459   8.465  1.00  0.00    -0.274 OA
ATOM     45  H2  UNL     1      21.966   6.438   9.132  1.00  0.00     0.246 HD
ENDBRANCH  42  44
ENDBRANCH  41  42
BRANCH  41  46
HETATM   46  C7  UNL     1      24.699   5.961  10.659  1.00  0.00     0.273 C
BRANCH  46  47
HETATM   47  O3  UNL     1      23.963   7.031  11.134  1.00  0.00    -0.372 OA
ATOM     48  H3  UNL     1      24.298   7.328  11.972  1.00  0.00     0.212 HD
ENDBRANCH  46  47
BRANCH  46  49
HETATM   49  C8  UNL     1      23.983   4.688  11.046  1.00  0.00     0.223 C
BRANCH  49  50
HETATM   50  O4  UNL     1      22.620   4.835  10.960  1.00  0.00    -0.386 OA
ATOM     51  H4  UNL     1      22.187   3.994  10.874  1.00  0.00     0.210 HD
ENDBRANCH  49  50
BRANCH  49  52
HETATM   52  C9  UNL     1      24.428   4.190  12.397  1.00  0.00     0.286 C
BRANCH  52  53
HETATM   53  O5  UNL     1      25.537   3.359  12.223  1.00  0.00    -0.369 OA
ATOM     54  H5  UNL     1      26.313   3.902  12.145  1.00  0.00     0.212 HD
ENDBRANCH  52  53
BRANCH  52  55
HETATM   55  O6  UNL     1      23.364   3.489  12.972  1.00  0.00    -0.369 OA
ATOM     56  H6  UNL     1      22.746   3.273  12.284  1.00  0.00     0.212 HD
ENDBRANCH  52  55
ENDBRANCH  49  52
ENDBRANCH  46  49
ENDBRANCH  41  46
ENDBRANCH  38  41
ENDBRANCH  37  38
ENDBRANCH   9  37
TORSDOF 21
ENDMDL