MODEL 4
REMARK VINA RESULT: -5.238755078      3.407      5.450
REMARK  17 active torsions:
REMARK  status: ('A' for Active; 'I' for Inactive)
REMARK       I    between atoms: C2_2  and  N1_4
REMARK    1  A    between atoms: N1_4  and  C3_5
REMARK    2  A    between atoms: C4_6  and  O2_7
REMARK    3  A    between atoms: C5_9  and  C6_10
REMARK    4  A    between atoms: C6_10  and  N2_11
REMARK    5  A    between atoms: N2_11  and  O3_12
REMARK    6  A    between atoms: C7_14  and  C8_15
REMARK    7  A    between atoms: C8_15  and  N3_16
REMARK    8  A    between atoms: C8_15  and  O4_20
REMARK    9  A    between atoms: N4_22  and  C9_23
REMARK   10  A    between atoms: C10_26  and  N7_27
REMARK   11  A    between atoms: C10_26  and  O5_31
REMARK   12  A    between atoms: C11_34  and  C12_35
REMARK   13  A    between atoms: C13_37  and  C14_38
REMARK   14  A    between atoms: C14_38  and  O8_39
REMARK   15  A    between atoms: C15_41  and  O9_42
REMARK   16  A    between atoms: C16_44  and  O10_45
REMARK   17  A    between atoms: C17_47  and  O11_48
ROOT
HETATM    1  C3  UNL     1      21.154   3.748   7.318  1.00  0.00     0.171 A
HETATM    2  C4  UNL     1      20.648   2.487   7.343  1.00  0.00     0.133 A
HETATM    3  C5  UNL     1      21.086   1.879   8.395  1.00  0.00     0.072 A
HETATM    4  N4  UNL     1      21.923   2.761   9.108  1.00  0.00    -0.302 N
HETATM    5  C11 UNL     1      21.964   3.913   8.434  1.00  0.00     0.091 A
ENDROOT
BRANCH   5   6
HETATM    6  C12 UNL     1      22.625   5.215   8.791  1.00  0.00     0.207 C
HETATM    7  O7  UNL     1      23.948   5.154   8.928  1.00  0.00    -0.367 OA
HETATM    8  C13 UNL     1      24.503   6.438   8.876  1.00  0.00     0.177 C
HETATM    9  C15 UNL     1      24.060   7.178  10.101  1.00  0.00     0.180 C
HETATM   10  C16 UNL     1      22.552   7.349  10.014  1.00  0.00     0.181 C
HETATM   11  C17 UNL     1      21.949   5.965   9.868  1.00  0.00     0.184 C
BRANCH   8  12
HETATM   12  C14 UNL     1      26.000   6.331   8.716  1.00  0.00     0.198 C
BRANCH  12  13
HETATM   13  O8  UNL     1      26.744   7.020   9.689  1.00  0.00    -0.398 OA
ATOM     14  H8  UNL     1      27.188   6.462  10.317  1.00  0.00     0.209 HD
ENDBRANCH  12  13
ENDBRANCH   8  12
BRANCH   9  15
HETATM   15  O9  UNL     1      24.292   6.375  11.212  1.00  0.00    -0.390 OA
ATOM     16  H9  UNL     1      24.810   6.867  11.838  1.00  0.00     0.210 HD
ENDBRANCH   9  15
BRANCH  10  17
HETATM   17  O10 UNL     1      22.108   8.032  11.183  1.00  0.00    -0.390 OA
ATOM     18  H10 UNL     1      22.522   7.632  11.939  1.00  0.00     0.210 HD
ENDBRANCH  10  17
BRANCH  11  19
HETATM   19  O11 UNL     1      20.621   5.905  10.054  1.00  0.00    -0.390 OA
ATOM     20  H11 UNL     1      20.012   6.384   9.505  1.00  0.00     0.210 HD
ENDBRANCH  11  19
ENDBRANCH   5   6
BRANCH   1  21
HETATM   21  N1  UNL     1      21.087   4.463   6.199  1.00  0.00    -0.366 NA
HETATM   22  C2  UNL     1      21.011   5.194   5.094  1.00  0.00     0.288 C
HETATM   23  C1  UNL     1      21.468   4.171   3.820  1.00  0.00     0.135 C
HETATM   24  O1  UNL     1      20.741   6.176   4.644  1.00  0.00    -0.258 OA
ENDBRANCH   1  21
BRANCH   4  25
HETATM   25  C9  UNL     1      22.354   2.395  10.404  1.00  0.00     0.350 C
HETATM   26  N5  UNL     1      21.576   3.073  11.400  1.00  0.00    -0.088 NA
HETATM   27  N6  UNL     1      22.423   3.958  12.042  1.00  0.00    -0.050 NA
HETATM   28  C10 UNL     1      23.592   3.045  12.105  1.00  0.00     0.435 C
HETATM   29  O6  UNL     1      23.631   2.667  10.802  1.00  0.00    -0.277 OA
BRANCH  28  30
HETATM   30  N7  UNL     1      23.150   2.004  13.032  1.00  0.00    -0.004 N
ATOM     31  H73 UNL     1      22.151   1.799  12.997  1.00  0.00     0.282 HD
ATOM     32  H72 UNL     1      23.458   1.062  12.791  1.00  0.00     0.282 HD
ATOM     33  H71 UNL     1      23.483   2.342  13.935  1.00  0.00     0.282 HD
ENDBRANCH  28  30
BRANCH  28  34
HETATM   34  O5  UNL     1      24.695   3.714  12.571  1.00  0.00    -0.329 OA
ATOM     35  H5  UNL     1      24.877   3.467  13.470  1.00  0.00     0.216 HD
ENDBRANCH  28  34
ENDBRANCH   4  25
BRANCH   2  36
HETATM   36  O2  UNL     1      19.767   1.964   6.309  1.00  0.00    -0.356 OA
ATOM     37  H2  UNL     1      18.824   1.906   6.412  1.00  0.00     0.218 HD
ENDBRANCH   2  36
BRANCH   3  38
HETATM   38  C6  UNL     1      20.915   0.376   8.776  1.00  0.00     0.215 C
BRANCH  38  39
HETATM   39  N2  UNL     1      21.641  -0.555   7.956  1.00  0.00    -0.266 N
HETATM   40  C7  UNL     1      22.954  -0.369   7.703  1.00  0.00     0.150 C
BRANCH  39  41
HETATM   41  O3  UNL     1      20.820  -0.851   6.884  1.00  0.00    -0.288 OA
ATOM     42  H3  UNL     1      20.443  -0.026   6.601  1.00  0.00     0.244 HD
ENDBRANCH  39  41
BRANCH  40  43
HETATM   43  C8  UNL     1      23.537  -1.382   6.731  1.00  0.00     0.358 C
BRANCH  43  44
HETATM   44  N3  UNL     1      23.320  -1.036   5.302  1.00  0.00    -0.048 N
ATOM     45  H33 UNL     1      23.624  -1.799   4.698  1.00  0.00     0.277 HD
ATOM     46  H32 UNL     1      22.324  -1.029   5.082  1.00  0.00     0.277 HD
ATOM     47  H31 UNL     1      23.756  -0.159   5.020  1.00  0.00     0.277 HD
ENDBRANCH  43  44
BRANCH  43  48
HETATM   48  O4  UNL     1      23.017  -2.676   6.922  1.00  0.00    -0.366 OA
ATOM     49  H4  UNL     1      23.227  -3.030   7.778  1.00  0.00     0.212 HD
ENDBRANCH  43  48
ENDBRANCH  40  43
ENDBRANCH  38  39
ENDBRANCH   3  38
TORSDOF 17
ENDMDL