MODEL 5
REMARK VINA RESULT: -6.528513542      0.721      1.319
REMARK  13 active torsions:
REMARK  status: ('A' for Active; 'I' for Inactive)
REMARK    1  A    between atoms: N6_14  and  C4_15
REMARK    2  A    between atoms: C4_15  and  C5_16
REMARK    3  A    between atoms: C5_16  and  C6_17
REMARK    4  A    between atoms: C5_16  and  C12_31
REMARK    5  A    between atoms: C6_17  and  N7_18
REMARK    6  A    between atoms: N7_18  and  N8_19
REMARK    7  A    between atoms: N8_19  and  C7_20
REMARK    8  A    between atoms: C7_20  and  C8_21
REMARK    9  A    between atoms: C9_24  and  O1_25
REMARK   10  A    between atoms: C11_28  and  O2_29
REMARK   11  A    between atoms: C13_34  and  N11_35
REMARK   12  A    between atoms: C15_44  and  O3_45
REMARK   13  A    between atoms: C16_47  and  O4_48
ROOT
HETATM    1  C5  UNL     1      21.868   3.170   9.248  1.00  0.00     0.002 C
ENDROOT
BRANCH   1   2
HETATM    2  C4  UNL     1      21.294   1.864   8.822  1.00  0.00     0.192 C
BRANCH   2   3
HETATM    3  N6  UNL     1      21.781   0.722   9.574  1.00  0.00    -0.255 N
HETATM    4  C1  UNL     1      20.984  -0.262  10.097  1.00  0.00     0.149 A
HETATM    5  N1  UNL     1      19.701  -0.314  10.007  1.00  0.00    -0.382 N
HETATM    6  C2  UNL     1      21.764  -1.199  10.739  1.00  0.00     0.139 A
ATOM      7  H12 UNL     1      19.107  -1.046  10.396  1.00  0.00     0.157 HD
ATOM      8  H11 UNL     1      19.123   0.380   9.531  1.00  0.00     0.157 HD
HETATM    9  C3  UNL     1      21.826  -2.375  11.459  1.00  0.00     0.146 A
HETATM   10  N4  UNL     1      23.012  -0.775  10.599  1.00  0.00    -0.162 N
HETATM   11  N2  UNL     1      23.130  -2.588  11.712  1.00  0.00    -0.293 N
HETATM   12  N3  UNL     1      23.844  -1.618  11.189  1.00  0.00    -0.220 N
ATOM     13  H2  UNL     1      23.507  -3.382  12.230  1.00  0.00     0.187 HD
ATOM     14  H3  UNL     1      24.860  -1.530  11.230  1.00  0.00     0.210 HD
HETATM   15  N5  UNL     1      23.001   0.356   9.911  1.00  0.00    -0.215 N
ATOM     16  H5  UNL     1      23.841   0.883   9.670  1.00  0.00     0.211 HD
ENDBRANCH   2   3
ENDBRANCH   1   2
BRANCH   1  17
HETATM   17  C6  UNL     1      20.885   4.285   9.367  1.00  0.00     0.170 C
BRANCH  17  18
HETATM   18  N7  UNL     1      21.546   5.483   8.828  1.00  0.00    -0.144 NA
BRANCH  18  19
HETATM   19  N8  UNL     1      21.216   6.636   9.500  1.00  0.00    -0.142 NA
BRANCH  19  20
HETATM   20  C7  UNL     1      22.254   7.118  10.385  1.00  0.00     0.190 C
BRANCH  20  21
HETATM   21  C8  UNL     1      23.518   7.294   9.622  1.00  0.00     0.060 A
HETATM   22  N9  UNL     1      24.754   6.986  10.051  1.00  0.00    -0.337 N
HETATM   23  C9  UNL     1      25.674   7.268   9.116  1.00  0.00     0.142 A
ATOM     24  H9  UNL     1      24.965   6.589  10.966  1.00  0.00     0.168 HD
HETATM   25  C10 UNL     1      25.015   7.786   8.024  1.00  0.00     0.094 A
HETATM   26  C11 UNL     1      23.660   7.800   8.347  1.00  0.00     0.093 A
BRANCH  23  27
HETATM   27  O1  UNL     1      27.055   7.084   9.203  1.00  0.00    -0.346 OA
ATOM     28  H1  UNL     1      27.519   6.420   9.699  1.00  0.00     0.219 HD
ENDBRANCH  23  27
BRANCH  26  29
HETATM   29  O2  UNL     1      22.624   8.245   7.533  1.00  0.00    -0.359 OA
ATOM     30  H2  UNL     1      22.725   8.635   6.672  1.00  0.00     0.217 HD
ENDBRANCH  26  29
ENDBRANCH  20  21
ENDBRANCH  19  20
ENDBRANCH  18  19
ENDBRANCH  17  18
ENDBRANCH   1  17
BRANCH   1  31
HETATM   31  C12 UNL     1      23.186   3.540   8.713  1.00  0.00     0.149 A
HETATM   32  N10 UNL     1      23.392   3.943   7.409  1.00  0.00    -0.172 N
HETATM   33  C13 UNL     1      24.669   4.199   7.191  1.00  0.00     0.714 A
ATOM     34  H10 UNL     1      22.657   4.032   6.707  1.00  0.00     0.186 HD
HETATM   35  N12 UNL     1      25.297   3.965   8.338  1.00  0.00    -0.015 N
HETATM   36  N13 UNL     1      24.391   3.563   9.272  1.00  0.00    -0.193 N
HETATM   37  N17 UNL     1      26.643   4.070   8.655  1.00  0.00    -0.269 N
HETATM   38  C14 UNL     1      24.948   3.291  10.523  1.00  0.00     0.262 C
HETATM   39  N14 UNL     1      24.299   2.747  11.620  1.00  0.00    -0.074 NA
HETATM   40  N16 UNL     1      25.290   4.424  11.375  1.00  0.00    -0.074 NA
HETATM   41  C15 UNL     1      26.265   2.490  10.377  1.00  0.00     0.234 C
HETATM   42  N15 UNL     1      25.000   3.613  12.475  1.00  0.00    -0.032 NA
HETATM   43  C16 UNL     1      27.294   3.149   9.561  1.00  0.00     0.269 C
ATOM     44  H17 UNL     1      27.191   4.821   8.236  1.00  0.00     0.186 HD
BRANCH  33  45
HETATM   45  N11 UNL     1      25.177   4.603   6.050  1.00  0.00    -0.231 N
ATOM     46 2H11 UNL     1      24.704   4.733   5.156  1.00  0.00     0.174 HD
ATOM     47 1H11 UNL     1      26.154   4.851   5.896  1.00  0.00     0.174 HD
ENDBRANCH  33  45
BRANCH  41  48
HETATM   48  O3  UNL     1      25.978   1.215   9.915  1.00  0.00    -0.386 OA
ATOM     49  H3  UNL     1      25.280   1.263   9.273  1.00  0.00     0.210 HD
ENDBRANCH  41  48
BRANCH  43  50
HETATM   50  O4  UNL     1      28.272   3.817  10.292  1.00  0.00    -0.373 OA
ATOM     51  H4  UNL     1      28.313   4.753  10.133  1.00  0.00     0.212 HD
ENDBRANCH  43  50
ENDBRANCH   1  31
TORSDOF 13
ENDMDL