MODEL 1
REMARK VINA RESULT: -6.445132390      0.000      0.000
REMARK  16 active torsions:
REMARK  status: ('A' for Active; 'I' for Inactive)
REMARK    1  A    between atoms: C1_4  and  N2_5
REMARK    2  A    between atoms: C1_4  and  C4_13
REMARK    3  A    between atoms: N2_5  and  C2_7
REMARK    4  A    between atoms: C2_7  and  C3_8
REMARK    5  A    between atoms: C3_8  and  O1_9
REMARK    6  A    between atoms: C3_8  and  O2_11
REMARK    7  A    between atoms: C5_17  and  S1_18
REMARK    8  A    between atoms: S1_18  and  C6_19
REMARK    9  A    between atoms: C7_20  and  O3_21
REMARK   10  A    between atoms: C8_23  and  N6_24
REMARK   11  A    between atoms: C10_30  and  C11_31
REMARK   12  A    between atoms: C11_31  and  O4_32
REMARK   13  A    between atoms: N9_34  and  C12_35
REMARK   14  A    between atoms: C13_39  and  O5_40
REMARK   15  A    between atoms: C14_42  and  O6_43
REMARK   16  A    between atoms: C15_45  and  O7_46
ROOT
HETATM    1  C6  UNL     1      24.844   5.641   8.929  1.00  0.00     0.182 C
HETATM    2  C7  UNL     1      25.507   6.982   8.807  1.00  0.00     0.195 C
HETATM    3  C8  UNL     1      26.689   6.179   8.305  1.00  0.00     0.239 C
HETATM    4  N9  UNL     1      25.963   5.046   8.333  1.00  0.00    -0.343 N
ENDROOT
BRANCH   1   5
HETATM    5  S1  UNL     1      24.435   5.372  10.657  1.00  0.00    -0.091 SA
BRANCH   5   6
HETATM    6  C5  UNL     1      23.141   4.167  10.888  1.00  0.00     0.299 C
HETATM    7  N5  UNL     1      22.550   4.227  12.218  1.00  0.00    -0.087 NA
HETATM    8  N4  UNL     1      23.261   3.491  13.154  1.00  0.00    -0.034 NA
HETATM    9  N3  UNL     1      23.302   2.135  12.807  1.00  0.00    -0.090 NA
HETATM   10  C4  UNL     1      22.730   2.030  11.468  1.00  0.00     0.301 C
HETATM   11  O8  UNL     1      23.482   2.853  10.633  1.00  0.00    -0.330 OA
BRANCH  10  12
HETATM   12  C1  UNL     1      22.741   0.622  10.996  1.00  0.00     0.118 C
HETATM   13  N1  UNL     1      21.626   0.005  10.852  1.00  0.00    -0.386 N
ATOM     14  H12 UNL     1      21.634  -0.962  10.529  1.00  0.00     0.157 HD
ATOM     15  H11 UNL     1      20.747   0.482  11.053  1.00  0.00     0.157 HD
BRANCH  12  16
HETATM   16  N2  UNL     1      23.953  -0.036  10.720  1.00  0.00    -0.372 N
ATOM     17  H2  UNL     1      24.460   0.260   9.886  1.00  0.00     0.161 HD
BRANCH  16  18
HETATM   18  C2  UNL     1      24.546  -1.090  11.507  1.00  0.00     0.181 C
BRANCH  18  19
HETATM   19  C3  UNL     1      25.782  -0.618  12.199  1.00  0.00     0.271 C
BRANCH  19  20
HETATM   20  O1  UNL     1      25.594  -0.849  13.585  1.00  0.00    -0.370 OA
ATOM     21  H1  UNL     1      24.983  -1.572  13.665  1.00  0.00     0.212 HD
ENDBRANCH  19  20
BRANCH  19  22
HETATM   22  O2  UNL     1      26.008   0.738  11.970  1.00  0.00    -0.370 OA
ATOM     23  H2  UNL     1      25.926   1.245  12.769  1.00  0.00     0.212 HD
ENDBRANCH  19  22
ENDBRANCH  18  19
ENDBRANCH  16  18
ENDBRANCH  12  16
ENDBRANCH  10  12
ENDBRANCH   5   6
ENDBRANCH   1   5
BRANCH   2  24
HETATM   24  O3  UNL     1      25.824   7.648   9.990  1.00  0.00    -0.389 OA
ATOM     25  H3  UNL     1      25.831   8.598   9.967  1.00  0.00     0.210 HD
ENDBRANCH   2  24
BRANCH   4  26
HETATM   26  C12 UNL     1      26.410   3.756   8.585  1.00  0.00     0.319 C
HETATM   27  N10 UNL     1      26.478   2.814   7.481  1.00  0.00    -0.023 N
HETATM   28  C13 UNL     1      26.867   1.610   8.255  1.00  0.00     0.352 C
ATOM     29 2H10 UNL     1      25.645   2.732   6.897  1.00  0.00     0.282 HD
ATOM     30 1H10 UNL     1      27.081   3.068   6.699  1.00  0.00     0.282 HD
HETATM   31  C14 UNL     1      28.117   2.151   8.917  1.00  0.00     0.207 C
HETATM   32  C15 UNL     1      27.877   3.669   9.020  1.00  0.00     0.201 C
BRANCH  28  33
HETATM   33  O5  UNL     1      25.896   1.194   9.122  1.00  0.00    -0.368 OA
ATOM     34  H5  UNL     1      25.056   1.051   8.701  1.00  0.00     0.212 HD
ENDBRANCH  28  33
BRANCH  31  35
HETATM   35  O6  UNL     1      28.332   1.592  10.164  1.00  0.00    -0.388 OA
ATOM     36  H6  UNL     1      28.990   0.906  10.140  1.00  0.00     0.210 HD
ENDBRANCH  31  35
BRANCH  32  37
HETATM   37  O7  UNL     1      28.121   4.018  10.305  1.00  0.00    -0.389 OA
ATOM     38  H7  UNL     1      28.906   3.642  10.686  1.00  0.00     0.210 HD
ENDBRANCH  32  37
ENDBRANCH   4  26
BRANCH   3  39
HETATM   39  N6  UNL     1      27.168   6.837   7.128  1.00  0.00    -0.252 N
HETATM   40  N7  UNL     1      27.193   8.182   7.077  1.00  0.00    -0.239 N
HETATM   41  N8  UNL     1      27.658   8.585   5.934  1.00  0.00    -0.295 N
ATOM     42  H7  UNL     1      26.889   8.797   7.831  1.00  0.00     0.208 HD
HETATM   43  C9  UNL     1      27.956   7.528   5.190  1.00  0.00     0.137 A
ATOM     44  H8  UNL     1      27.775   9.559   5.653  1.00  0.00     0.187 HD
HETATM   45  C10 UNL     1      27.636   6.422   5.972  1.00  0.00     0.072 A
BRANCH  45  46
HETATM   46  C11 UNL     1      27.795   5.031   5.568  1.00  0.00     0.224 C
BRANCH  46  47
HETATM   47  O4  UNL     1      26.628   4.540   4.979  1.00  0.00    -0.395 OA
ATOM     48  H4  UNL     1      26.313   3.768   5.433  1.00  0.00     0.209 HD
ENDBRANCH  46  47
ENDBRANCH  45  46
ENDBRANCH   3  39
TORSDOF 16
ENDMDL