MODEL 1
REMARK VINA RESULT: -7.080174869      0.000      0.000
REMARK  19 active torsions:
REMARK  status: ('A' for Active; 'I' for Inactive)
REMARK    1  A    between atoms: C2_3  and  O1_4
REMARK    2  A    between atoms: C4_7  and  O2_8
REMARK    3  A    between atoms: C4_7  and  N2_10
REMARK    4  A    between atoms: N2_10  and  C5_12
REMARK    5  A    between atoms: N3_14  and  C7_15
REMARK    6  A    between atoms: C7_15  and  O3_16
REMARK    7  A    between atoms: C7_15  and  O4_18
REMARK    8  A    between atoms: O4_18  and  C8_19
REMARK    9  A    between atoms: C8_19  and  C9_20
REMARK   10  A    between atoms: C9_20  and  O5_21
REMARK   11  A    between atoms: C9_20  and  C10_23
REMARK   12  A    between atoms: C10_23  and  O6_24
REMARK   13  A    between atoms: C11_28  and  O7_29
REMARK   14  A    between atoms: N5_33  and  O9_34
REMARK   15  A    between atoms: C13_36  and  C14_37
REMARK   16  A    between atoms: C14_37  and  N6_38
REMARK   17  A    between atoms: C14_37  and  C16_43
REMARK       I    between atoms: N6_38  and  C15_40
REMARK   18  A    between atoms: C16_43  and  O12_44
REMARK   19  A    between atoms: C16_43  and  O13_46
ROOT
HETATM    1  N1  UNL     1      23.158   3.772  11.411  1.00  0.00    -0.097 NA
HETATM    2  C1  UNL     1      24.528   3.798  11.017  1.00  0.00     0.112 A
HETATM    3  C2  UNL     1      25.154   2.578  11.277  1.00  0.00     0.112 A
HETATM    4  C3  UNL     1      26.427   2.398  10.809  1.00  0.00     0.120 A
HETATM    5  C4  UNL     1      27.062   1.246  11.036  1.00  0.00     0.159 C
HETATM    6  C12 UNL     1      26.991   3.423  10.124  1.00  0.00     0.289 A
HETATM    7  O8  UNL     1      28.142   3.289   9.686  1.00  0.00    -0.265 OA
HETATM    8  N5  UNL     1      26.347   4.613   9.888  1.00  0.00    -0.183 N
HETATM    9  C13 UNL     1      25.083   4.844  10.333  1.00  0.00     0.121 A
ENDROOT
BRANCH   5  10
HETATM   10  O2  UNL     1      28.347   1.107  10.545  1.00  0.00    -0.345 OA
ATOM     11  H2  UNL     1      28.486   0.504   9.824  1.00  0.00     0.219 HD
ENDBRANCH   5  10
BRANCH   5  12
HETATM   12  N2  UNL     1      26.504   0.159  11.744  1.00  0.00    -0.332 N
ATOM     13  H2  UNL     1      25.630  -0.241  11.402  1.00  0.00     0.168 HD
BRANCH  12  14
HETATM   14  C5  UNL     1      27.090  -0.404  12.903  1.00  0.00     0.104 A
HETATM   15  C6  UNL     1      28.227  -0.047  13.589  1.00  0.00     0.149 A
HETATM   16  N3  UNL     1      28.419  -0.864  14.651  1.00  0.00    -0.246 N
HETATM   17  N4  UNL     1      27.417  -1.710  14.616  1.00  0.00    -0.272 N
HETATM   18  C11 UNL     1      26.585  -1.483  13.587  1.00  0.00     0.184 A
ATOM     19  H4  UNL     1      27.284  -2.457  15.297  1.00  0.00     0.189 HD
BRANCH  16  20
HETATM   20  C7  UNL     1      29.546  -0.764  15.599  1.00  0.00     0.390 C
BRANCH  20  21
HETATM   21  O3  UNL     1      29.209  -1.650  16.689  1.00  0.00    -0.353 OA
ATOM     22  H3  UNL     1      29.577  -1.245  17.465  1.00  0.00     0.214 HD
ENDBRANCH  20  21
BRANCH  20  23
HETATM   23  O4  UNL     1      29.750   0.460  15.996  1.00  0.00    -0.340 OA
BRANCH  23  24
HETATM   24  C8  UNL     1      30.363   1.068  16.947  1.00  0.00     0.206 C
BRANCH  24  25
HETATM   25  C9  UNL     1      30.066   2.428  17.482  1.00  0.00     0.165 C
BRANCH  25  26
HETATM   26  O5  UNL     1      30.009   2.199  18.937  1.00  0.00    -0.391 OA
ATOM     27  H5  UNL     1      29.086   2.026  19.086  1.00  0.00     0.210 HD
ENDBRANCH  25  26
BRANCH  25  28
HETATM   28  C10 UNL     1      31.096   3.486  17.367  1.00  0.00     0.198 C
BRANCH  28  29
HETATM   29  O6  UNL     1      30.727   4.501  16.546  1.00  0.00    -0.398 OA
ATOM     30  H6  UNL     1      31.346   4.655  15.842  1.00  0.00     0.209 HD
ENDBRANCH  28  29
ENDBRANCH  25  28
ENDBRANCH  24  25
ENDBRANCH  23  24
ENDBRANCH  20  23
ENDBRANCH  16  20
BRANCH  18  31
HETATM   31  O7  UNL     1      25.418  -2.198  13.256  1.00  0.00    -0.343 OA
ATOM     32  H7  UNL     1      25.324  -2.802  12.530  1.00  0.00     0.219 HD
ENDBRANCH  18  31
ENDBRANCH  12  14
ENDBRANCH   5  12
BRANCH   3  33
HETATM   33  O1  UNL     1      24.542   1.559  11.978  1.00  0.00    -0.358 OA
ATOM     34  H1  UNL     1      24.999   1.033  12.624  1.00  0.00     0.217 HD
ENDBRANCH   3  33
BRANCH   8  35
HETATM   35  O9  UNL     1      27.065   5.534   9.196  1.00  0.00    -0.279 OA
ATOM     36  H9  UNL     1      26.812   6.438   9.341  1.00  0.00     0.245 HD
ENDBRANCH   8  35
BRANCH   9  37
HETATM   37  C14 UNL     1      24.509   6.056  10.256  1.00  0.00     0.101 C
BRANCH  37  38
HETATM   38  N6  UNL     1      23.270   6.252   9.596  1.00  0.00    -0.298 N
HETATM   39  C15 UNL     1      22.067   6.776  10.103  1.00  0.00     0.288 C
HETATM   40  O10 UNL     1      21.809   7.170  11.227  1.00  0.00    -0.629 OA
HETATM   41  O11 UNL     1      20.954   6.882   9.206  1.00  0.00    -0.629 OA
ATOM     42  H6  UNL     1      23.247   5.974   8.615  1.00  0.00     0.172 HD
ENDBRANCH  37  38
BRANCH  37  43
HETATM   43  C16 UNL     1      25.236   7.293  10.698  1.00  0.00     0.307 C
BRANCH  43  44
HETATM   44  O12 UNL     1      24.471   7.938  11.641  1.00  0.00    -0.366 OA
ATOM     45  H12 UNL     1      23.554   7.822  11.419  1.00  0.00     0.213 HD
ENDBRANCH  43  44
BRANCH  43  46
HETATM   46  O13 UNL     1      25.330   8.088   9.488  1.00  0.00    -0.366 OA
ATOM     47  H13 UNL     1      25.322   8.984   9.805  1.00  0.00     0.213 HD
ENDBRANCH  43  46
ENDBRANCH  37  43
ENDBRANCH   9  37
TORSDOF 19
ENDMDL