MODEL 1
REMARK VINA RESULT: -10.509893898      0.000      0.000
REMARK  5 active torsions:
REMARK  status: ('A' for Active; 'I' for Inactive)
REMARK    1  A    between atoms: C2_2  and  C3_3
REMARK    2  A    between atoms: C2_2  and  C14_15
REMARK    3  A    between atoms: C3_3  and  C4_4
REMARK    4  A    between atoms: C4_4  and  C5_5
REMARK    5  A    between atoms: C5_5  and  C6_6
ROOT
HETATM    1  C1  UNL     1      16.254  31.504  47.938  1.00  0.00     0.020 C
HETATM    2  C2  UNL     1      15.065  30.956  47.992  1.00  0.00    -0.055 C
ENDROOT
BRANCH   2   3
HETATM    3  C3  UNL     1      14.136  31.332  46.876  1.00  0.00     0.039 C
BRANCH   3   4
HETATM    4  C4  UNL     1      14.685  30.906  45.542  1.00  0.00     0.011 C
BRANCH   4   5
HETATM    5  C5  UNL     1      14.315  29.514  45.144  1.00  0.00     0.065 C
BRANCH   5   6
HETATM    6  C6  UNL     1      15.473  28.602  44.999  1.00  0.00     0.054 A
HETATM    7  C7  UNL     1      16.151  28.128  46.126  1.00  0.00     0.047 A
HETATM    8  C8  UNL     1      17.164  27.316  45.667  1.00  0.00     0.000 A
HETATM    9  C9  UNL     1      18.130  26.594  46.317  1.00  0.00     0.014 A
HETATM   10  C13 UNL     1      17.064  27.326  44.294  1.00  0.00     0.086 A
HETATM   11  C10 UNL     1      19.021  25.861  45.551  1.00  0.00     0.001 A
HETATM   12  C11 UNL     1      18.926  25.867  44.179  1.00  0.00     0.003 A
HETATM   13  C12 UNL     1      17.953  26.593  43.522  1.00  0.00     0.038 A
HETATM   14  O1  UNL     1      16.057  28.096  43.966  1.00  0.00    -0.314 OA
ENDBRANCH   5   6
ENDBRANCH   4   5
ENDBRANCH   3   4
ENDBRANCH   2   3
BRANCH   2  15
HETATM   15  C14 UNL     1      14.635  30.068  49.055  1.00  0.00    -0.003 A
HETATM   16  C15 UNL     1      13.797  28.963  48.936  1.00  0.00     0.101 A
HETATM   17  N1  UNL     1      13.581  28.383  50.116  1.00  0.00    -0.364 N
HETATM   18  C16 UNL     1      14.269  29.091  51.035  1.00  0.00     0.043 A
ATOM     19  H1  UNL     1      13.006  27.559  50.290  1.00  0.00     0.165 HD
HETATM   20  C17 UNL     1      14.368  28.908  52.395  1.00  0.00     0.030 A
HETATM   21  C21 UNL     1      14.930  30.144  50.393  1.00  0.00     0.003 A
HETATM   22  C18 UNL     1      15.112  29.743  53.189  1.00  0.00     0.002 A
HETATM   23  C19 UNL     1      15.765  30.782  52.571  1.00  0.00     0.001 A
HETATM   24  C20 UNL     1      15.665  30.966  51.194  1.00  0.00     0.014 A
ENDBRANCH   2  15
TORSDOF 5
ENDMDL