MODEL 2
REMARK VINA RESULT: -7.863914741      1.916      4.863
REMARK  6 active torsions:
REMARK  status: ('A' for Active; 'I' for Inactive)
REMARK    1  A    between atoms: C2_2  and  C3_3
REMARK    2  A    between atoms: C3_3  and  C4_4
REMARK    3  A    between atoms: C4_4  and  C5_5
REMARK    4  A    between atoms: C5_5  and  C6_6
REMARK    5  A    between atoms: C6_6  and  N1_7
REMARK    6  A    between atoms: N1_7  and  C7_9
ROOT
HETATM    1  C7  UNL     1      15.089  29.514  49.762  1.00  0.00     0.115 A
HETATM    2  N2  UNL     1      15.328  30.470  48.852  1.00  0.00    -0.341 N
ATOM      3  H2  UNL     1      15.953  31.231  49.118  1.00  0.00     0.167 HD
HETATM    4  C8  UNL     1      14.801  30.499  47.613  1.00  0.00     0.044 A
HETATM    5  C9  UNL     1      15.107  31.527  46.747  1.00  0.00     0.030 A
HETATM    6  C10 UNL     1      14.553  31.527  45.489  1.00  0.00     0.002 A
HETATM    7  C11 UNL     1      13.705  30.547  45.052  1.00  0.00     0.001 A
HETATM    8  C12 UNL     1      13.409  29.513  45.949  1.00  0.00     0.014 A
HETATM    9  C13 UNL     1      13.939  29.467  47.222  1.00  0.00     0.002 A
HETATM   10  C14 UNL     1      13.650  28.454  48.106  1.00  0.00    -0.007 A
HETATM   11  C15 UNL     1      12.808  27.437  47.737  1.00  0.00     0.014 A
HETATM   12  C16 UNL     1      12.549  26.441  48.662  1.00  0.00     0.015 A
HETATM   13  C17 UNL     1      13.118  26.468  49.913  1.00  0.00     0.001 A
HETATM   14  C18 UNL     1      13.049  25.643  51.011  1.00  0.00     0.039 A
HETATM   15  C19 UNL     1      13.851  26.206  51.978  1.00  0.00     0.143 A
HETATM   16  O1  UNL     1      14.379  27.313  51.496  1.00  0.00    -0.321 OA
HETATM   17  C20 UNL     1      13.963  27.510  50.251  1.00  0.00     0.100 A
HETATM   18  C21 UNL     1      14.235  28.504  49.361  1.00  0.00     0.053 A
ENDROOT
BRANCH   1  19
HETATM   19  N1  UNL     1      15.619  29.527  50.947  1.00  0.00    -0.376 N
ATOM     20  H1  UNL     1      15.898  28.662  51.411  1.00  0.00     0.161 HD
BRANCH  19  21
HETATM   21  C6  UNL     1      15.798  30.798  51.579  1.00  0.00     0.121 C
BRANCH  21  22
HETATM   22  C5  UNL     1      15.338  30.838  53.001  1.00  0.00     0.020 C
BRANCH  22  23
HETATM   23  C4  UNL     1      14.130  29.996  53.267  1.00  0.00     0.002 C
BRANCH  23  24
HETATM   24  C3  UNL     1      12.834  30.714  53.027  1.00  0.00    -0.000 C
BRANCH  24  25
HETATM   25  C2  UNL     1      12.137  30.300  51.772  1.00  0.00    -0.005 C
HETATM   26  C1  UNL     1      12.379  31.388  50.735  1.00  0.00     0.005 C
ENDBRANCH  24  25
ENDBRANCH  23  24
ENDBRANCH  22  23
ENDBRANCH  21  22
ENDBRANCH  19  21
ENDBRANCH   1  19
TORSDOF 6
ENDMDL