MODEL 4
REMARK VINA RESULT: -8.314713591      2.083      9.419
REMARK  5 active torsions:
REMARK  status: ('A' for Active; 'I' for Inactive)
REMARK    1  A    between atoms: C2_2  and  C3_3
REMARK    2  A    between atoms: C3_3  and  C4_4
REMARK    3  A    between atoms: C4_4  and  C5_5
REMARK    4  A    between atoms: C5_5  and  C6_6
REMARK    5  A    between atoms: C10_12  and  C11_13
ROOT
HETATM    1  C6  UNL     1      18.565  25.209  43.048  1.00  0.00    -0.057 A
HETATM    2  C7  UNL     1      19.427  25.162  44.151  1.00  0.00     0.009 A
HETATM    3  C8  UNL     1      19.170  25.896  45.268  1.00  0.00     0.031 A
HETATM    4  C9  UNL     1      18.071  26.721  45.398  1.00  0.00     0.043 A
HETATM    5  N1  UNL     1      17.593  27.531  46.361  1.00  0.00    -0.355 N
ATOM      6  H1  UNL     1      18.036  27.676  47.268  1.00  0.00     0.166 HD
HETATM    7  C10 UNL     1      16.448  28.125  45.964  1.00  0.00     0.045 A
HETATM    8  C20 UNL     1      16.215  27.653  44.691  1.00  0.00     0.044 A
HETATM    9  C21 UNL     1      17.218  26.766  44.304  1.00  0.00    -0.007 A
HETATM   10  C22 UNL     1      17.467  26.031  43.171  1.00  0.00     0.021 A
ENDROOT
BRANCH   7  11
HETATM   11  C11 UNL     1      15.652  29.066  46.745  1.00  0.00     0.007 A
HETATM   12  C12 UNL     1      15.402  30.340  46.286  1.00  0.00     0.102 A
HETATM   13  N2  UNL     1      14.664  31.224  47.000  1.00  0.00    -0.364 N
HETATM   14  C13 UNL     1      14.139  30.900  48.195  1.00  0.00     0.042 A
ATOM     15  H2  UNL     1      14.503  32.158  46.622  1.00  0.00     0.165 HD
HETATM   16  C14 UNL     1      13.396  31.860  48.866  1.00  0.00     0.030 A
HETATM   17  C18 UNL     1      14.349  29.650  48.712  1.00  0.00    -0.009 A
HETATM   18  C15 UNL     1      12.884  31.478  50.078  1.00  0.00     0.002 A
HETATM   19  C16 UNL     1      13.075  30.236  50.623  1.00  0.00     0.001 A
HETATM   20  C17 UNL     1      13.818  29.313  49.927  1.00  0.00     0.014 A
HETATM   21  C19 UNL     1      15.111  28.740  47.969  1.00  0.00     0.029 A
ENDBRANCH   7  11
BRANCH   1  22
HETATM   22  C5  UNL     1      18.854  24.413  41.849  1.00  0.00     0.038 C
BRANCH  22  23
HETATM   23  C4  UNL     1      17.744  24.393  40.865  1.00  0.00     0.005 C
BRANCH  23  24
HETATM   24  C3  UNL     1      18.167  23.802  39.543  1.00  0.00    -0.000 C
BRANCH  24  25
HETATM   25  C2  UNL     1      17.709  24.760  38.432  1.00  0.00    -0.005 C
HETATM   26  C1  UNL     1      18.395  24.333  37.172  1.00  0.00     0.005 C
ENDBRANCH  24  25
ENDBRANCH  23  24
ENDBRANCH  22  23
ENDBRANCH   1  22
TORSDOF 5
ENDMDL