MODEL 1
REMARK VINA RESULT: -8.446270628      0.000      0.000
REMARK  6 active torsions:
REMARK  status: ('A' for Active; 'I' for Inactive)
REMARK    1  A    between atoms: C2_2  and  N1_3
REMARK    2  A    between atoms: C2_2  and  C3_7
REMARK    3  A    between atoms: C3_7  and  C4_8
REMARK    4  A    between atoms: C4_8  and  C5_9
REMARK    5  A    between atoms: C8_12  and  C9_13
REMARK    6  A    between atoms: C12_16  and  C13_17
ROOT
HETATM    1  C5  UNL     1      13.893  31.036  49.005  1.00  0.00    -0.058 A
HETATM    2  C6  UNL     1      13.575  29.703  48.922  1.00  0.00     0.008 A
HETATM    3  C7  UNL     1      14.258  28.912  48.030  1.00  0.00     0.013 A
HETATM    4  C8  UNL     1      15.239  29.402  47.225  1.00  0.00    -0.026 A
HETATM    5  C21 UNL     1      15.551  30.736  47.314  1.00  0.00     0.013 A
HETATM    6  C22 UNL     1      14.879  31.560  48.206  1.00  0.00     0.008 A
ENDROOT
BRANCH   4   7
HETATM    7  C9  UNL     1      15.922  28.518  46.292  1.00  0.00    -0.026 A
HETATM    8  C10 UNL     1      15.489  28.300  45.002  1.00  0.00     0.013 A
HETATM    9  C11 UNL     1      16.141  27.459  44.130  1.00  0.00     0.013 A
HETATM   10  C12 UNL     1      17.270  26.798  44.535  1.00  0.00    -0.026 A
HETATM   11  C19 UNL     1      17.734  26.987  45.813  1.00  0.00     0.013 A
HETATM   12  C20 UNL     1      17.066  27.832  46.662  1.00  0.00     0.013 A
BRANCH  10  13
HETATM   13  C13 UNL     1      18.016  25.889  43.669  1.00  0.00    -0.026 A
HETATM   14  C14 UNL     1      19.301  25.492  44.034  1.00  0.00     0.012 A
HETATM   15  C15 UNL     1      20.031  24.638  43.233  1.00  0.00     0.001 A
HETATM   16  C16 UNL     1      19.531  24.143  42.048  1.00  0.00     0.000 A
HETATM   17  C17 UNL     1      18.255  24.531  41.675  1.00  0.00     0.001 A
HETATM   18  C18 UNL     1      17.518  25.394  42.486  1.00  0.00     0.012 A
ENDBRANCH  10  13
ENDBRANCH   4   7
BRANCH   1  19
HETATM   19  C4  UNL     1      13.186  31.907  49.939  1.00  0.00     0.040 C
BRANCH  19  20
HETATM   20  C3  UNL     1      13.840  32.001  51.293  1.00  0.00     0.037 C
BRANCH  20  21
HETATM   21  C2  UNL     1      13.895  30.717  52.051  1.00  0.00     0.179 C
HETATM   22  C1  UNL     1      15.272  30.641  52.707  1.00  0.00     0.039 C
BRANCH  21  23
HETATM   23  N1  UNL     1      12.948  30.722  53.155  1.00  0.00    -0.075 N
ATOM     24  H13 UNL     1      13.337  30.379  54.033  1.00  0.00     0.274 HD
ATOM     25  H12 UNL     1      12.709  31.655  53.488  1.00  0.00     0.274 HD
ATOM     26  H11 UNL     1      12.147  30.185  52.822  1.00  0.00     0.274 HD
ENDBRANCH  21  23
ENDBRANCH  20  21
ENDBRANCH  19  20
ENDBRANCH   1  19
TORSDOF 6
ENDMDL