MODEL 3
REMARK VINA RESULT: -8.514451797      2.087      2.894
REMARK  5 active torsions:
REMARK  status: ('A' for Active; 'I' for Inactive)
REMARK    1  A    between atoms: C2_2  and  C3_3
REMARK    2  A    between atoms: C3_3  and  C4_4
REMARK    3  A    between atoms: C4_4  and  C5_5
REMARK    4  A    between atoms: C5_5  and  C6_6
REMARK    5  A    between atoms: C6_6  and  C7_7
ROOT
HETATM    1  C7  UNL     1      15.536  28.635  45.406  1.00  0.00    -0.057 A
HETATM    2  C8  UNL     1      15.330  29.983  45.565  1.00  0.00     0.008 A
HETATM    3  C9  UNL     1      14.894  30.470  46.803  1.00  0.00     0.013 A
HETATM    4  C10 UNL     1      14.657  29.658  47.877  1.00  0.00    -0.015 A
HETATM    5  C11 UNL     1      14.867  28.290  47.707  1.00  0.00    -0.025 A
HETATM    6  C12 UNL     1      14.647  27.416  48.751  1.00  0.00     0.013 A
HETATM    7  C13 UNL     1      14.222  27.918  49.943  1.00  0.00     0.015 A
HETATM    8  C14 UNL     1      14.013  29.274  50.115  1.00  0.00     0.004 A
HETATM    9  C15 UNL     1      14.227  30.174  49.082  1.00  0.00    -0.013 A
HETATM   10  C16 UNL     1      14.016  31.525  49.258  1.00  0.00     0.014 A
HETATM   11  C17 UNL     1      13.587  31.960  50.492  1.00  0.00     0.016 A
HETATM   12  C18 UNL     1      13.368  31.065  51.540  1.00  0.00     0.010 A
HETATM   13  C19 UNL     1      12.950  31.212  52.843  1.00  0.00     0.120 A
HETATM   14  N1  UNL     1      12.913  29.998  53.417  1.00  0.00    -0.311 N
ATOM     15  H1  UNL     1      12.640  29.796  54.378  1.00  0.00     0.186 HD
HETATM   16  N2  UNL     1      13.294  29.115  52.512  1.00  0.00    -0.299 N
ATOM     17  H2  UNL     1      13.360  28.110  52.674  1.00  0.00     0.187 HD
HETATM   18  C20 UNL     1      13.583  29.724  51.346  1.00  0.00     0.070 A
HETATM   19  C21 UNL     1      15.302  27.804  46.475  1.00  0.00     0.019 A
ENDROOT
BRANCH   1  20
HETATM   20  C6  UNL     1      15.998  28.109  44.100  1.00  0.00     0.038 C
BRANCH  20  21
HETATM   21  C5  UNL     1      16.996  27.018  44.319  1.00  0.00     0.005 C
BRANCH  21  22
HETATM   22  C4  UNL     1      17.892  26.793  43.135  1.00  0.00     0.000 C
BRANCH  22  23
HETATM   23  C3  UNL     1      19.142  26.019  43.508  1.00  0.00    -0.000 C
BRANCH  23  24
HETATM   24  C2  UNL     1      19.087  24.599  43.005  1.00  0.00    -0.005 C
HETATM   25  C1  UNL     1      18.098  24.454  41.855  1.00  0.00     0.005 C
ENDBRANCH  23  24
ENDBRANCH  22  23
ENDBRANCH  21  22
ENDBRANCH  20  21
ENDBRANCH   1  20
TORSDOF 5
ENDMDL