MODEL 1
REMARK VINA RESULT: -10.690113456      0.000      0.000
REMARK  5 active torsions:
REMARK  status: ('A' for Active; 'I' for Inactive)
REMARK    1  A    between atoms: C4_4  and  C5_5
REMARK    2  A    between atoms: C5_5  and  C6_6
REMARK    3  A    between atoms: C6_6  and  C7_7
REMARK    4  A    between atoms: C7_7  and  C8_8
REMARK    5  A    between atoms: C8_8  and  C9_9
ROOT
HETATM    1  C9  UNL     1      13.781  29.711  47.207  1.00  0.00     0.036 A
HETATM    2  N1  UNL     1      14.027  31.014  47.461  1.00  0.00    -0.367 N
ATOM      3  H1  UNL     1      14.037  31.658  46.670  1.00  0.00     0.165 HD
HETATM    4  C10 UNL     1      14.258  31.514  48.663  1.00  0.00     0.089 A
HETATM    5  C11 UNL     1      14.252  30.668  49.759  1.00  0.00     0.031 A
HETATM    6  C12 UNL     1      14.007  29.320  49.577  1.00  0.00     0.006 A
HETATM    7  C13 UNL     1      13.772  28.856  48.291  1.00  0.00     0.066 A
HETATM    8  N2  UNL     1      13.562  27.518  48.385  1.00  0.00    -0.353 N
ATOM      9  H2  UNL     1      13.363  26.890  47.607  1.00  0.00     0.166 HD
HETATM   10  C14 UNL     1      13.664  27.154  49.699  1.00  0.00     0.043 A
HETATM   11  C15 UNL     1      13.542  25.945  50.340  1.00  0.00     0.030 A
HETATM   12  C16 UNL     1      13.696  25.867  51.702  1.00  0.00     0.002 A
HETATM   13  C17 UNL     1      13.976  26.972  52.488  1.00  0.00     0.001 A
HETATM   14  C18 UNL     1      14.095  28.186  51.823  1.00  0.00     0.014 A
HETATM   15  C19 UNL     1      13.941  28.268  50.457  1.00  0.00     0.003 A
ENDROOT
BRANCH   1  16
HETATM   16  C8  UNL     1      13.538  29.264  45.826  1.00  0.00     0.059 C
BRANCH  16  17
HETATM   17  C7  UNL     1      14.761  29.387  44.940  1.00  0.00     0.006 C
BRANCH  17  18
HETATM   18  C6  UNL     1      15.426  28.028  44.905  1.00  0.00     0.005 C
BRANCH  18  19
HETATM   19  C5  UNL     1      16.692  27.994  45.725  1.00  0.00     0.038 C
BRANCH  19  20
HETATM   20  C4  UNL     1      17.619  27.014  45.105  1.00  0.00    -0.058 A
HETATM   21  C3  UNL     1      17.651  26.904  43.730  1.00  0.00     0.007 A
HETATM   22  C2  UNL     1      18.504  26.000  43.124  1.00  0.00     0.001 A
HETATM   23  C1  UNL     1      19.317  25.213  43.894  1.00  0.00     0.000 A
HETATM   24  C21 UNL     1      19.266  25.342  45.253  1.00  0.00     0.001 A
HETATM   25  C20 UNL     1      18.418  26.245  45.898  1.00  0.00     0.007 A
ENDBRANCH  19  20
ENDBRANCH  18  19
ENDBRANCH  17  18
ENDBRANCH  16  17
ENDBRANCH   1  16
TORSDOF 5
ENDMDL