MODEL 4
REMARK VINA RESULT: -9.009862422      0.527      1.200
REMARK  5 active torsions:
REMARK  status: ('A' for Active; 'I' for Inactive)
REMARK    1  A    between atoms: C2_2  and  C3_3
REMARK    2  A    between atoms: C3_3  and  C4_4
REMARK    3  A    between atoms: C4_4  and  C5_5
REMARK    4  A    between atoms: N1_13  and  C13_14
REMARK    5  A    between atoms: C13_14  and  C14_15
ROOT
HETATM    1  C5  UNL     1      14.059  30.114  49.080  1.00  0.00     0.013 A
HETATM    2  C6  UNL     1      14.087  30.004  50.454  1.00  0.00     0.039 A
HETATM    3  C7  UNL     1      13.843  28.692  50.796  1.00  0.00    -0.007 A
HETATM    4  C8  UNL     1      13.751  27.999  51.980  1.00  0.00     0.014 A
HETATM    5  C9  UNL     1      13.491  26.648  52.021  1.00  0.00     0.001 A
HETATM    6  C10 UNL     1      13.320  25.983  50.831  1.00  0.00     0.002 A
HETATM    7  C11 UNL     1      13.414  26.684  49.652  1.00  0.00     0.030 A
HETATM    8  C12 UNL     1      13.674  28.036  49.592  1.00  0.00     0.045 A
HETATM    9  N1  UNL     1      13.806  28.899  48.570  1.00  0.00    -0.344 N
ENDROOT
BRANCH   9  10
HETATM   10  C13 UNL     1      13.683  28.552  47.188  1.00  0.00     0.186 C
BRANCH  10  11
HETATM   11  C14 UNL     1      14.896  28.063  46.539  1.00  0.00     0.029 A
HETATM   12  C15 UNL     1      16.065  27.591  47.093  1.00  0.00     0.040 A
HETATM   13  C16 UNL     1      16.949  27.233  46.096  1.00  0.00    -0.008 A
HETATM   14  C17 UNL     1      18.223  26.719  46.069  1.00  0.00     0.014 A
HETATM   15  C21 UNL     1      16.296  27.498  44.918  1.00  0.00     0.042 A
HETATM   16  C18 UNL     1      18.836  26.473  44.860  1.00  0.00     0.001 A
HETATM   17  C19 UNL     1      18.160  26.746  43.675  1.00  0.00     0.002 A
HETATM   18  C20 UNL     1      16.885  27.262  43.690  1.00  0.00     0.030 A
HETATM   19  N2  UNL     1      15.071  27.993  45.212  1.00  0.00    -0.357 N
ATOM     20  H2  UNL     1      14.376  28.273  44.520  1.00  0.00     0.166 HD
ENDBRANCH  10  11
ENDBRANCH   9  10
BRANCH   1  21
HETATM   21  C4  UNL     1      14.291  31.396  48.373  1.00  0.00     0.057 C
BRANCH  21  22
HETATM   22  C3  UNL     1      15.796  31.529  48.098  1.00  0.00     0.006 C
BRANCH  22  23
HETATM   23  C2  UNL     1      16.051  31.326  46.640  1.00  0.00    -0.004 C
HETATM   24  C1  UNL     1      14.895  31.730  45.767  1.00  0.00     0.005 C
ENDBRANCH  22  23
ENDBRANCH  21  22
ENDBRANCH   1  21
TORSDOF 5
ENDMDL