MODEL 2
REMARK VINA RESULT: -10.283469952      0.084      1.426
REMARK  5 active torsions:
REMARK  status: ('A' for Active; 'I' for Inactive)
REMARK    1  A    between atoms: C1_2  and  C2_3
REMARK    2  A    between atoms: C2_3  and  C3_4
REMARK    3  A    between atoms: C2_3  and  C10_11
REMARK    4  A    between atoms: C3_4  and  C4_5
REMARK    5  A    between atoms: C13_14  and  C14_15
ROOT
HETATM    1  C10 UNL     1      14.656  28.701  46.416  1.00  0.00    -0.053 A
HETATM    2  C11 UNL     1      15.233  29.855  46.870  1.00  0.00     0.008 A
HETATM    3  C12 UNL     1      15.049  30.218  48.203  1.00  0.00     0.013 A
HETATM    4  C13 UNL     1      14.306  29.450  49.071  1.00  0.00    -0.026 A
HETATM    5  C20 UNL     1      13.736  28.294  48.590  1.00  0.00     0.013 A
HETATM    6  C21 UNL     1      13.907  27.919  47.273  1.00  0.00     0.008 A
ENDROOT
BRANCH   1   7
HETATM    7  C2  UNL     1      14.815  28.257  45.000  1.00  0.00     0.033 C
BRANCH   7   8
HETATM    8  C1  UNL     1      13.882  29.010  44.083  1.00  0.00     0.096 C
HETATM    9  S1  UNL     1      12.778  30.104  45.058  1.00  0.00    -0.097 SA
ENDBRANCH   7   8
BRANCH   7  10
HETATM   10  C3  UNL     1      16.234  28.562  44.613  1.00  0.00     0.048 C
BRANCH  10  11
HETATM   11  C4  UNL     1      17.180  27.459  44.743  1.00  0.00    -0.058 A
HETATM   12  C5  UNL     1      17.706  27.130  45.971  1.00  0.00     0.007 A
HETATM   13  C6  UNL     1      18.601  26.102  46.064  1.00  0.00     0.001 A
HETATM   14  C7  UNL     1      19.015  25.362  44.977  1.00  0.00     0.000 A
HETATM   15  C8  UNL     1      18.466  25.716  43.741  1.00  0.00     0.001 A
HETATM   16  C9  UNL     1      17.563  26.750  43.627  1.00  0.00     0.007 A
ENDBRANCH  10  11
ENDBRANCH   7  10
ENDBRANCH   1   7
BRANCH   4  17
HETATM   17  C14 UNL     1      14.158  29.889  50.448  1.00  0.00    -0.026 A
HETATM   18  C15 UNL     1      15.266  30.227  51.196  1.00  0.00     0.012 A
HETATM   19  C16 UNL     1      15.172  30.647  52.503  1.00  0.00     0.001 A
HETATM   20  C17 UNL     1      13.954  30.749  53.128  1.00  0.00     0.000 A
HETATM   21  C18 UNL     1      12.823  30.414  52.395  1.00  0.00     0.001 A
HETATM   22  C19 UNL     1      12.936  29.992  51.077  1.00  0.00     0.012 A
ENDBRANCH   4  17
TORSDOF 5
ENDMDL