MODEL 5
REMARK VINA RESULT: -10.471264613      0.908      1.720
REMARK  5 active torsions:
REMARK  status: ('A' for Active; 'I' for Inactive)
REMARK    1  A    between atoms: C6_6  and  O1_7
REMARK    2  A    between atoms: O1_7  and  C7_8
REMARK    3  A    between atoms: C7_8  and  C8_9
REMARK    4  A    between atoms: C8_9  and  C9_10
REMARK    5  A    between atoms: C9_10  and  C10_11
ROOT
HETATM    1  C7  UNL     1      13.641  29.986  44.908  1.00  0.00     0.176 C
ENDROOT
BRANCH   1   2
HETATM    2  O1  UNL     1      13.244  29.263  45.998  1.00  0.00    -0.351 OA
BRANCH   2   3
HETATM    3  C6  UNL     1      13.605  29.211  47.282  1.00  0.00     0.069 A
HETATM    4  C5  UNL     1      14.003  30.296  48.001  1.00  0.00     0.049 A
HETATM    5  C4  UNL     1      14.355  30.157  49.326  1.00  0.00    -0.023 A
HETATM    6  C3  UNL     1      14.762  31.250  50.082  1.00  0.00     0.012 A
HETATM    7  C20 UNL     1      14.324  28.938  49.977  1.00  0.00    -0.026 A
HETATM    8  C2  UNL     1      15.116  31.126  51.417  1.00  0.00     0.001 A
HETATM    9  C1  UNL     1      15.073  29.892  52.033  1.00  0.00     0.001 A
HETATM   10  C21 UNL     1      14.675  28.805  51.301  1.00  0.00     0.012 A
HETATM   11  C19 UNL     1      13.918  27.855  49.227  1.00  0.00     0.015 A
HETATM   12  C18 UNL     1      13.567  27.965  47.923  1.00  0.00     0.037 A
ENDBRANCH   2   3
ENDBRANCH   1   2
BRANCH   1  13
HETATM   13  C8  UNL     1      15.099  29.762  44.603  1.00  0.00     0.031 C
BRANCH  13  14
HETATM   14  C9  UNL     1      15.252  28.284  44.295  1.00  0.00     0.043 C
BRANCH  14  15
HETATM   15  C10 UNL     1      16.467  27.716  44.880  1.00  0.00    -0.030 A
HETATM   16  C11 UNL     1      16.931  27.973  46.149  1.00  0.00     0.096 A
HETATM   17  N1  UNL     1      18.065  27.273  46.334  1.00  0.00    -0.365 N
HETATM   18  C12 UNL     1      18.321  26.572  45.185  1.00  0.00     0.042 A
ATOM     19  H1  UNL     1      18.633  27.266  47.181  1.00  0.00     0.165 HD
HETATM   20  C13 UNL     1      19.360  25.718  44.882  1.00  0.00     0.030 A
HETATM   21  C17 UNL     1      17.339  26.828  44.256  1.00  0.00    -0.002 A
HETATM   22  C14 UNL     1      19.388  25.129  43.625  1.00  0.00     0.002 A
HETATM   23  C15 UNL     1      18.399  25.393  42.704  1.00  0.00     0.001 A
HETATM   24  C16 UNL     1      17.376  26.238  43.010  1.00  0.00     0.014 A
ENDBRANCH  14  15
ENDBRANCH  13  14
ENDBRANCH   1  13
TORSDOF 5
ENDMDL