MODEL 3
REMARK VINA RESULT: -8.281941258      0.210      1.441
REMARK  6 active torsions:
REMARK  status: ('A' for Active; 'I' for Inactive)
REMARK    1  A    between atoms: C3_4  and  C4_5
REMARK    2  A    between atoms: C4_5  and  C5_6
REMARK    3  A    between atoms: C5_6  and  C6_7
REMARK    4  A    between atoms: C6_7  and  N1_8
REMARK    5  A    between atoms: C11_13  and  N2_14
REMARK    6  A    between atoms: N2_14  and  C12_16
ROOT
HETATM    1  C1  UNL     1      43.151  15.974  84.726  1.00  0.00     0.057 C
HETATM    2  C2  UNL     1      41.657  15.762  84.864  1.00  0.00    -0.011 A
HETATM    3  S1  UNL     1      40.558  16.802  85.705  1.00  0.00    -0.085 SA
HETATM    4  C3  UNL     1      39.134  15.934  85.451  1.00  0.00     0.065 A
HETATM    5  C9  UNL     1      39.526  14.849  84.720  1.00  0.00    -0.023 A
HETATM    6  C10 UNL     1      40.849  14.764  84.412  1.00  0.00    -0.015 A
HETATM    7  C11 UNL     1      41.210  13.547  83.544  1.00  0.00     0.112 C
HETATM    8  C22 UNL     1      40.763  12.302  84.231  1.00  0.00     0.030 C
HETATM    9  C23 UNL     1      39.370  12.471  84.857  1.00  0.00     0.007 C
HETATM   10  C24 UNL     1      38.673  13.676  84.236  1.00  0.00     0.041 C
ENDROOT
BRANCH   7  11
HETATM   11  N2  UNL     1      42.510  13.666  83.070  1.00  0.00    -0.404 N
ATOM     12  H2  UNL     1      43.256  13.804  83.752  1.00  0.00     0.154 HD
BRANCH  11  13
HETATM   13  C12 UNL     1      42.863  13.610  81.706  1.00  0.00     0.027 C
HETATM   14  C13 UNL     1      43.510  14.761  81.054  1.00  0.00     0.035 C
HETATM   15  C14 UNL     1      43.536  14.524  79.533  1.00  0.00    -0.012 C
HETATM   16  C15 UNL     1      42.186  14.286  78.953  1.00  0.00     0.009 C
HETATM   17  C19 UNL     1      44.488  13.370  79.296  1.00  0.00     0.009 C
HETATM   18  C16 UNL     1      41.656  12.997  79.571  1.00  0.00    -0.012 C
HETATM   19  C17 UNL     1      42.580  11.866  79.254  1.00  0.00     0.009 C
HETATM   20  C21 UNL     1      41.515  13.266  81.021  1.00  0.00     0.035 C
HETATM   21  C18 UNL     1      43.893  12.142  79.960  1.00  0.00    -0.012 C
HETATM   22  C20 UNL     1      43.731  12.373  81.427  1.00  0.00     0.035 C
ENDBRANCH  11  13
ENDBRANCH   7  11
BRANCH   4  23
HETATM   23  C4  UNL     1      37.785  16.272  85.882  1.00  0.00    -0.057 C
BRANCH  23  24
HETATM   24  C5  UNL     1      36.673  16.556  86.272  1.00  0.00    -0.070 C
BRANCH  24  25
HETATM   25  C6  UNL     1      35.367  16.916  86.760  1.00  0.00     0.365 C
BRANCH  25  26
HETATM   26  N1  UNL     1      35.377  17.793  87.883  1.00  0.00     0.090 N
HETATM   27  C7  UNL     1      34.383  17.516  88.875  1.00  0.00     0.310 C
HETATM   28  C8  UNL     1      35.142  19.159  87.398  1.00  0.00     0.310 C
ENDBRANCH  25  26
ENDBRANCH  24  25
ENDBRANCH  23  24
ENDBRANCH   4  23
TORSDOF 6
ENDMDL