MODEL 1
REMARK VINA RESULT: -8.741872193      0.000      0.000
REMARK  4 active torsions:
REMARK  status: ('A' for Active; 'I' for Inactive)
REMARK    1  A    between atoms: S1_2  and  C2_3
REMARK    2  A    between atoms: C2_3  and  C4_10
REMARK    3  A    between atoms: N1_4  and  S2_6
REMARK    4  A    between atoms: C4_10  and  C15_28
REMARK       I    between atoms: N2_11  and  C5_13
REMARK       I    between atoms: C5_13  and  N4_17
ROOT
HETATM    1  C4  UNL     1      43.191  14.714  83.202  1.00  0.00     0.064 C
HETATM    2  N2  UNL     1      42.199  14.493  83.914  1.00  0.00    -0.193 N
ATOM      3  H2  UNL     1      42.457  14.426  84.899  1.00  0.00     0.184 HD
HETATM    4  C5  UNL     1      40.851  14.314  83.739  1.00  0.00     0.676 C
HETATM    5  N3  UNL     1      40.294  13.146  83.562  1.00  0.00    -0.234 N
ATOM      6  H31 UNL     1      39.291  13.013  83.431  1.00  0.00     0.174 HD
ATOM      7  H32 UNL     1      40.918  12.339  83.548  1.00  0.00     0.174 HD
HETATM    8  N4  UNL     1      39.977  15.445  83.759  1.00  0.00    -0.199 N
ATOM      9  H4  UNL     1      40.026  16.112  82.989  1.00  0.00     0.183 HD
HETATM   10  C6  UNL     1      39.131  15.660  84.706  1.00  0.00     0.005 C
HETATM   11  C7  UNL     1      38.227  16.842  84.715  1.00  0.00     0.058 C
HETATM   12  C8  UNL     1      37.736  16.849  86.125  1.00  0.00    -0.005 C
HETATM   13  C9  UNL     1      36.408  17.486  86.331  1.00  0.00     0.005 C
HETATM   14  C10 UNL     1      35.384  16.554  86.933  1.00  0.00     0.000 C
HETATM   15  C11 UNL     1      35.899  15.761  88.092  1.00  0.00     0.000 C
HETATM   16  C12 UNL     1      37.291  15.178  87.822  1.00  0.00     0.005 C
HETATM   17  C13 UNL     1      37.553  15.344  86.367  1.00  0.00    -0.005 C
HETATM   18  C14 UNL     1      38.893  14.828  85.916  1.00  0.00     0.058 C
ENDROOT
BRANCH   1  19
HETATM   19  C2  UNL     1      43.103  14.857  81.724  1.00  0.00     0.102 C
HETATM   20  N1  UNL     1      42.828  13.841  81.095  1.00  0.00    -0.277 N
ATOM     21  H1  UNL     1      42.716  13.086  81.772  1.00  0.00     0.179 HD
BRANCH  19  22
HETATM   22  S1  UNL     1      43.403  16.458  81.077  1.00  0.00    -0.114 SA
HETATM   23  C1  UNL     1      42.786  17.831  82.016  1.00  0.00     0.097 C
ENDBRANCH  19  22
BRANCH  20  24
HETATM   24  S2  UNL     1      42.568  13.204  79.604  1.00  0.00     0.227 S
HETATM   25  C3  UNL     1      42.751  11.410  79.668  1.00  0.00     0.186 C
HETATM   26  O1  UNL     1      43.537  13.695  78.554  1.00  0.00    -0.206 OA
HETATM   27  O2  UNL     1      41.133  13.452  79.170  1.00  0.00    -0.206 OA
ENDBRANCH  20  24
ENDBRANCH   1  19
BRANCH   1  28
HETATM   28  C15 UNL     1      44.537  14.841  83.867  1.00  0.00     0.031 C
HETATM   29  C16 UNL     1      45.596  14.269  82.975  1.00  0.00     0.016 C
HETATM   30  C17 UNL     1      44.769  16.277  84.233  1.00  0.00     0.016 C
ENDBRANCH   1  28
TORSDOF 4
ENDMDL