MODEL 1
REMARK VINA RESULT: -9.883650901      0.000      0.000
REMARK  4 active torsions:
REMARK  status: ('A' for Active; 'I' for Inactive)
REMARK    1  A    between atoms: C2_2  and  C4_4
REMARK    2  A    between atoms: N1_6  and  C6_7
REMARK       I    between atoms: N2_15  and  C14_16
REMARK    3  A    between atoms: C14_16  and  O2_18
REMARK    4  A    between atoms: O2_18  and  C15_19
ROOT
HETATM    1  C4  UNL     1      39.073  14.684  85.614  1.00  0.00     0.121 C
HETATM    2  C5  UNL     1      38.212  15.444  86.572  1.00  0.00     0.298 C
HETATM    3  N1  UNL     1      38.252  16.869  86.427  1.00  0.00     0.096 N
HETATM    4  C12 UNL     1      38.160  17.412  85.132  1.00  0.00     0.293 C
HETATM    5  C13 UNL     1      38.953  16.694  84.099  1.00  0.00     0.159 C
HETATM    6  N2  UNL     1      39.676  15.554  84.606  1.00  0.00    -0.320 N
HETATM    7  C14 UNL     1      40.976  15.336  84.084  1.00  0.00     0.363 C
HETATM    8  O1  UNL     1      41.601  14.343  84.533  1.00  0.00    -0.238 OA
ENDROOT
BRANCH   1   9
HETATM    9  C2  UNL     1      38.415  13.489  85.003  1.00  0.00     0.002 C
HETATM   10  C1  UNL     1      39.285  12.330  84.732  1.00  0.00     0.011 C
HETATM   11  C3  UNL     1      37.743  13.922  83.721  1.00  0.00     0.011 C
ENDBRANCH   1   9
BRANCH   7  12
HETATM   12  O2  UNL     1      41.568  16.134  83.136  1.00  0.00    -0.298 OA
BRANCH  12  13
HETATM   13  C15 UNL     1      42.945  16.119  82.919  1.00  0.00     0.142 C
HETATM   14  C16 UNL     1      43.388  16.914  81.723  1.00  0.00     0.016 C
HETATM   15  C17 UNL     1      44.900  17.135  81.861  1.00  0.00     0.012 C
HETATM   16  C21 UNL     1      43.181  16.202  80.423  1.00  0.00     0.012 C
HETATM   17  C18 UNL     1      45.600  15.795  81.947  1.00  0.00    -0.013 C
HETATM   18  C19 UNL     1      45.393  15.097  80.624  1.00  0.00     0.009 C
HETATM   19  C24 UNL     1      45.052  14.929  83.064  1.00  0.00     0.012 C
HETATM   20  C20 UNL     1      43.911  14.882  80.421  1.00  0.00    -0.013 C
HETATM   21  C22 UNL     1      43.358  14.040  81.549  1.00  0.00     0.012 C
HETATM   22  C23 UNL     1      43.544  14.740  82.856  1.00  0.00     0.016 C
ENDBRANCH  12  13
ENDBRANCH   7  12
BRANCH   3  23
HETATM   23  C6  UNL     1      37.292  17.409  87.361  1.00  0.00     0.223 C
HETATM   24  C7  UNL     1      36.298  18.230  86.551  1.00  0.00     0.036 C
HETATM   25  C8  UNL     1      34.930  18.221  87.236  1.00  0.00     0.002 C
HETATM   26  C9  UNL     1      34.310  16.859  87.098  1.00  0.00     0.000 C
HETATM   27  C10 UNL     1      35.395  15.784  87.193  1.00  0.00     0.002 C
HETATM   28  C11 UNL     1      36.499  16.363  88.085  1.00  0.00     0.036 C
ENDBRANCH   3  23
TORSDOF 4
ENDMDL