MODEL 5
REMARK VINA RESULT: -9.560524312      1.129      2.196
REMARK  5 active torsions:
REMARK  status: ('A' for Active; 'I' for Inactive)
REMARK    1  A    between atoms: O1_2  and  C2_3
REMARK    2  A    between atoms: C2_3  and  C3_4
REMARK    3  A    between atoms: N1_10  and  C8_11
REMARK    4  A    between atoms: C8_11  and  N2_13
REMARK    5  A    between atoms: N2_13  and  C9_15
ROOT
HETATM    1  C8  UNL     1      40.912  14.515  84.579  1.00  0.00     0.170 C
HETATM    2  S2  UNL     1      40.826  12.907  84.785  1.00  0.00    -0.041 SA
ENDROOT
BRANCH   1   3
HETATM    3  N1  UNL     1      39.694  15.225  84.565  1.00  0.00    -0.353 N
HETATM    4  C7  UNL     1      38.434  14.558  84.925  1.00  0.00     0.172 C
HETATM    5  C6  UNL     1      37.614  15.524  85.750  1.00  0.00     0.007 A
HETATM    6  C5  UNL     1      37.488  16.804  85.284  1.00  0.00    -0.041 A
HETATM    7  S1  UNL     1      36.729  15.542  87.197  1.00  0.00    -0.095 SA
HETATM    8  C4  UNL     1      36.764  17.656  86.028  1.00  0.00     0.025 A
HETATM    9  C21 UNL     1      38.194  17.055  83.965  1.00  0.00     0.059 C
HETATM   10  C3  UNL     1      36.216  17.169  87.187  1.00  0.00     0.007 A
HETATM   11  C20 UNL     1      39.648  16.621  84.200  1.00  0.00     0.130 C
BRANCH  10  12
HETATM   12  C2  UNL     1      35.366  17.919  88.184  1.00  0.00     0.213 C
BRANCH  12  13
HETATM   13  O1  UNL     1      34.711  18.917  87.516  1.00  0.00    -0.391 OA
HETATM   14  C1  UNL     1      35.024  20.183  87.976  1.00  0.00     0.201 C
ENDBRANCH  12  13
ENDBRANCH  10  12
ENDBRANCH   1   3
BRANCH   1  15
HETATM   15  N2  UNL     1      42.134  15.187  84.425  1.00  0.00    -0.358 N
ATOM     16  H2  UNL     1      42.428  15.757  85.219  1.00  0.00     0.162 HD
BRANCH  15  17
HETATM   17  C9  UNL     1      43.030  15.179  83.294  1.00  0.00     0.033 C
HETATM   18  C10 UNL     1      44.322  14.542  83.668  1.00  0.00     0.035 C
HETATM   19  C11 UNL     1      45.237  14.314  82.461  1.00  0.00    -0.012 C
HETATM   20  C12 UNL     1      46.005  15.548  82.114  1.00  0.00     0.005 C
HETATM   21  C17 UNL     1      44.542  13.694  81.299  1.00  0.00     0.009 C
HETATM   22  C13 UNL     1      45.333  16.585  81.341  1.00  0.00     0.005 C
HETATM   23  C14 UNL     1      43.837  16.635  81.388  1.00  0.00    -0.012 C
HETATM   24  C15 UNL     1      43.216  15.644  80.429  1.00  0.00     0.009 C
HETATM   25  C19 UNL     1      43.282  16.554  82.786  1.00  0.00     0.035 C
HETATM   26  C16 UNL     1      43.191  14.254  81.021  1.00  0.00    -0.012 C
HETATM   27  C18 UNL     1      42.357  14.292  82.246  1.00  0.00     0.035 C
ENDBRANCH  15  17
ENDBRANCH   1  15
TORSDOF 5
ENDMDL