MODEL 2
REMARK VINA RESULT: -2.151688773      1.124      1.227
REMARK  5 active torsions:
REMARK  status: ('A' for Active; 'I' for Inactive)
REMARK    1  A    between atoms: C2_2  and  C3_3
REMARK    2  A    between atoms: C3_3  and  C4_4
REMARK    3  A    between atoms: N1_18  and  C17_20
REMARK    4  A    between atoms: C17_20  and  C18_21
REMARK    5  A    between atoms: C18_21  and  O3_22
ROOT
HETATM    1  C4  UNL     1      38.882  13.869  85.324  1.00  0.00     0.030 C
HETATM    2  C5  UNL     1      37.953  14.204  84.199  1.00  0.00     0.008 C
HETATM    3  C6  UNL     1      38.318  13.375  83.012  1.00  0.00     0.004 C
HETATM    4  C7  UNL     1      39.615  12.639  83.142  1.00  0.00     0.045 C
HETATM    5  C8  UNL     1      40.715  13.405  83.792  1.00  0.00     0.140 C
HETATM    6  O1  UNL     1      41.330  12.587  84.772  1.00  0.00    -0.225 OA
HETATM    7  O2  UNL     1      41.114  13.305  85.822  1.00  0.00    -0.225 OA
HETATM    8  C9  UNL     1      40.334  14.150  84.991  1.00  0.00     0.135 C
HETATM    9  C10 UNL     1      40.771  15.547  85.140  1.00  0.00     0.049 C
HETATM   10  C11 UNL     1      41.183  16.284  83.930  1.00  0.00    -0.015 C
HETATM   11  C12 UNL     1      40.276  17.493  83.649  1.00  0.00     0.010 C
HETATM   12  C13 UNL     1      41.229  15.486  82.663  1.00  0.00     0.019 C
HETATM   13  C14 UNL     1      41.719  14.076  82.893  1.00  0.00     0.027 C
HETATM   14  C15 UNL     1      43.075  14.023  83.517  1.00  0.00     0.250 C
HETATM   15  N1  UNL     1      44.005  13.464  82.543  1.00  0.00    -0.063 N
HETATM   16  C16 UNL     1      44.227  12.051  82.785  1.00  0.00     0.273 C
HETATM   17  C19 UNL     1      43.382  13.780  81.315  1.00  0.00     0.195 C
HETATM   18  C20 UNL     1      43.895  13.122  80.082  1.00  0.00     0.034 C
HETATM   19  C21 UNL     1      42.801  12.429  79.301  1.00  0.00     0.002 C
HETATM   20  C22 UNL     1      41.529  13.182  79.205  1.00  0.00     0.001 C
HETATM   21  C23 UNL     1      41.199  14.019  80.424  1.00  0.00     0.007 C
HETATM   22  C24 UNL     1      41.930  13.419  81.592  1.00  0.00     0.030 C
ENDROOT
BRANCH  15  23
HETATM   23  C17 UNL     1      45.247  14.210  82.737  1.00  0.00     0.263 C
BRANCH  23  24
HETATM   24  C18 UNL     1      45.187  15.578  82.107  1.00  0.00     0.192 C
BRANCH  24  25
HETATM   25  O3  UNL     1      46.288  15.804  81.283  1.00  0.00    -0.399 OA
ATOM     26  H3  UNL     1      46.021  16.148  80.439  1.00  0.00     0.209 HD
ENDBRANCH  24  25
ENDBRANCH  23  24
ENDBRANCH  15  23
BRANCH   1  27
HETATM   27  C3  UNL     1      38.402  14.512  86.580  1.00  0.00     0.034 C
BRANCH  27  28
HETATM   28  C2  UNL     1      37.328  15.497  86.404  1.00  0.00    -0.036 C
HETATM   29  C1  UNL     1      36.714  16.110  87.409  1.00  0.00     0.007 C
ENDBRANCH  27  28
ENDBRANCH   1  27
TORSDOF 5
ENDMDL