MODEL 5
REMARK VINA RESULT: -8.670650107      1.393      3.548
REMARK  3 active torsions:
REMARK  status: ('A' for Active; 'I' for Inactive)
REMARK    1  A    between atoms: C6_10  and  C7_11
REMARK    2  A    between atoms: N3_17  and  C13_18
REMARK    3  A    between atoms: N4_21  and  C16_22
ROOT
HETATM    1  N1  UNL     1      39.765  12.356  84.171  1.00  0.00    -0.234 N
ATOM      2  H11 UNL     1      38.940  12.681  84.675  1.00  0.00     0.174 HD
ATOM      3  H12 UNL     1      39.752  11.336  84.186  1.00  0.00     0.174 HD
HETATM    4  C1  UNL     1      40.554  13.217  83.681  1.00  0.00     0.677 C
HETATM    5  N2  UNL     1      41.701  12.766  82.982  1.00  0.00    -0.208 N
HETATM    6  C2  UNL     1      42.388  11.694  82.322  1.00  0.00     0.142 C
HETATM    7  C3  UNL     1      42.866  12.439  81.057  1.00  0.00     0.023 C
HETATM    8  C4  UNL     1      42.565  13.931  81.347  1.00  0.00     0.033 C
HETATM    9  C5  UNL     1      42.584  13.871  82.848  1.00  0.00     0.149 C
HETATM   10  C6  UNL     1      41.945  14.927  83.638  1.00  0.00     0.035 C
HETATM   11  N3  UNL     1      40.573  14.691  83.661  1.00  0.00    -0.184 N
ENDROOT
BRANCH  11  12
HETATM   12  C13 UNL     1      39.287  15.336  83.669  1.00  0.00     0.110 C
HETATM   13  C14 UNL     1      38.154  14.516  84.252  1.00  0.00     0.045 C
HETATM   14  C15 UNL     1      37.088  15.370  84.954  1.00  0.00     0.119 C
HETATM   15  N4  UNL     1      37.669  16.056  86.020  1.00  0.00    -0.408 N
HETATM   16  C23 UNL     1      38.886  16.735  85.753  1.00  0.00     0.119 C
HETATM   17  C24 UNL     1      39.138  16.681  84.250  1.00  0.00     0.045 C
BRANCH  15  18
HETATM   18  C16 UNL     1      36.823  16.578  87.032  1.00  0.00     0.079 C
HETATM   19  C17 UNL     1      36.420  17.987  86.622  1.00  0.00     0.025 C
HETATM   20  C18 UNL     1      35.700  18.725  87.702  1.00  0.00     0.002 C
HETATM   21  C19 UNL     1      34.434  17.971  88.055  1.00  0.00     0.000 C
HETATM   22  C20 UNL     1      34.813  16.953  89.112  1.00  0.00     0.000 C
HETATM   23  C21 UNL     1      34.979  15.624  88.457  1.00  0.00     0.002 C
HETATM   24  C22 UNL     1      35.594  15.671  87.090  1.00  0.00     0.025 C
ENDBRANCH  15  18
ENDBRANCH  11  12
BRANCH  10  25
HETATM   25  C7  UNL     1      42.649  16.234  83.579  1.00  0.00     0.034 C
HETATM   26  C8  UNL     1      44.139  15.997  83.897  1.00  0.00     0.010 C
HETATM   27  C9  UNL     1      45.064  16.113  82.759  1.00  0.00     0.001 C
HETATM   28  C10 UNL     1      44.881  17.407  81.988  1.00  0.00     0.000 C
HETATM   29  C11 UNL     1      43.470  17.611  81.571  1.00  0.00     0.001 C
HETATM   30  C12 UNL     1      42.404  17.123  82.438  1.00  0.00     0.010 C
ENDBRANCH  10  25
TORSDOF 3
ENDMDL