MODEL 3
REMARK VINA RESULT: -6.572926610      1.029      3.481
REMARK  3 active torsions:
REMARK  status: ('A' for Active; 'I' for Inactive)
REMARK    1  A    between atoms: C9_10  and  C10_11
REMARK    2  A    between atoms: C13_16  and  C14_17
REMARK    3  A    between atoms: C14_17  and  C15_18
ROOT
HETATM    1  C10 UNL     1      41.874  14.363  83.441  1.00  0.00     0.105 A
HETATM    2  N1  UNL     1      41.329  13.874  82.304  1.00  0.00    -0.347 N
ATOM      3  H1  UNL     1      40.313  13.877  82.214  1.00  0.00     0.167 HD
HETATM    4  C11 UNL     1      42.047  13.392  81.302  1.00  0.00     0.018 A
HETATM    5  C12 UNL     1      43.441  13.382  81.410  1.00  0.00    -0.013 A
HETATM    6  C13 UNL     1      44.030  13.868  82.546  1.00  0.00     0.019 A
HETATM    7  N2  UNL     1      43.194  14.344  83.525  1.00  0.00    -0.347 N
ATOM      8  H2  UNL     1      43.620  14.709  84.376  1.00  0.00     0.167 HD
HETATM    9  C21 UNL     1      44.272  12.896  80.295  1.00  0.00     0.042 C
HETATM   10  C22 UNL     1      43.684  11.693  79.614  1.00  0.00     0.005 C
HETATM   11  C23 UNL     1      42.219  11.510  79.808  1.00  0.00     0.006 C
HETATM   12  C24 UNL     1      41.521  12.833  80.029  1.00  0.00     0.057 C
ENDROOT
BRANCH   1  13
HETATM   13  C9  UNL     1      40.977  14.879  84.486  1.00  0.00     0.155 C
HETATM   14  C8  UNL     1      41.127  16.388  84.698  1.00  0.00     0.033 C
HETATM   15  C7  UNL     1      40.385  16.719  85.974  1.00  0.00     0.004 C
HETATM   16  C6  UNL     1      38.942  16.288  85.846  1.00  0.00     0.025 C
HETATM   17  C5  UNL     1      38.653  15.702  84.482  1.00  0.00     0.088 C
HETATM   18  C4  UNL     1      37.231  15.175  84.505  1.00  0.00     0.026 C
HETATM   19  N3  UNL     1      39.597  14.618  84.255  1.00  0.00    -0.336 N
HETATM   20  C3  UNL     1      36.981  14.231  83.346  1.00  0.00     0.011 C
HETATM   21  C2  UNL     1      37.779  12.972  83.556  1.00  0.00     0.103 C
HETATM   22  C1  UNL     1      39.182  13.335  83.819  1.00  0.00     0.220 C
HETATM   23  O1  UNL     1      40.037  12.404  83.629  1.00  0.00    -0.273 OA
ENDBRANCH   1  13
BRANCH   6  24
HETATM   24  C14 UNL     1      45.488  13.884  82.811  1.00  0.00     0.062 C
BRANCH  24  25
HETATM   25  C15 UNL     1      46.093  15.227  83.008  1.00  0.00    -0.009 C
HETATM   26  C16 UNL     1      45.076  16.342  83.202  1.00  0.00     0.005 C
HETATM   27  C17 UNL     1      44.878  17.178  81.964  1.00  0.00     0.000 C
HETATM   28  C18 UNL     1      44.854  16.376  80.692  1.00  0.00     0.000 C
HETATM   29  C19 UNL     1      46.099  15.560  80.520  1.00  0.00     0.000 C
HETATM   30  C20 UNL     1      46.905  15.622  81.782  1.00  0.00     0.005 C
ENDBRANCH  24  25
ENDBRANCH   6  24
TORSDOF 3
ENDMDL