MODEL 2
REMARK VINA RESULT: -8.260116245      1.079      1.293
REMARK  6 active torsions:
REMARK  status: ('A' for Active; 'I' for Inactive)
REMARK       I    between atoms: C1_2  and  N1_3
REMARK    1  A    between atoms: C1_2  and  C7_10
REMARK    2  A    between atoms: N1_3  and  C2_5
REMARK    3  A    between atoms: N2_14  and  C11_15
REMARK    4  A    between atoms: C11_15  and  O2_16
REMARK    5  A    between atoms: C11_15  and  C12_18
REMARK    6  A    between atoms: C12_18  and  C13_19
ROOT
HETATM    1  C11 UNL     1      42.013  14.947  83.722  1.00  0.00     0.128 C
ENDROOT
BRANCH   1   2
HETATM    2  N2  UNL     1      41.065  13.949  84.062  1.00  0.00    -0.351 N
HETATM    3  C7  UNL     1      40.172  14.106  85.190  1.00  0.00     0.178 C
HETATM    4  C8  UNL     1      39.340  12.856  85.211  1.00  0.00     0.037 C
HETATM    5  C9  UNL     1      39.380  12.362  83.777  1.00  0.00     0.022 C
HETATM    6  C10 UNL     1      40.863  12.675  83.482  1.00  0.00     0.126 C
BRANCH   3   7
HETATM    7  C1  UNL     1      39.239  15.230  85.038  1.00  0.00     0.240 C
HETATM    8  O1  UNL     1      39.396  16.097  84.166  1.00  0.00    -0.271 OA
HETATM    9  N1  UNL     1      38.137  15.320  85.912  1.00  0.00    -0.355 N
ATOM     10  H1  UNL     1      38.013  14.604  86.628  1.00  0.00     0.162 HD
BRANCH   9  11
HETATM   11  C2  UNL     1      37.169  16.404  85.823  1.00  0.00     0.084 C
HETATM   12  C3  UNL     1      35.968  16.038  86.639  1.00  0.00     0.025 C
HETATM   13  C4  UNL     1      35.336  17.372  86.945  1.00  0.00     0.002 C
HETATM   14  C5  UNL     1      36.547  18.200  87.327  1.00  0.00     0.002 C
HETATM   15  C6  UNL     1      37.676  17.653  86.512  1.00  0.00     0.025 C
ENDBRANCH   9  11
ENDBRANCH   3   7
ENDBRANCH   1   2
BRANCH   1  16
HETATM   16  O2  UNL     1      42.201  15.802  84.690  1.00  0.00    -0.349 OA
ATOM     17  H2  UNL     1      42.963  15.588  85.217  1.00  0.00     0.219 HD
ENDBRANCH   1  16
BRANCH   1  18
HETATM   18  C12 UNL     1      42.801  15.199  82.542  1.00  0.00     0.056 C
HETATM   19  C17 UNL     1      42.685  16.448  81.792  1.00  0.00     0.028 C
HETATM   20  C18 UNL     1      43.934  17.265  82.020  1.00  0.00    -0.013 C
HETATM   21  C19 UNL     1      45.008  16.646  81.108  1.00  0.00     0.005 C
HETATM   22  C22 UNL     1      44.456  16.707  83.335  1.00  0.00     0.011 C
HETATM   23  C20 UNL     1      45.185  15.247  81.728  1.00  0.00     0.006 C
HETATM   24  C21 UNL     1      44.293  15.257  82.976  1.00  0.00     0.007 C
BRANCH  18  25
HETATM   25  C13 UNL     1      42.818  13.945  81.641  1.00  0.00    -0.034 A
HETATM   26  C14 UNL     1      42.145  13.908  80.487  1.00  0.00     0.016 A
HETATM   27  C15 UNL     1      42.257  12.770  79.729  1.00  0.00     0.050 A
HETATM   28  S1  UNL     1      43.294  11.787  80.652  1.00  0.00    -0.113 SA
HETATM   29  C16 UNL     1      43.559  12.863  81.984  1.00  0.00     0.058 A
ENDBRANCH  18  25
ENDBRANCH   1  18
TORSDOF 6
ENDMDL