MODEL 1
REMARK VINA RESULT: -2.861683442      0.000      0.000
REMARK  3 active torsions:
REMARK  status: ('A' for Active; 'I' for Inactive)
REMARK       I    between atoms: C1_2  and  N1_3
REMARK    1  A    between atoms: C1_2  and  C9_13
REMARK    2  A    between atoms: N1_3  and  C2_5
REMARK    3  A    between atoms: N3_17  and  C13_18
ROOT
HETATM    1  C9  UNL     1      42.466  15.569  82.867  1.00  0.00     0.108 A
HETATM    2  C10 UNL     1      43.025  16.823  83.148  1.00  0.00     0.045 A
HETATM    3  C11 UNL     1      44.092  17.058  82.280  1.00  0.00    -0.033 A
HETATM    4  C12 UNL     1      44.157  15.954  81.498  1.00  0.00     0.023 A
HETATM    5  N3  UNL     1      43.169  15.040  81.848  1.00  0.00    -0.317 N
HETATM    6  C21 UNL     1      45.193  15.852  80.440  1.00  0.00     0.058 C
HETATM    7  C22 UNL     1      46.383  16.702  80.835  1.00  0.00     0.006 C
HETATM    8  C23 UNL     1      45.965  18.123  81.122  1.00  0.00     0.005 C
HETATM    9  C24 UNL     1      44.965  18.236  82.210  1.00  0.00     0.040 C
ENDROOT
BRANCH   1  10
HETATM   10  C1  UNL     1      41.353  15.058  83.599  1.00  0.00     0.269 C
HETATM   11  O1  UNL     1      41.166  13.868  83.984  1.00  0.00    -0.266 OA
HETATM   12  N1  UNL     1      40.268  15.928  83.986  1.00  0.00    -0.349 N
ATOM     13  H1  UNL     1      40.317  16.912  83.724  1.00  0.00     0.163 HD
BRANCH  12  14
HETATM   14  C2  UNL     1      39.114  15.468  84.729  1.00  0.00     0.117 C
HETATM   15  C3  UNL     1      39.183  15.925  86.187  1.00  0.00     0.297 C
HETATM   16  N2  UNL     1      37.877  16.310  86.663  1.00  0.00     0.090 N
HETATM   17  C4  UNL     1      36.913  15.272  86.337  1.00  0.00     0.273 C
HETATM   18  C8  UNL     1      37.418  17.533  86.026  1.00  0.00     0.273 C
HETATM   19  C5  UNL     1      36.687  15.239  84.851  1.00  0.00     0.037 C
HETATM   20  C6  UNL     1      37.816  15.998  84.171  1.00  0.00     0.013 C
HETATM   21  C7  UNL     1      37.694  17.462  84.546  1.00  0.00     0.037 C
ENDBRANCH  12  14
ENDBRANCH   1  10
BRANCH   5  22
HETATM   22  C13 UNL     1      42.983  13.798  81.215  1.00  0.00     0.008 C
HETATM   23  C14 UNL     1      41.741  13.520  80.468  1.00  0.00     0.080 C
HETATM   24  C15 UNL     1      41.780  12.993  79.079  1.00  0.00    -0.025 C
HETATM   25  C16 UNL     1      42.378  11.758  78.653  1.00  0.00    -0.029 C
HETATM   26  C17 UNL     1      42.351  10.443  79.288  1.00  0.00     0.038 C
HETATM   27  C18 UNL     1      43.317  10.243  80.507  1.00  0.00     0.084 C
HETATM   28  C19 UNL     1      43.368  11.494  81.116  1.00  0.00    -0.177 C
HETATM   29  C20 UNL     1      43.601  12.580  81.983  1.00  0.00     0.133 C
ENDBRANCH   5  22
TORSDOF 3
ENDMDL