MODEL 1
REMARK VINA RESULT: -8.771416028      0.000      0.000
REMARK  3 active torsions:
REMARK  status: ('A' for Active; 'I' for Inactive)
REMARK       I    between atoms: N1_4  and  C4_5
REMARK    1  A    between atoms: C4_5  and  C5_7
REMARK    2  A    between atoms: C13_16  and  C14_17
REMARK       I    between atoms: C14_17  and  N2_19
REMARK    3  A    between atoms: N2_19  and  C15_21
ROOT
HETATM    1  C1  UNL     1      41.176  12.324  85.338  1.00  0.00     0.012 C
HETATM    2  C2  UNL     1      41.748  13.610  84.787  1.00  0.00     0.004 C
HETATM    3  C3  UNL     1      42.071  13.399  83.310  1.00  0.00     0.130 C
HETATM    4  N1  UNL     1      42.875  14.475  82.810  1.00  0.00    -0.347 N
HETATM    5  C4  UNL     1      43.344  14.364  81.500  1.00  0.00     0.260 C
HETATM    6  O1  UNL     1      44.059  15.331  81.069  1.00  0.00    -0.267 OA
HETATM    7  C9  UNL     1      43.245  15.679  83.556  1.00  0.00     0.126 C
HETATM    8  C10 UNL     1      42.041  16.570  83.703  1.00  0.00     0.025 C
HETATM    9  C11 UNL     1      40.815  15.722  83.825  1.00  0.00    -0.008 C
HETATM   10  C12 UNL     1      39.609  16.591  84.202  1.00  0.00     0.019 C
HETATM   11  C13 UNL     1      38.601  15.523  84.566  1.00  0.00     0.078 C
HETATM   12  C21 UNL     1      39.403  14.405  85.171  1.00  0.00     0.019 C
HETATM   13  C22 UNL     1      40.872  14.791  85.015  1.00  0.00    -0.004 C
ENDROOT
BRANCH  11  14
HETATM   14  C14 UNL     1      37.538  16.029  85.437  1.00  0.00     0.222 C
HETATM   15  O2  UNL     1      36.345  15.743  85.121  1.00  0.00    -0.273 OA
HETATM   16  N2  UNL     1      37.737  16.804  86.595  1.00  0.00    -0.356 N
ATOM     17  H2  UNL     1      38.698  17.032  86.849  1.00  0.00     0.162 HD
BRANCH  16  18
HETATM   18  C15 UNL     1      36.696  17.295  87.441  1.00  0.00     0.084 C
HETATM   19  C16 UNL     1      35.801  16.174  87.854  1.00  0.00     0.025 C
HETATM   20  C17 UNL     1      34.350  16.503  87.920  1.00  0.00     0.002 C
HETATM   21  C18 UNL     1      34.057  17.877  88.468  1.00  0.00     0.000 C
HETATM   22  C19 UNL     1      34.952  18.938  87.878  1.00  0.00     0.002 C
HETATM   23  C20 UNL     1      35.871  18.382  86.812  1.00  0.00     0.025 C
ENDBRANCH  16  18
ENDBRANCH  11  14
BRANCH   5  24
HETATM   24  C5  UNL     1      43.111  13.272  80.567  1.00  0.00     0.072 A
HETATM   25  C6  UNL     1      43.796  12.079  80.484  1.00  0.00     0.025 A
HETATM   26  C7  UNL     1      43.413  11.214  79.548  1.00  0.00     0.009 A
HETATM   27  C8  UNL     1      42.370  11.559  78.734  1.00  0.00     0.050 A
HETATM   28  S1  UNL     1      41.954  13.101  79.310  1.00  0.00    -0.097 SA
ENDBRANCH   5  24
TORSDOF 3
ENDMDL