MODEL 2
REMARK VINA RESULT: -9.210019920      1.043      1.917
REMARK  4 active torsions:
REMARK  status: ('A' for Active; 'I' for Inactive)
REMARK    1  A    between atoms: C5_5  and  C6_6
REMARK    2  A    between atoms: C6_6  and  N1_8
REMARK    3  A    between atoms: N1_8  and  C7_10
REMARK    4  A    between atoms: C7_10  and  C8_11
ROOT
HETATM    1  C6  UNL     1      42.782  16.372  83.720  1.00  0.00     0.103 C
HETATM    2  S1  UNL     1      43.415  17.195  85.004  1.00  0.00    -0.060 SA
ENDROOT
BRANCH   1   3
HETATM    3  C5  UNL     1      43.639  16.000  82.568  1.00  0.00    -0.017 A
HETATM    4  C4  UNL     1      44.092  16.962  81.522  1.00  0.00     0.043 A
HETATM    5  C3  UNL     1      44.968  16.191  80.570  1.00  0.00     0.019 A
HETATM    6  C2  UNL     1      44.904  14.806  80.999  1.00  0.00    -0.007 A
HETATM    7  C1  UNL     1      46.300  14.367  81.447  1.00  0.00     0.021 C
HETATM    8  C17 UNL     1      44.091  14.825  82.270  1.00  0.00    -0.061 A
HETATM    9  C23 UNL     1      44.407  13.785  80.039  1.00  0.00     0.063 C
HETATM   10  C18 UNL     1      43.998  13.448  82.889  1.00  0.00     0.036 C
HETATM   11  C19 UNL     1      43.238  12.625  81.865  1.00  0.00     0.010 C
HETATM   12  C20 UNL     1      44.107  12.458  80.659  1.00  0.00     0.001 C
HETATM   13  C21 UNL     1      43.299  11.697  79.629  1.00  0.00     0.016 C
HETATM   14  C22 UNL     1      42.055  12.508  79.337  1.00  0.00     0.075 C
HETATM   15  S2  UNL     1      42.752  14.210  79.369  1.00  0.00    -0.163 SA
ENDBRANCH   1   3
BRANCH   1  16
HETATM   16  N1  UNL     1      41.410  16.091  83.806  1.00  0.00    -0.380 N
ATOM     17  H1  UNL     1      40.813  16.717  83.267  1.00  0.00     0.160 HD
BRANCH  16  18
HETATM   18  C7  UNL     1      40.715  15.079  84.519  1.00  0.00     0.130 C
BRANCH  18  19
HETATM   19  C8  UNL     1      39.382  15.541  85.060  1.00  0.00    -0.020 C
HETATM   20  C9  UNL     1      39.474  16.603  86.109  1.00  0.00     0.016 C
HETATM   21  C10 UNL     1      38.052  17.183  86.023  1.00  0.00    -0.013 C
HETATM   22  C11 UNL     1      37.102  16.105  86.461  1.00  0.00     0.009 C
HETATM   23  C15 UNL     1      37.982  17.405  84.507  1.00  0.00     0.010 C
HETATM   24  C12 UNL     1      37.253  14.840  85.682  1.00  0.00    -0.013 C
HETATM   25  C13 UNL     1      37.160  15.148  84.180  1.00  0.00     0.010 C
HETATM   26  C16 UNL     1      38.707  14.340  85.731  1.00  0.00     0.016 C
HETATM   27  C14 UNL     1      38.419  16.013  84.026  1.00  0.00    -0.004 C
ENDBRANCH  18  19
ENDBRANCH  16  18
ENDBRANCH   1  16
TORSDOF 4
ENDMDL