MODEL 1
REMARK VINA RESULT: -7.858533467      0.000      0.000
REMARK  6 active torsions:
REMARK  status: ('A' for Active; 'I' for Inactive)
REMARK    1  A    between atoms: C10_10  and  C11_11
REMARK    2  A    between atoms: C11_11  and  C12_12
REMARK    3  A    between atoms: C16_16  and  O1_17
REMARK    4  A    between atoms: C24_26  and  N1_27
REMARK    5  A    between atoms: N1_27  and  N2_29
REMARK    6  A    between atoms: N2_29  and  N3_30
ROOT
HETATM    1  C1  UNL     1      43.371  15.370  80.532  1.00  0.00     0.018 C
HETATM    2  C2  UNL     1      43.334  14.349  81.641  1.00  0.00    -0.017 C
HETATM    3  C3  UNL     1      43.882  14.838  82.927  1.00  0.00     0.012 C
HETATM    4  C4  UNL     1      42.824  14.899  84.042  1.00  0.00     0.006 C
HETATM    5  C5  UNL     1      41.568  15.452  83.449  1.00  0.00    -0.002 C
HETATM    6  C6  UNL     1      40.991  14.360  82.572  1.00  0.00    -0.005 C
HETATM    7  C7  UNL     1      40.263  13.369  83.468  1.00  0.00     0.006 C
HETATM    8  C8  UNL     1      39.060  14.182  83.983  1.00  0.00     0.006 C
HETATM    9  C9  UNL     1      39.639  15.103  85.019  1.00  0.00     0.001 C
HETATM   10  C10 UNL     1      38.651  15.810  85.857  1.00  0.00     0.019 C
HETATM   11  C16 UNL     1      37.858  16.867  85.135  1.00  0.00     0.122 C
HETATM   12  C17 UNL     1      38.450  17.341  83.862  1.00  0.00     0.033 C
HETATM   13  C18 UNL     1      39.909  17.222  83.696  1.00  0.00     0.012 C
HETATM   14  C19 UNL     1      40.595  16.072  84.368  1.00  0.00    -0.036 C
HETATM   15  C20 UNL     1      41.407  16.690  85.523  1.00  0.00     0.016 C
HETATM   16  C21 UNL     1      41.992  13.668  81.745  1.00  0.00     0.000 C
HETATM   17  C22 UNL     1      42.283  12.249  82.128  1.00  0.00     0.008 C
HETATM   18  C23 UNL     1      43.779  12.057  82.064  1.00  0.00     0.029 C
HETATM   19  C24 UNL     1      44.203  13.180  81.154  1.00  0.00     0.123 C
ENDROOT
BRANCH  19  20
HETATM   20  N1  UNL     1      45.596  13.482  81.216  1.00  0.00    -0.247 N
ATOM     21  H1  UNL     1      46.063  13.975  80.453  1.00  0.00     0.197 HD
BRANCH  20  22
HETATM   22  N2  UNL     1      46.226  13.123  82.231  1.00  0.00    -0.248 NA
BRANCH  22  23
HETATM   23  N3  UNL     1      47.099  12.728  82.999  1.00  0.00    -0.261 N
ATOM     24  H32 UNL     1      47.714  13.523  82.825  1.00  0.00     0.193 HD
ATOM     25  H31 UNL     1      47.637  12.184  83.673  1.00  0.00     0.193 HD
ENDBRANCH  22  23
ENDBRANCH  20  22
ENDBRANCH  19  20
BRANCH  10  26
HETATM   26  C11 UNL     1      37.753  15.007  86.713  1.00  0.00     0.012 C
BRANCH  26  27
HETATM   27  C12 UNL     1      36.889  15.797  87.666  1.00  0.00    -0.014 C
HETATM   28  C13 UNL     1      35.469  15.868  87.075  1.00  0.00     0.005 C
HETATM   29  C14 UNL     1      34.934  15.732  88.486  1.00  0.00     0.001 C
HETATM   30  C15 UNL     1      36.290  15.089  88.826  1.00  0.00     0.005 C
ENDBRANCH  26  27
ENDBRANCH  10  26
BRANCH  11  31
HETATM   31  O1  UNL     1      37.629  17.981  85.978  1.00  0.00    -0.395 OA
ATOM     32  H1  UNL     1      37.046  18.604  85.560  1.00  0.00     0.210 HD
ENDBRANCH  11  31
TORSDOF 6
ENDMDL