MODEL 3
REMARK VINA RESULT: -2.832161081      4.969     11.044
REMARK  5 active torsions:
REMARK  status: ('A' for Active; 'I' for Inactive)
REMARK    1  A    between atoms: C7_9  and  C8_10
REMARK    2  A    between atoms: C11_13  and  C12_14
REMARK    3  A    between atoms: C12_14  and  N2_15
REMARK    4  A    between atoms: N2_15  and  N3_17
REMARK    5  A    between atoms: N3_17  and  N4_18
ROOT
HETATM    1  C1  UNL     1      41.435  16.264  85.239  1.00  0.00     0.016 C
HETATM    2  C2  UNL     1      40.259  16.016  84.725  1.00  0.00    -0.068 C
HETATM    3  C3  UNL     1      39.524  17.086  84.006  1.00  0.00     0.153 C
HETATM    4  N1  UNL     1      38.205  17.177  84.580  1.00  0.00    -0.389 N
ATOM      5  H1  UNL     1      37.593  17.953  84.328  1.00  0.00     0.159 HD
HETATM    6  C4  UNL     1      37.756  16.190  85.496  1.00  0.00     0.008 C
HETATM    7  C5  UNL     1      36.881  16.542  86.409  1.00  0.00    -0.056 C
HETATM    8  C6  UNL     1      36.341  17.901  86.536  1.00  0.00     0.041 C
HETATM    9  C7  UNL     1      36.154  18.287  87.998  1.00  0.00    -0.001 C
HETATM   10  C15 UNL     1      35.451  17.314  88.841  1.00  0.00     0.006 C
HETATM   11  C16 UNL     1      34.079  17.630  89.321  1.00  0.00     0.013 C
HETATM   12  C17 UNL     1      33.109  16.826  88.491  1.00  0.00     0.079 C
HETATM   13  C18 UNL     1      33.985  16.094  87.541  1.00  0.00     0.136 C
HETATM   14  O1  UNL     1      33.682  15.712  86.443  1.00  0.00    -0.297 OA
HETATM   15  C19 UNL     1      35.288  15.940  88.227  1.00  0.00     0.024 C
HETATM   16  C20 UNL     1      35.144  14.913  89.344  1.00  0.00     0.024 C
HETATM   17  C21 UNL     1      36.406  15.514  87.359  1.00  0.00     0.053 C
HETATM   18  C22 UNL     1      38.236  14.787  85.463  1.00  0.00     0.065 C
HETATM   19  C23 UNL     1      39.606  14.681  84.831  1.00  0.00     0.017 C
HETATM   20  C24 UNL     1      39.496  14.062  83.466  1.00  0.00     0.015 C
ENDROOT
BRANCH   9  21
HETATM   21  C8  UNL     1      35.810  19.733  88.144  1.00  0.00    -0.010 C
HETATM   22  C9  UNL     1      35.380  20.176  89.502  1.00  0.00     0.005 C
HETATM   23  C10 UNL     1      35.648  21.685  89.600  1.00  0.00     0.007 C
HETATM   24  C11 UNL     1      35.234  22.346  88.307  1.00  0.00     0.006 C
HETATM   25  C13 UNL     1      34.160  21.523  87.642  1.00  0.00     0.007 C
HETATM   26  C14 UNL     1      34.747  20.197  87.163  1.00  0.00     0.005 C
BRANCH  24  27
HETATM   27  C12 UNL     1      34.645  23.721  88.625  1.00  0.00     0.160 C
BRANCH  27  28
HETATM   28  N2  UNL     1      34.165  23.762  89.985  1.00  0.00    -0.252 N
ATOM     29  H2  UNL     1      34.749  23.436  90.756  1.00  0.00     0.196 HD
BRANCH  28  30
HETATM   30  N3  UNL     1      33.035  24.201  90.190  1.00  0.00    -0.249 NA
BRANCH  30  31
HETATM   31  N4  UNL     1      31.875  24.564  90.359  1.00  0.00    -0.261 N
ATOM     32  H42 UNL     1      32.153  25.068  89.517  1.00  0.00     0.193 HD
ATOM     33  H41 UNL     1      30.909  24.822  90.560  1.00  0.00     0.193 HD
ENDBRANCH  30  31
ENDBRANCH  28  30
ENDBRANCH  27  28
ENDBRANCH  24  27
ENDBRANCH   9  21
TORSDOF 5
ENDMDL