MODEL 4
REMARK VINA RESULT: -6.078892704      1.845      2.761
REMARK  6 active torsions:
REMARK  status: ('A' for Active; 'I' for Inactive)
REMARK    1  A    between atoms: C2_2  and  C3_3
REMARK    2  A    between atoms: C2_2  and  C10_13
REMARK       I    between atoms: C3_3  and  N1_5
REMARK    3  A    between atoms: N1_5  and  C4_7
REMARK    4  A    between atoms: C12_15  and  C13_16
REMARK    5  A    between atoms: C13_16  and  C14_17
REMARK    6  A    between atoms: C14_17  and  C15_18
ROOT
HETATM    1  C10 UNL     1      37.291  15.990  86.047  1.00  0.00    -0.003 A
HETATM    2  C11 UNL     1      38.236  15.221  85.428  1.00  0.00     0.036 A
HETATM    3  C12 UNL     1      39.017  15.824  84.506  1.00  0.00     0.025 A
HETATM    4  C25 UNL     1      38.787  17.157  84.275  1.00  0.00     0.070 A
HETATM    5  S1  UNL     1      37.507  17.521  85.338  1.00  0.00    -0.104 SA
ENDROOT
BRANCH   1   6
HETATM    6  C2  UNL     1      36.295  15.580  87.104  1.00  0.00     0.113 C
HETATM    7  C1  UNL     1      37.083  15.116  88.306  1.00  0.00     0.025 C
BRANCH   6   8
HETATM    8  C3  UNL     1      35.420  16.729  87.454  1.00  0.00     0.226 C
HETATM    9  O1  UNL     1      34.169  16.645  87.435  1.00  0.00    -0.273 OA
HETATM   10  N1  UNL     1      36.018  17.959  87.819  1.00  0.00    -0.356 N
ATOM     11  H1  UNL     1      37.035  18.028  87.833  1.00  0.00     0.162 HD
BRANCH  10  12
HETATM   12  C4  UNL     1      35.232  19.123  88.172  1.00  0.00     0.084 C
HETATM   13  C5  UNL     1      34.976  19.993  86.933  1.00  0.00     0.025 C
HETATM   14  C6  UNL     1      33.999  21.054  87.350  1.00  0.00     0.002 C
HETATM   15  C7  UNL     1      34.507  21.924  88.465  1.00  0.00     0.000 C
HETATM   16  C8  UNL     1      35.173  21.168  89.571  1.00  0.00     0.002 C
HETATM   17  C9  UNL     1      35.995  20.011  89.131  1.00  0.00     0.025 C
ENDBRANCH  10  12
ENDBRANCH   6   8
ENDBRANCH   1   6
BRANCH   3  18
HETATM   18  C13 UNL     1      40.069  15.089  83.775  1.00  0.00    -0.066 C
BRANCH  18  19
HETATM   19  C14 UNL     1      40.927  14.501  83.159  1.00  0.00    -0.091 C
BRANCH  19  20
HETATM   20  C15 UNL     1      41.958  13.810  82.399  1.00  0.00     0.025 C
HETATM   21  C16 UNL     1      42.285  12.453  83.004  1.00  0.00     0.027 C
HETATM   22  C17 UNL     1      43.289  11.775  82.133  1.00  0.00    -0.012 C
HETATM   23  C18 UNL     1      44.569  12.567  82.120  1.00  0.00     0.009 C
HETATM   24  C22 UNL     1      42.817  11.605  80.713  1.00  0.00     0.009 C
HETATM   25  C19 UNL     1      44.283  13.944  81.583  1.00  0.00    -0.012 C
HETATM   26  C20 UNL     1      43.808  13.777  80.150  1.00  0.00     0.009 C
HETATM   27  C24 UNL     1      43.196  14.643  82.406  1.00  0.00     0.027 C
HETATM   28  C21 UNL     1      42.538  12.980  80.138  1.00  0.00    -0.012 C
HETATM   29  C23 UNL     1      41.468  13.616  80.989  1.00  0.00     0.027 C
ENDBRANCH  19  20
ENDBRANCH  18  19
ENDBRANCH   3  18
TORSDOF 6
ENDMDL