MODEL 1
REMARK VINA RESULT: -7.383460052      0.000      0.000
REMARK  4 active torsions:
REMARK  status: ('A' for Active; 'I' for Inactive)
REMARK    1  A    between atoms: C2_2  and  C4_4
REMARK    2  A    between atoms: N1_10  and  N2_12
REMARK    3  A    between atoms: N2_12  and  C10_14
REMARK    4  A    between atoms: C15_19  and  N3_20
ROOT
HETATM    1  C4  UNL     1      38.702  15.416  84.829  1.00  0.00    -0.080 C
HETATM    2  C5  UNL     1      38.759  14.302  84.108  1.00  0.00    -0.023 C
HETATM    3  C6  UNL     1      39.879  13.779  83.280  1.00  0.00     0.033 C
HETATM    4  C7  UNL     1      41.199  13.716  84.047  1.00  0.00    -0.001 C
HETATM    5  C8  UNL     1      42.259  13.237  83.095  1.00  0.00     0.059 C
HETATM    6  C9  UNL     1      42.502  14.155  81.957  1.00  0.00     0.010 C
HETATM    7  N1  UNL     1      42.327  13.791  80.760  1.00  0.00    -0.312 N
ATOM      8  H1  UNL     1      42.533  14.519  80.077  1.00  0.00     0.186 HD
HETATM    9  C14 UNL     1      42.946  15.550  82.131  1.00  0.00     0.071 C
HETATM   10  C15 UNL     1      44.279  15.861  81.425  1.00  0.00     0.232 C
HETATM   11  C18 UNL     1      44.324  17.355  81.813  1.00  0.00     0.037 C
HETATM   12  C19 UNL     1      43.886  17.338  83.261  1.00  0.00     0.008 C
HETATM   13  C20 UNL     1      43.326  15.932  83.515  1.00  0.00     0.006 C
HETATM   14  C21 UNL     1      42.276  15.984  84.542  1.00  0.00    -0.031 A
HETATM   15  C22 UNL     1      42.723  16.895  85.709  1.00  0.00     0.016 C
HETATM   16  C23 UNL     1      40.890  16.115  84.179  1.00  0.00     0.004 A
HETATM   17  C24 UNL     1      39.733  16.495  85.039  1.00  0.00     0.040 C
HETATM   18  C25 UNL     1      41.492  14.851  84.882  1.00  0.00     0.004 A
ENDROOT
BRANCH   7  19
HETATM   19  N2  UNL     1      41.920  12.620  80.202  1.00  0.00    -0.328 N
ATOM     20  H2  UNL     1      40.920  12.552  80.013  1.00  0.00     0.181 HD
BRANCH  19  21
HETATM   21  C10 UNL     1      42.692  11.466  79.841  1.00  0.00     0.035 C
HETATM   22  C11 UNL     1      42.630  10.374  80.917  1.00  0.00     0.039 C
HETATM   23  C12 UNL     1      42.357  10.840  78.532  1.00  0.00     0.039 C
HETATM   24  C13 UNL     1      44.191  11.820  79.759  1.00  0.00     0.039 C
ENDBRANCH  19  21
ENDBRANCH   7  19
BRANCH  10  25
HETATM   25  N3  UNL     1      45.393  15.260  82.073  1.00  0.00     0.085 N
HETATM   26  C16 UNL     1      46.635  15.945  81.781  1.00  0.00     0.309 C
HETATM   27  C17 UNL     1      45.609  13.861  81.774  1.00  0.00     0.309 C
ENDBRANCH  10  25
BRANCH   1  28
HETATM   28  C2  UNL     1      37.402  15.599  85.524  1.00  0.00     0.006 C
HETATM   29  C1  UNL     1      37.117  17.045  85.750  1.00  0.00     0.014 C
HETATM   30  C3  UNL     1      37.449  14.812  86.835  1.00  0.00     0.014 C
ENDBRANCH   1  28
TORSDOF 4
ENDMDL