MODEL 2
REMARK VINA RESULT: -9.331945936      0.407      1.221
REMARK  4 active torsions:
REMARK  status: ('A' for Active; 'I' for Inactive)
REMARK       I    between atoms: C1_2  and  N1_3
REMARK    1  A    between atoms: C1_2  and  O2_23
REMARK    2  A    between atoms: C7_12  and  C8_13
REMARK    3  A    between atoms: C8_13  and  C9_14
REMARK    4  A    between atoms: O2_23  and  C18_24
ROOT
HETATM    1  O1  UNL     1      37.017  15.338  84.494  1.00  0.00    -0.238 OA
HETATM    2  C1  UNL     1      37.877  14.761  85.211  1.00  0.00     0.366 C
HETATM    3  N1  UNL     1      38.968  14.024  84.689  1.00  0.00    -0.292 N
ATOM      4  H1  UNL     1      38.843  13.049  84.416  1.00  0.00     0.172 HD
HETATM    5  C2  UNL     1      40.114  14.583  84.558  1.00  0.00     0.086 C
HETATM    6  N2  UNL     1      40.161  15.937  84.971  1.00  0.00    -0.379 N
ATOM      7  H2  UNL     1      39.268  16.428  85.025  1.00  0.00     0.160 HD
HETATM    8  C3  UNL     1      41.352  16.709  85.328  1.00  0.00     0.121 C
HETATM    9  C4  UNL     1      42.601  16.104  84.690  1.00  0.00     0.020 C
HETATM   10  C5  UNL     1      42.421  15.882  83.208  1.00  0.00     0.007 C
HETATM   11  C6  UNL     1      41.810  14.588  82.847  1.00  0.00     0.001 C
HETATM   12  C7  UNL     1      42.684  13.600  82.171  1.00  0.00    -0.009 C
HETATM   13  C15 UNL     1      42.019  12.247  82.442  1.00  0.00     0.006 C
HETATM   14  C16 UNL     1      40.804  12.539  83.307  1.00  0.00     0.013 C
HETATM   15  C17 UNL     1      41.252  13.804  84.010  1.00  0.00     0.058 C
ENDROOT
BRANCH   2  16
HETATM   16  O2  UNL     1      37.741  14.860  86.581  1.00  0.00    -0.298 OA
BRANCH  16  17
HETATM   17  C18 UNL     1      37.058  15.906  87.239  1.00  0.00     0.133 C
HETATM   18  C19 UNL     1      37.092  17.101  86.278  1.00  0.00     0.032 C
HETATM   19  C20 UNL     1      36.540  18.296  87.003  1.00  0.00     0.002 C
HETATM   20  C21 UNL     1      35.079  18.129  87.334  1.00  0.00     0.000 C
HETATM   21  C22 UNL     1      34.858  17.478  88.664  1.00  0.00     0.000 C
HETATM   22  C23 UNL     1      34.988  15.990  88.649  1.00  0.00     0.002 C
HETATM   23  C24 UNL     1      35.613  15.457  87.389  1.00  0.00     0.032 C
ENDBRANCH  16  17
ENDBRANCH   2  16
BRANCH  12  24
HETATM   24  C8  UNL     1      44.077  13.526  82.679  1.00  0.00     0.009 C
BRANCH  24  25
HETATM   25  C9  UNL     1      45.048  13.330  81.555  1.00  0.00    -0.014 C
HETATM   26  C10 UNL     1      44.705  14.135  80.330  1.00  0.00     0.005 C
HETATM   27  C11 UNL     1      44.611  15.613  80.694  1.00  0.00     0.000 C
HETATM   28  C12 UNL     1      45.946  16.053  81.207  1.00  0.00     0.000 C
HETATM   29  C13 UNL     1      46.473  15.234  82.338  1.00  0.00     0.000 C
HETATM   30  C14 UNL     1      46.456  13.761  81.970  1.00  0.00     0.005 C
ENDBRANCH  24  25
ENDBRANCH  12  24
TORSDOF 4
ENDMDL