MODEL 3
REMARK VINA RESULT: -7.945368110      1.579      3.086
REMARK  7 active torsions:
REMARK  status: ('A' for Active; 'I' for Inactive)
REMARK    1  A    between atoms: O1_2  and  C2_3
REMARK    2  A    between atoms: C2_3  and  N1_5
REMARK    3  A    between atoms: C3_7  and  N2_8
REMARK    4  A    between atoms: C3_7  and  C14_20
REMARK    5  A    between atoms: N2_8  and  C4_10
REMARK    6  A    between atoms: C7_13  and  C8_14
REMARK    7  A    between atoms: C8_14  and  C9_15
ROOT
HETATM    1  N1  UNL     1      40.782  13.301  82.930  1.00  0.00    -0.313 N
ATOM      2  H1  UNL     1      39.928  12.800  82.688  1.00  0.00     0.170 HD
HETATM    3  C3  UNL     1      40.700  14.151  83.892  1.00  0.00     0.110 C
ENDROOT
BRANCH   3   4
HETATM    4  N2  UNL     1      41.868  14.853  84.245  1.00  0.00    -0.371 N
ATOM      5  H2  UNL     1      42.159  14.761  85.218  1.00  0.00     0.161 HD
BRANCH   4   6
HETATM    6  C4  UNL     1      42.696  15.670  83.434  1.00  0.00     0.083 C
HETATM    7  C5  UNL     1      44.178  15.599  83.714  1.00  0.00     0.025 C
HETATM    8  C6  UNL     1      44.897  16.814  83.149  1.00  0.00     0.006 C
HETATM    9  C7  UNL     1      44.376  17.289  81.853  1.00  0.00    -0.014 C
HETATM   10  C12 UNL     1      42.876  17.595  81.947  1.00  0.00     0.006 C
HETATM   11  C13 UNL     1      42.326  17.103  83.282  1.00  0.00     0.025 C
BRANCH   9  12
HETATM   12  C8  UNL     1      44.706  16.538  80.627  1.00  0.00     0.008 C
BRANCH  12  13
HETATM   13  C9  UNL     1      45.441  15.244  80.766  1.00  0.00    -0.022 C
HETATM   14  C10 UNL     1      45.351  14.372  79.526  1.00  0.00     0.009 C
HETATM   15  C11 UNL     1      46.821  15.309  81.295  1.00  0.00     0.009 C
ENDBRANCH  12  13
ENDBRANCH   9  12
ENDBRANCH   4   6
ENDBRANCH   3   4
BRANCH   3  16
HETATM   16  C14 UNL     1      39.402  14.353  84.523  1.00  0.00    -0.011 A
HETATM   17  C15 UNL     1      38.580  15.401  84.682  1.00  0.00    -0.065 A
HETATM   18  C16 UNL     1      38.565  16.827  84.315  1.00  0.00     0.040 C
HETATM   19  C22 UNL     1      37.631  14.596  85.431  1.00  0.00     0.020 A
HETATM   20  C17 UNL     1      37.820  17.662  85.323  1.00  0.00    -0.010 C
HETATM   21  C18 UNL     1      38.325  17.434  86.732  1.00  0.00     0.009 C
HETATM   22  C20 UNL     1      36.509  17.078  85.726  1.00  0.00     0.009 C
HETATM   23  C19 UNL     1      37.140  16.517  86.957  1.00  0.00    -0.013 C
HETATM   24  C21 UNL     1      37.534  15.073  86.863  1.00  0.00     0.014 C
HETATM   25  C23 UNL     1      38.506  13.403  85.239  1.00  0.00     0.051 A
ENDBRANCH   3  16
BRANCH   1  26
HETATM   26  C2  UNL     1      41.928  12.992  82.179  1.00  0.00     0.215 C
HETATM   27  S1  UNL     1      41.893  13.238  80.566  1.00  0.00    -0.033 SA
BRANCH  26  28
HETATM   28  O1  UNL     1      43.099  12.489  82.723  1.00  0.00    -0.332 OA
HETATM   29  C1  UNL     1      44.135  12.108  81.822  1.00  0.00     0.212 C
ENDBRANCH  26  28
ENDBRANCH   1  26
TORSDOF 7
ENDMDL