MODEL 4
REMARK VINA RESULT: -7.318795919      3.256      9.535
REMARK  5 active torsions:
REMARK  status: ('A' for Active; 'I' for Inactive)
REMARK    1  A    between atoms: C2_2  and  C5_5
REMARK    2  A    between atoms: C5_5  and  C6_6
REMARK    3  A    between atoms: C9_9  and  N1_10
REMARK    4  A    between atoms: C17_19  and  C18_20
REMARK    5  A    between atoms: C18_20  and  O1_23
ROOT
HETATM    1  N1  UNL     1      38.511  14.812  83.438  1.00  0.00    -0.392 N
ATOM      2  H1  UNL     1      38.254  14.738  82.454  1.00  0.00     0.159 HD
HETATM    3  C10 UNL     1      39.620  14.331  83.788  1.00  0.00    -0.017 C
HETATM    4  C11 UNL     1      40.280  14.277  85.129  1.00  0.00     0.057 C
HETATM    5  C12 UNL     1      41.713  14.621  84.782  1.00  0.00    -0.000 C
HETATM    6  C13 UNL     1      41.765  16.122  84.573  1.00  0.00     0.006 C
HETATM    7  C14 UNL     1      41.986  16.337  83.098  1.00  0.00     0.006 C
HETATM    8  C15 UNL     1      42.600  15.060  82.570  1.00  0.00    -0.005 C
HETATM    9  C16 UNL     1      44.094  15.018  82.845  1.00  0.00     0.013 C
HETATM   10  C17 UNL     1      44.672  13.741  82.337  1.00  0.00     0.019 C
HETATM   11  C21 UNL     1      43.609  12.692  82.207  1.00  0.00     0.008 C
HETATM   12  C22 UNL     1      42.759  12.745  83.477  1.00  0.00     0.011 C
HETATM   13  C23 UNL     1      41.937  14.011  83.431  1.00  0.00    -0.028 C
HETATM   14  C24 UNL     1      40.577  13.665  82.863  1.00  0.00     0.062 C
ENDROOT
BRANCH   1  15
HETATM   15  C9  UNL     1      37.581  15.457  84.322  1.00  0.00     0.081 C
HETATM   16  C8  UNL     1      38.122  16.810  84.643  1.00  0.00     0.025 C
HETATM   17  C7  UNL     1      37.209  17.568  85.616  1.00  0.00     0.007 C
HETATM   18  C6  UNL     1      36.577  16.670  86.603  1.00  0.00    -0.014 C
HETATM   19  C26 UNL     1      37.519  15.461  86.762  1.00  0.00     0.007 C
HETATM   20  C25 UNL     1      37.449  14.574  85.542  1.00  0.00     0.025 C
BRANCH  18  21
HETATM   21  C5  UNL     1      36.300  17.163  87.959  1.00  0.00     0.013 C
BRANCH  21  22
HETATM   22  C2  UNL     1      35.036  17.867  88.241  1.00  0.00    -0.051 C
HETATM   23  C1  UNL     1      33.908  17.017  87.605  1.00  0.00     0.014 C
HETATM   24  C3  UNL     1      34.922  19.233  87.659  1.00  0.00     0.014 C
HETATM   25  C4  UNL     1      34.714  17.833  89.725  1.00  0.00     0.014 C
ENDBRANCH  21  22
ENDBRANCH  18  21
ENDBRANCH   1  15
BRANCH  10  26
HETATM   26  C18 UNL     1      45.454  13.885  81.059  1.00  0.00     0.054 C
HETATM   27  C19 UNL     1      45.830  15.331  80.818  1.00  0.00     0.045 C
HETATM   28  C20 UNL     1      44.758  13.277  79.870  1.00  0.00     0.045 C
BRANCH  26  29
HETATM   29  O1  UNL     1      46.662  13.188  81.234  1.00  0.00    -0.390 OA
ATOM     30  H1  UNL     1      47.115  13.203  80.400  1.00  0.00     0.210 HD
ENDBRANCH  26  29
ENDBRANCH  10  26
TORSDOF 5
ENDMDL