MODEL 1
REMARK VINA RESULT: -8.770788342      0.000      0.000
REMARK  4 active torsions:
REMARK  status: ('A' for Active; 'I' for Inactive)
REMARK    1  A    between atoms: C2_2  and  C3_3
REMARK    2  A    between atoms: C10_10  and  N1_11
REMARK    3  A    between atoms: N1_11  and  C11_14
REMARK    4  A    between atoms: N2_17  and  C14_18
ROOT
HETATM    1  C3  UNL     1      42.877  13.207  80.384  1.00  0.00    -0.044 C
HETATM    2  C4  UNL     1      41.635  13.087  79.475  1.00  0.00     0.015 C
HETATM    3  C5  UNL     1      42.986  11.952  81.163  1.00  0.00     0.009 C
HETATM    4  C6  UNL     1      41.962  11.965  82.273  1.00  0.00     0.002 C
HETATM    5  C7  UNL     1      42.398  13.096  83.212  1.00  0.00     0.010 C
HETATM    6  C8  UNL     1      42.292  14.412  82.539  1.00  0.00    -0.030 C
HETATM    7  C9  UNL     1      40.819  14.858  82.657  1.00  0.00     0.043 C
HETATM    8  C10 UNL     1      40.666  15.183  84.096  1.00  0.00     0.188 C
HETATM    9  C20 UNL     1      42.086  15.412  84.619  1.00  0.00     0.043 C
HETATM   10  C21 UNL     1      42.938  15.502  83.365  1.00  0.00    -0.031 C
HETATM   11  C22 UNL     1      44.378  15.364  83.639  1.00  0.00     0.010 C
HETATM   12  C23 UNL     1      45.124  16.470  82.944  1.00  0.00     0.001 C
HETATM   13  C24 UNL     1      44.111  17.370  82.326  1.00  0.00     0.001 C
HETATM   14  C25 UNL     1      42.753  16.847  82.738  1.00  0.00     0.010 C
HETATM   15  C26 UNL     1      42.821  14.483  81.164  1.00  0.00     0.019 C
ENDROOT
BRANCH   8  16
HETATM   16  N1  UNL     1      39.950  16.381  84.430  1.00  0.00    -0.067 N
ATOM     17  H12 UNL     1      40.582  17.127  84.721  1.00  0.00     0.278 HD
ATOM     18  H11 UNL     1      39.554  16.826  83.601  1.00  0.00     0.278 HD
BRANCH  16  19
HETATM   19  C11 UNL     1      38.941  16.126  85.426  1.00  0.00     0.189 C
HETATM   20  C12 UNL     1      37.810  15.230  85.001  1.00  0.00     0.063 C
HETATM   21  C13 UNL     1      36.907  15.088  86.224  1.00  0.00     0.275 C
HETATM   22  N2  UNL     1      36.278  16.330  86.485  1.00  0.00     0.097 N
HETATM   23  C18 UNL     1      37.092  17.508  86.412  1.00  0.00     0.275 C
HETATM   24  C19 UNL     1      38.545  17.311  86.230  1.00  0.00     0.063 C
BRANCH  22  25
HETATM   25  C14 UNL     1      35.432  16.318  87.661  1.00  0.00     0.149 C
HETATM   26  C15 UNL     1      36.030  15.404  88.692  1.00  0.00     0.048 C
HETATM   27  C16 UNL     1      35.374  17.696  88.246  1.00  0.00     0.048 C
HETATM   28  C17 UNL     1      34.021  15.864  87.367  1.00  0.00     0.048 C
ENDBRANCH  22  25
ENDBRANCH  16  19
ENDBRANCH   8  16
BRANCH   1  29
HETATM   29  C2  UNL     1      44.045  13.249  79.429  1.00  0.00     0.004 C
HETATM   30  C1  UNL     1      45.245  13.975  79.986  1.00  0.00     0.006 C
ENDBRANCH   1  29
TORSDOF 4
ENDMDL