MODEL 4
REMARK VINA RESULT: -1.281117832      2.772      7.765
REMARK  4 active torsions:
REMARK  status: ('A' for Active; 'I' for Inactive)
REMARK    1  A    between atoms: C2_2  and  N1_3
REMARK    2  A    between atoms: C3_4  and  C4_5
REMARK    3  A    between atoms: C4_5  and  C5_6
REMARK    4  A    between atoms: C13_15  and  N2_16
ROOT
HETATM    1  N1  UNL     1      41.870  14.081  83.588  1.00  0.00     0.098 N
HETATM    2  C3  UNL     1      42.608  15.189  83.132  1.00  0.00     0.230 C
HETATM    3  C7  UNL     1      42.443  16.475  83.861  1.00  0.00     0.036 C
HETATM    4  C8  UNL     1      41.102  16.699  84.521  1.00  0.00     0.009 C
HETATM    5  C9  UNL     1      40.829  15.437  85.331  1.00  0.00     0.023 C
HETATM    6  C10 UNL     1      39.893  15.516  86.422  1.00  0.00    -0.002 C
HETATM    7  C11 UNL     1      39.940  16.880  87.130  1.00  0.00     0.007 C
HETATM    8  C12 UNL     1      38.880  16.629  88.177  1.00  0.00     0.026 C
HETATM    9  C13 UNL     1      37.737  16.126  87.333  1.00  0.00     0.083 C
HETATM   10  C18 UNL     1      38.445  15.281  86.295  1.00  0.00     0.012 C
HETATM   11  C19 UNL     1      37.819  15.369  84.964  1.00  0.00     0.007 C
HETATM   12  C20 UNL     1      37.791  14.081  84.180  1.00  0.00     0.001 C
HETATM   13  C21 UNL     1      38.599  12.956  84.702  1.00  0.00     0.002 C
HETATM   14  C22 UNL     1      40.046  13.178  84.922  1.00  0.00     0.036 C
HETATM   15  C23 UNL     1      40.614  14.390  84.287  1.00  0.00     0.228 C
ENDROOT
BRANCH   9  16
HETATM   16  N2  UNL     1      36.775  17.016  86.959  1.00  0.00    -0.408 N
HETATM   17  C14 UNL     1      36.846  18.210  86.314  1.00  0.00     0.117 C
HETATM   18  C15 UNL     1      35.539  18.983  86.540  1.00  0.00     0.021 C
HETATM   19  C16 UNL     1      34.738  18.093  87.424  1.00  0.00     0.021 C
HETATM   20  C17 UNL     1      35.385  16.742  87.266  1.00  0.00     0.117 C
ENDBRANCH   9  16
BRANCH   1  21
HETATM   21  C2  UNL     1      41.384  13.334  82.414  1.00  0.00     0.269 C
HETATM   22  C1  UNL     1      42.230  12.185  82.019  1.00  0.00     0.037 C
ENDBRANCH   1  21
BRANCH   2  23
HETATM   23  C4  UNL     1      44.104  14.893  83.217  1.00  0.00     0.113 C
BRANCH  23  24
HETATM   24  C5  UNL     1      44.753  14.950  81.873  1.00  0.00     0.125 C
HETATM   25  C6  UNL     1      44.897  16.287  81.195  1.00  0.00     0.091 C
HETATM   26  O1  UNL     1      45.187  13.991  81.263  1.00  0.00    -0.298 OA
ENDBRANCH  23  24
ENDBRANCH   2  23
TORSDOF 4
ENDMDL