MODEL 3
REMARK VINA RESULT: -6.032137650      1.100      1.489
REMARK  4 active torsions:
REMARK  status: ('A' for Active; 'I' for Inactive)
REMARK    1  A    between atoms: O1_2  and  C2_3
REMARK    2  A    between atoms: C2_3  and  C3_4
REMARK    3  A    between atoms: N1_20  and  C18_21
REMARK    4  A    between atoms: C18_21  and  C19_22
ROOT
HETATM    1  C3  UNL     1      42.471  14.293  80.540  1.00  0.00     0.154 C
HETATM    2  O2  UNL     1      43.746  14.347  80.089  1.00  0.00    -0.373 OA
HETATM    3  C4  UNL     1      44.719  14.557  81.030  1.00  0.00     0.156 C
HETATM    4  C5  UNL     1      45.311  13.168  81.328  1.00  0.00     0.037 C
HETATM    5  C6  UNL     1      44.222  12.150  81.184  1.00  0.00     0.004 C
HETATM    6  C7  UNL     1      43.043  12.362  82.065  1.00  0.00     0.012 C
HETATM    7  C8  UNL     1      42.346  13.670  81.934  1.00  0.00     0.051 C
HETATM    8  C9  UNL     1      43.051  14.654  82.816  1.00  0.00    -0.034 A
HETATM    9  C10 UNL     1      42.548  15.087  83.999  1.00  0.00    -0.016 A
HETATM   10  C11 UNL     1      43.269  16.005  84.728  1.00  0.00    -0.047 A
HETATM   11  C12 UNL     1      44.471  16.446  84.225  1.00  0.00     0.015 A
HETATM   12  C13 UNL     1      45.003  16.020  83.026  1.00  0.00    -0.052 A
HETATM   13  C14 UNL     1      46.308  16.532  82.534  1.00  0.00     0.049 C
HETATM   14  C15 UNL     1      44.259  15.099  82.317  1.00  0.00    -0.016 A
HETATM   15  C16 UNL     1      42.709  16.467  86.014  1.00  0.00     0.069 C
HETATM   16  C17 UNL     1      41.216  16.533  86.024  1.00  0.00     0.277 C
HETATM   17  N1  UNL     1      40.568  15.835  84.985  1.00  0.00     0.093 N
HETATM   18  C23 UNL     1      41.283  14.628  84.553  1.00  0.00     0.312 C
ENDROOT
BRANCH  17  19
HETATM   19  C18 UNL     1      39.203  15.503  85.127  1.00  0.00     0.277 C
BRANCH  19  20
HETATM   20  C19 UNL     1      38.474  16.006  86.314  1.00  0.00     0.014 C
HETATM   21  C20 UNL     1      37.208  15.308  86.737  1.00  0.00     0.006 C
HETATM   22  C21 UNL     1      36.570  16.677  86.952  1.00  0.00     0.001 C
HETATM   23  C22 UNL     1      37.574  17.191  85.920  1.00  0.00     0.006 C
ENDBRANCH  19  20
ENDBRANCH  17  19
BRANCH   1  24
HETATM   24  C2  UNL     1      41.507  13.610  79.632  1.00  0.00     0.199 C
BRANCH  24  25
HETATM   25  O1  UNL     1      40.721  14.532  78.919  1.00  0.00    -0.393 OA
HETATM   26  C1  UNL     1      41.486  15.682  78.749  1.00  0.00     0.201 C
ENDBRANCH  24  25
ENDBRANCH   1  24
TORSDOF 4
ENDMDL