MODEL 5
REMARK VINA RESULT: -6.567088362      2.292      7.547
REMARK  4 active torsions:
REMARK  status: ('A' for Active; 'I' for Inactive)
REMARK    1  A    between atoms: O1_2  and  C2_3
REMARK    2  A    between atoms: N1_5  and  C4_6
REMARK    3  A    between atoms: C4_6  and  C5_7
REMARK    4  A    between atoms: C5_7  and  C6_8
ROOT
HETATM    1  C2  UNL     1      43.081  13.036  82.672  1.00  0.00     0.157 C
HETATM    2  C3  UNL     1      41.552  12.925  82.705  1.00  0.00     0.305 C
HETATM    3  N1  UNL     1      41.140  13.100  84.058  1.00  0.00     0.091 N
HETATM    4  C16 UNL     1      41.871  14.218  84.655  1.00  0.00     0.273 C
HETATM    5  C17 UNL     1      42.281  15.158  83.546  1.00  0.00     0.042 C
HETATM    6  C18 UNL     1      43.427  14.504  82.764  1.00  0.00    -0.008 C
HETATM    7  C19 UNL     1      43.448  15.148  81.406  1.00  0.00     0.042 C
HETATM    8  C20 UNL     1      44.792  15.109  80.754  1.00  0.00     0.272 C
HETATM    9  N2  UNL     1      45.879  15.556  81.562  1.00  0.00     0.084 N
HETATM   10  C21 UNL     1      45.916  16.975  81.729  1.00  0.00     0.309 C
HETATM   11  C22 UNL     1      45.937  14.800  82.771  1.00  0.00     0.272 C
HETATM   12  C23 UNL     1      44.674  14.770  83.559  1.00  0.00     0.042 C
ENDROOT
BRANCH   3  13
HETATM   13  C4  UNL     1      39.730  13.413  84.224  1.00  0.00     0.273 C
BRANCH  13  14
HETATM   14  C5  UNL     1      39.325  13.539  85.645  1.00  0.00     0.039 C
BRANCH  14  15
HETATM   15  C6  UNL     1      38.501  14.749  85.932  1.00  0.00    -0.038 C
HETATM   16  C7  UNL     1      39.413  15.944  86.051  1.00  0.00     0.014 C
HETATM   17  C8  UNL     1      38.639  17.215  86.355  1.00  0.00    -0.013 C
HETATM   18  C9  UNL     1      37.684  17.427  85.207  1.00  0.00     0.009 C
HETATM   19  C13 UNL     1      37.950  17.064  87.679  1.00  0.00     0.009 C
HETATM   20  C10 UNL     1      36.719  16.274  85.195  1.00  0.00    -0.013 C
HETATM   21  C11 UNL     1      36.002  16.176  86.522  1.00  0.00     0.009 C
HETATM   22  C15 UNL     1      37.399  14.970  84.924  1.00  0.00     0.014 C
HETATM   23  C12 UNL     1      37.027  15.852  87.574  1.00  0.00    -0.013 C
HETATM   24  C14 UNL     1      37.802  14.603  87.284  1.00  0.00     0.014 C
ENDBRANCH  14  15
ENDBRANCH  13  14
ENDBRANCH   3  13
BRANCH   1  25
HETATM   25  O1  UNL     1      43.615  12.395  81.583  1.00  0.00    -0.388 OA
HETATM   26  C1  UNL     1      42.606  11.611  80.987  1.00  0.00     0.202 C
ENDBRANCH   1  25
TORSDOF 4
ENDMDL