MODEL 5
REMARK VINA RESULT: -4.460504376      2.009      3.979
REMARK  5 active torsions:
REMARK  status: ('A' for Active; 'I' for Inactive)
REMARK    1  A    between atoms: C2_2  and  C3_3
REMARK    2  A    between atoms: C3_3  and  O1_4
REMARK    3  A    between atoms: O1_4  and  C4_5
REMARK       I    between atoms: C4_5  and  N1_7
REMARK    4  A    between atoms: N1_7  and  C5_8
REMARK    5  A    between atoms: N1_7  and  C11_15
ROOT
HETATM    1  C4  UNL     1      41.731  16.312  85.572  1.00  0.00     0.363 C
HETATM    2  O2  UNL     1      41.218  17.372  86.009  1.00  0.00    -0.238 OA
HETATM    3  N1  UNL     1      40.986  15.175  85.151  1.00  0.00    -0.318 N
ENDROOT
BRANCH   3   4
HETATM    4  C5  UNL     1      39.555  15.254  85.230  1.00  0.00     0.093 C
HETATM    5  C6  UNL     1      39.050  16.677  85.411  1.00  0.00     0.055 C
HETATM    6  C7  UNL     1      37.517  16.610  85.300  1.00  0.00     0.274 C
HETATM    7  N2  UNL     1      36.957  15.703  86.254  1.00  0.00     0.084 N
HETATM    8  C8  UNL     1      35.902  16.300  87.054  1.00  0.00     0.309 C
HETATM    9  C9  UNL     1      37.937  15.133  87.134  1.00  0.00     0.274 C
HETATM   10  C10 UNL     1      39.018  14.412  86.360  1.00  0.00     0.055 C
ENDBRANCH   3   4
BRANCH   3  11
HETATM   11  C11 UNL     1      41.717  14.019  84.669  1.00  0.00     0.094 C
HETATM   12  C12 UNL     1      41.089  12.740  85.135  1.00  0.00     0.026 C
HETATM   13  C13 UNL     1      40.131  12.103  84.200  1.00  0.00     0.002 C
HETATM   14  C14 UNL     1      40.700  12.005  82.830  1.00  0.00     0.005 C
HETATM   15  C15 UNL     1      41.285  13.248  82.286  1.00  0.00    -0.004 C
HETATM   16  C16 UNL     1      42.268  13.001  81.221  1.00  0.00    -0.006 C
HETATM   17  C22 UNL     1      42.069  14.085  83.234  1.00  0.00     0.013 C
HETATM   18  C17 UNL     1      42.191  11.827  80.369  1.00  0.00     0.005 C
HETATM   19  C20 UNL     1      43.496  12.630  82.085  1.00  0.00    -0.010 C
HETATM   20  C18 UNL     1      43.670  11.557  80.041  1.00  0.00     0.001 C
HETATM   21  C19 UNL     1      44.469  12.475  80.987  1.00  0.00     0.005 C
HETATM   22  C21 UNL     1      43.556  13.793  82.964  1.00  0.00     0.012 C
ENDBRANCH   3  11
BRANCH   1  23
HETATM   23  O1  UNL     1      43.129  16.326  85.526  1.00  0.00    -0.304 OA
BRANCH  23  24
HETATM   24  C3  UNL     1      43.845  17.246  84.730  1.00  0.00     0.180 C
BRANCH  24  25
HETATM   25  C2  UNL     1      43.144  17.273  83.365  1.00  0.00     0.022 C
HETATM   26  C1  UNL     1      44.203  17.348  82.285  1.00  0.00     0.007 C
ENDBRANCH  24  25
ENDBRANCH  23  24
ENDBRANCH   1  23
TORSDOF 5
ENDMDL