MODEL 2
REMARK VINA RESULT: -5.531039185      1.550      3.592
REMARK  4 active torsions:
REMARK  status: ('A' for Active; 'I' for Inactive)
REMARK    1  A    between atoms: C2_3  and  C3_4
REMARK    2  A    between atoms: C3_4  and  C4_5
REMARK    3  A    between atoms: N1_10  and  C8_11
REMARK    4  A    between atoms: N2_18  and  C15_19
ROOT
HETATM    1  O1  UNL     1      40.805  16.721  84.391  1.00  0.00    -0.271 OA
HETATM    2  C1  UNL     1      40.985  15.480  84.336  1.00  0.00     0.254 C
HETATM    3  C2  UNL     1      42.179  14.936  83.645  1.00  0.00     0.319 C
HETATM    4  N1  UNL     1      42.065  13.515  83.409  1.00  0.00     0.108 N
HETATM    5  C13 UNL     1      41.336  12.823  84.409  1.00  0.00     0.294 C
HETATM    6  C14 UNL     1      39.905  13.334  84.405  1.00  0.00     0.156 C
HETATM    7  N2  UNL     1      39.999  14.674  84.959  1.00  0.00    -0.344 N
ENDROOT
BRANCH   7   8
HETATM    8  C15 UNL     1      39.145  15.072  86.026  1.00  0.00     0.087 C
HETATM    9  C16 UNL     1      37.866  14.384  86.180  1.00  0.00     0.025 C
HETATM   10  C17 UNL     1      36.631  15.235  86.320  1.00  0.00     0.002 C
HETATM   11  C18 UNL     1      36.583  15.969  87.636  1.00  0.00     0.000 C
HETATM   12  C19 UNL     1      37.070  17.375  87.355  1.00  0.00     0.000 C
HETATM   13  C20 UNL     1      38.589  17.257  87.170  1.00  0.00     0.002 C
HETATM   14  C21 UNL     1      38.945  16.569  85.905  1.00  0.00     0.025 C
ENDBRANCH   7   8
BRANCH   3  15
HETATM   15  C3  UNL     1      43.428  15.117  84.465  1.00  0.00     0.092 C
BRANCH  15  16
HETATM   16  C4  UNL     1      44.682  15.236  83.684  1.00  0.00    -0.015 A
HETATM   17  C5  UNL     1      45.781  14.416  83.635  1.00  0.00     0.015 A
HETATM   18  C6  UNL     1      46.785  14.780  82.827  1.00  0.00     0.008 A
HETATM   19  C7  UNL     1      46.645  15.934  82.114  1.00  0.00     0.050 A
HETATM   20  S1  UNL     1      45.103  16.483  82.594  1.00  0.00    -0.106 SA
ENDBRANCH  15  16
ENDBRANCH   3  15
BRANCH   4  21
HETATM   21  C8  UNL     1      41.684  13.141  82.114  1.00  0.00     0.224 C
HETATM   22  C9  UNL     1      41.947  14.182  81.051  1.00  0.00     0.036 C
HETATM   23  C10 UNL     1      41.865  13.390  79.768  1.00  0.00     0.002 C
HETATM   24  C11 UNL     1      42.021  11.950  80.126  1.00  0.00     0.002 C
HETATM   25  C12 UNL     1      42.462  11.964  81.593  1.00  0.00     0.036 C
ENDBRANCH   4  21
TORSDOF 4
ENDMDL