MODEL 4
REMARK VINA RESULT: -7.039482057      0.991      1.403
REMARK  4 active torsions:
REMARK  status: ('A' for Active; 'I' for Inactive)
REMARK    1  A    between atoms: C3_4  and  C4_5
REMARK    2  A    between atoms: C4_5  and  C5_6
REMARK    3  A    between atoms: N1_12  and  C10_13
REMARK    4  A    between atoms: N2_20  and  C17_21
ROOT
HETATM    1  C10 UNL     1      41.191  15.793  85.244  1.00  0.00     0.091 C
HETATM    2  C11 UNL     1      41.330  16.589  83.966  1.00  0.00     0.050 C
HETATM    3  C12 UNL     1      42.789  16.564  83.519  1.00  0.00     0.082 C
HETATM    4  C13 UNL     1      43.607  16.993  84.749  1.00  0.00     0.027 C
HETATM    5  C14 UNL     1      43.911  15.709  85.502  1.00  0.00     0.027 C
HETATM    6  C15 UNL     1      43.325  14.662  84.584  1.00  0.00     0.082 C
HETATM    7  C16 UNL     1      41.869  14.461  85.037  1.00  0.00     0.050 C
HETATM    8  N2  UNL     1      43.258  15.251  83.324  1.00  0.00    -0.399 N
ENDROOT
BRANCH   1   9
HETATM    9  N1  UNL     1      39.792  15.530  85.525  1.00  0.00    -0.347 N
HETATM   10  C1  UNL     1      39.126  14.317  85.255  1.00  0.00     0.220 C
HETATM   11  O1  UNL     1      39.623  13.143  85.155  1.00  0.00    -0.273 OA
HETATM   12  C2  UNL     1      37.673  14.663  85.099  1.00  0.00     0.109 C
HETATM   13  C3  UNL     1      37.539  15.845  85.996  1.00  0.00     0.018 C
HETATM   14  C9  UNL     1      38.881  16.479  86.134  1.00  0.00     0.131 C
BRANCH  13  15
HETATM   15  C4  UNL     1      36.859  15.545  87.301  1.00  0.00     0.071 C
BRANCH  15  16
HETATM   16  C5  UNL     1      35.909  16.610  87.706  1.00  0.00     0.053 A
HETATM   17  C6  UNL     1      34.622  16.410  88.160  1.00  0.00     0.034 A
HETATM   18  C7  UNL     1      34.102  17.655  88.419  1.00  0.00     0.027 A
HETATM   19  C8  UNL     1      35.095  18.562  88.110  1.00  0.00     0.142 A
HETATM   20  O2  UNL     1      36.154  17.894  87.689  1.00  0.00    -0.327 OA
ENDBRANCH  15  16
ENDBRANCH  13  15
ENDBRANCH   1   9
BRANCH   8  21
HETATM   21  C17 UNL     1      44.040  14.909  82.246  1.00  0.00     0.080 C
HETATM   22  C18 UNL     1      44.614  16.209  81.671  1.00  0.00     0.025 C
HETATM   23  C19 UNL     1      45.010  16.037  80.227  1.00  0.00     0.002 C
HETATM   24  C20 UNL     1      45.501  14.628  79.970  1.00  0.00     0.000 C
HETATM   25  C21 UNL     1      44.292  13.728  80.032  1.00  0.00     0.002 C
HETATM   26  C22 UNL     1      43.402  14.070  81.181  1.00  0.00     0.025 C
ENDBRANCH   8  21
TORSDOF 4
ENDMDL