MODEL 5
REMARK VINA RESULT: -8.720717571      1.819      9.353
REMARK  4 active torsions:
REMARK  status: ('A' for Active; 'I' for Inactive)
REMARK    1  A    between atoms: C4_4  and  N1_5
REMARK    2  A    between atoms: N2_8  and  C7_9
REMARK    3  A    between atoms: C7_9  and  C8_10
REMARK    4  A    between atoms: N3_13  and  C11_14
ROOT
HETATM    1  C8  UNL     1      41.610  14.895  85.003  1.00  0.00     0.006 C
HETATM    2  C9  UNL     1      42.921  15.395  84.451  1.00  0.00     0.026 C
HETATM    3  C10 UNL     1      43.300  14.917  83.105  1.00  0.00     0.117 C
HETATM    4  N3  UNL     1      43.027  13.545  82.895  1.00  0.00    -0.408 N
HETATM    5  C18 UNL     1      41.849  13.008  83.479  1.00  0.00     0.117 C
HETATM    6  C19 UNL     1      40.923  14.112  83.874  1.00  0.00     0.026 C
ENDROOT
BRANCH   1   7
HETATM    7  C7  UNL     1      40.737  16.005  85.487  1.00  0.00     0.126 C
BRANCH   7   8
HETATM    8  N2  UNL     1      39.344  15.821  85.350  1.00  0.00    -0.390 N
HETATM    9  C6  UNL     1      38.597  17.060  85.356  1.00  0.00     0.141 C
HETATM   10  C5  UNL     1      38.257  17.456  86.775  1.00  0.00     0.143 C
HETATM   11  N1  UNL     1      37.371  16.403  87.261  1.00  0.00    -0.375 N
HETATM   12  C21 UNL     1      37.960  15.078  87.278  1.00  0.00     0.167 C
HETATM   13  C20 UNL     1      38.716  14.756  86.014  1.00  0.00     0.078 C
BRANCH  11  14
HETATM   14  C4  UNL     1      36.045  16.661  87.657  1.00  0.00     0.030 A
HETATM   15  C3  UNL     1      35.515  17.939  87.805  1.00  0.00     0.029 A
HETATM   16  C2  UNL     1      34.230  18.148  88.202  1.00  0.00     0.002 A
HETATM   17  C1  UNL     1      33.384  17.080  88.481  1.00  0.00     0.000 A
HETATM   18  C23 UNL     1      33.894  15.798  88.342  1.00  0.00     0.002 A
HETATM   19  C22 UNL     1      35.200  15.602  87.937  1.00  0.00     0.029 A
ENDBRANCH  11  14
ENDBRANCH   7   8
ENDBRANCH   1   7
BRANCH   4  20
HETATM   20  C11 UNL     1      43.212  13.043  81.573  1.00  0.00     0.079 C
HETATM   21  C12 UNL     1      44.608  13.179  81.029  1.00  0.00     0.025 C
HETATM   22  C13 UNL     1      44.711  13.485  79.583  1.00  0.00     0.002 C
HETATM   23  C14 UNL     1      43.509  13.120  78.762  1.00  0.00     0.000 C
HETATM   24  C15 UNL     1      43.077  11.699  78.903  1.00  0.00     0.000 C
HETATM   25  C16 UNL     1      42.136  11.440  80.044  1.00  0.00     0.002 C
HETATM   26  C17 UNL     1      42.770  11.606  81.403  1.00  0.00     0.025 C
ENDBRANCH   4  20
TORSDOF 4
ENDMDL