MODEL 5
REMARK VINA RESULT: -6.127086797      1.552      7.453
REMARK  5 active torsions:
REMARK  status: ('A' for Active; 'I' for Inactive)
REMARK    1  A    between atoms: C17_18  and  C18_19
REMARK    2  A    between atoms: C18_19  and  C19_20
REMARK    3  A    between atoms: C19_20  and  O3_22
REMARK    4  A    between atoms: O3_22  and  C20_23
REMARK    5  A    between atoms: C20_23  and  C21_24
ROOT
HETATM    1  C1  UNL     1      41.075  13.081  85.437  1.00  0.00     0.016 C
HETATM    2  C2  UNL     1      40.445  14.160  84.576  1.00  0.00    -0.036 C
HETATM    3  C3  UNL     1      40.516  13.732  83.156  1.00  0.00     0.010 C
HETATM    4  C4  UNL     1      41.893  13.852  82.605  1.00  0.00     0.006 C
HETATM    5  C5  UNL     1      42.960  14.330  83.506  1.00  0.00    -0.003 C
HETATM    6  C6  UNL     1      42.589  15.376  84.502  1.00  0.00    -0.005 C
HETATM    7  C7  UNL     1      43.075  16.763  84.125  1.00  0.00     0.008 C
HETATM    8  C8  UNL     1      42.953  17.007  82.635  1.00  0.00     0.041 C
HETATM    9  C9  UNL     1      43.920  16.090  81.967  1.00  0.00     0.091 A
HETATM   10  O1  UNL     1      45.240  16.819  81.873  1.00  0.00    -0.369 OA
HETATM   11  C10 UNL     1      44.572  16.108  80.791  1.00  0.00     0.157 A
HETATM   12  C11 UNL     1      45.265  14.759  80.599  1.00  0.00     0.035 C
HETATM   13  C12 UNL     1      44.497  13.857  81.566  1.00  0.00     0.011 C
HETATM   14  C13 UNL     1      44.143  14.801  82.682  1.00  0.00     0.027 C
HETATM   15  C14 UNL     1      41.104  15.491  84.739  1.00  0.00    -0.002 C
HETATM   16  C15 UNL     1      40.731  15.874  86.132  1.00  0.00     0.006 C
HETATM   17  C16 UNL     1      39.470  15.077  86.460  1.00  0.00     0.006 C
HETATM   18  C17 UNL     1      39.085  14.421  85.119  1.00  0.00     0.003 C
ENDROOT
BRANCH  18  19
HETATM   19  C18 UNL     1      38.271  15.445  84.391  1.00  0.00     0.116 C
BRANCH  19  20
HETATM   20  C19 UNL     1      37.404  16.122  85.420  1.00  0.00     0.259 C
HETATM   21  O2  UNL     1      36.588  15.404  86.027  1.00  0.00    -0.265 OA
BRANCH  20  22
HETATM   22  O3  UNL     1      37.476  17.456  85.705  1.00  0.00    -0.321 OA
BRANCH  22  23
HETATM   23  C20 UNL     1      37.092  17.934  86.953  1.00  0.00     0.183 C
BRANCH  23  24
HETATM   24  C21 UNL     1      35.767  18.634  86.998  1.00  0.00     0.010 A
HETATM   25  C22 UNL     1      34.782  18.005  87.975  1.00  0.00     0.007 A
HETATM   26  C23 UNL     1      35.390  19.308  88.337  1.00  0.00     0.007 A
ENDBRANCH  23  24
ENDBRANCH  22  23
ENDBRANCH  20  22
ENDBRANCH  19  20
ENDBRANCH  18  19
TORSDOF 5
ENDMDL