MODEL 5
REMARK VINA RESULT: -7.076375874      1.764      2.894
REMARK  5 active torsions:
REMARK  status: ('A' for Active; 'I' for Inactive)
REMARK    1  A    between atoms: C3_3  and  C4_4
REMARK    2  A    between atoms: C4_4  and  O2_6
REMARK    3  A    between atoms: O2_6  and  C5_7
REMARK    4  A    between atoms: N1_16  and  C15_18
REMARK    5  A    between atoms: C15_18  and  C16_19
ROOT
HETATM    1  C1  UNL     1      38.923  12.918  84.962  1.00  0.00     0.013 C
HETATM    2  C2  UNL     1      39.645  14.065  84.284  1.00  0.00     0.031 C
HETATM    3  C3  UNL     1      39.150  15.336  84.965  1.00  0.00     0.092 C
HETATM    4  C10 UNL     1      40.408  15.843  85.723  1.00  0.00     0.022 C
HETATM    5  C11 UNL     1      41.356  15.549  84.692  1.00  0.00     0.024 C
HETATM    6  C12 UNL     1      42.810  15.470  84.856  1.00  0.00     0.035 C
HETATM    7  C13 UNL     1      43.109  14.790  83.519  1.00  0.00     0.238 C
HETATM    8  N1  UNL     1      41.924  13.964  83.192  1.00  0.00    -0.061 N
HETATM    9  C14 UNL     1      41.324  14.530  82.024  1.00  0.00     0.273 C
HETATM   10  C22 UNL     1      41.096  14.069  84.365  1.00  0.00     0.133 C
HETATM   11  C23 UNL     1      41.566  13.186  85.486  1.00  0.00     0.048 C
ENDROOT
BRANCH   3  12
HETATM   12  C4  UNL     1      37.986  15.217  85.803  1.00  0.00     0.263 C
HETATM   13  O1  UNL     1      36.852  14.952  85.271  1.00  0.00    -0.265 OA
BRANCH  12  14
HETATM   14  O2  UNL     1      37.934  15.362  87.178  1.00  0.00    -0.316 OA
BRANCH  14  15
HETATM   15  C5  UNL     1      37.160  16.326  87.846  1.00  0.00     0.132 C
HETATM   16  C6  UNL     1      35.760  15.796  88.015  1.00  0.00     0.032 C
HETATM   17  C7  UNL     1      34.982  17.054  88.354  1.00  0.00     0.002 C
HETATM   18  C8  UNL     1      35.757  18.199  87.740  1.00  0.00     0.002 C
HETATM   19  C9  UNL     1      36.937  17.574  87.025  1.00  0.00     0.032 C
ENDBRANCH  14  15
ENDBRANCH  12  14
ENDBRANCH   3  12
BRANCH   8  20
HETATM   20  C15 UNL     1      42.431  12.659  82.943  1.00  0.00     0.242 C
BRANCH  20  21
HETATM   21  C16 UNL     1      43.620  12.423  82.130  1.00  0.00     0.012 C
HETATM   22  C17 UNL     1      43.820  13.719  81.309  1.00  0.00     0.006 C
HETATM   23  C18 UNL     1      43.427  13.589  79.888  1.00  0.00     0.000 C
HETATM   24  C19 UNL     1      42.300  12.655  79.600  1.00  0.00     0.000 C
HETATM   25  C20 UNL     1      42.559  11.260  80.131  1.00  0.00     0.000 C
HETATM   26  C21 UNL     1      43.663  11.338  81.130  1.00  0.00     0.006 C
ENDBRANCH  20  21
ENDBRANCH   8  20
TORSDOF 5
ENDMDL