MODEL 5
REMARK VINA RESULT: -5.916435281      2.021      3.985
REMARK  4 active torsions:
REMARK  status: ('A' for Active; 'I' for Inactive)
REMARK    1  A    between atoms: C4_6  and  C5_7
REMARK    2  A    between atoms: C5_7  and  C6_8
REMARK    3  A    between atoms: N3_17  and  C14_18
REMARK    4  A    between atoms: C14_18  and  C15_19
ROOT
HETATM    1  C6  UNL     1      43.744  13.161  80.425  1.00  0.00     0.022 C
HETATM    2  C7  UNL     1      43.534  12.010  81.386  1.00  0.00     0.278 C
HETATM    3  N2  UNL     1      42.179  11.945  81.846  1.00  0.00     0.093 N
HETATM    4  C8  UNL     1      41.200  12.358  80.912  1.00  0.00     0.273 C
HETATM    5  C9  UNL     1      41.405  13.742  80.366  1.00  0.00     0.035 C
HETATM    6  C10 UNL     1      42.753  14.232  80.820  1.00  0.00    -0.006 C
HETATM    7  C11 UNL     1      42.843  14.690  82.207  1.00  0.00     0.013 C
HETATM    8  C12 UNL     1      42.123  13.964  83.263  1.00  0.00     0.048 C
HETATM    9  C13 UNL     1      40.722  14.530  83.553  1.00  0.00     0.279 C
HETATM   10  N3  UNL     1      40.265  14.120  84.869  1.00  0.00     0.089 N
HETATM   11  C21 UNL     1      40.769  12.818  85.176  1.00  0.00     0.274 C
HETATM   12  C22 UNL     1      40.896  11.949  83.948  1.00  0.00     0.066 C
HETATM   13  C23 UNL     1      42.101  12.476  83.156  1.00  0.00     0.230 C
ENDROOT
BRANCH   1  14
HETATM   14  C5  UNL     1      45.147  13.594  80.313  1.00  0.00     0.046 C
BRANCH  14  15
HETATM   15  C4  UNL     1      45.673  14.491  81.326  1.00  0.00    -0.042 A
HETATM   16  C3  UNL     1      45.888  15.848  81.126  1.00  0.00     0.094 A
HETATM   17  N1  UNL     1      46.379  16.677  82.052  1.00  0.00    -0.375 N
HETATM   18  C2  UNL     1      46.685  16.151  83.262  1.00  0.00     0.087 A
ATOM     19  H1  UNL     1      46.518  17.668  81.855  1.00  0.00     0.164 HD
HETATM   20  C1  UNL     1      46.503  14.822  83.541  1.00  0.00     0.018 A
HETATM   21  C24 UNL     1      45.997  13.992  82.571  1.00  0.00     0.010 A
ENDBRANCH  14  15
ENDBRANCH   1  14
BRANCH  10  22
HETATM   22  C14 UNL     1      38.845  14.248  84.893  1.00  0.00     0.277 C
BRANCH  22  23
HETATM   23  C15 UNL     1      38.290  15.108  85.972  1.00  0.00     0.014 C
HETATM   24  C16 UNL     1      36.808  15.338  85.639  1.00  0.00     0.006 C
HETATM   25  C17 UNL     1      36.119  15.797  86.907  1.00  0.00     0.000 C
HETATM   26  C18 UNL     1      37.007  16.852  87.536  1.00  0.00     0.000 C
HETATM   27  C19 UNL     1      37.875  17.479  86.486  1.00  0.00     0.000 C
HETATM   28  C20 UNL     1      38.927  16.469  86.029  1.00  0.00     0.006 C
ENDBRANCH  22  23
ENDBRANCH  10  22
TORSDOF 4
ENDMDL