MODEL 5
REMARK VINA RESULT: -8.943226514      1.305      1.888
REMARK  5 active torsions:
REMARK  status: ('A' for Active; 'I' for Inactive)
REMARK    1  A    between atoms: C2_2  and  C7_8
REMARK    2  A    between atoms: C10_11  and  C11_12
REMARK    3  A    between atoms: C11_12  and  O1_14
REMARK    4  A    between atoms: C11_12  and  C13_16
REMARK    5  A    between atoms: C14_17  and  O2_18
ROOT
HETATM    1  C11 UNL     1      40.319  14.147  84.651  1.00  0.00     0.065 C
HETATM    2  C12 UNL     1      39.180  13.514  83.998  1.00  0.00     0.047 C
ENDROOT
BRANCH   1   3
HETATM    3  C10 UNL     1      39.780  15.291  85.478  1.00  0.00     0.021 C
HETATM    4  C9  UNL     1      39.209  16.406  84.682  1.00  0.00     0.008 C
HETATM    5  C8  UNL     1      38.283  17.055  85.741  1.00  0.00     0.009 C
HETATM    6  C7  UNL     1      37.514  15.804  86.141  1.00  0.00     0.016 C
HETATM    7  C25 UNL     1      38.617  14.845  86.388  1.00  0.00     0.016 C
BRANCH   6   8
HETATM    8  C2  UNL     1      36.538  16.068  87.190  1.00  0.00    -0.067 C
HETATM    9  C1  UNL     1      36.350  14.895  88.163  1.00  0.00     0.045 C
HETATM   10  C3  UNL     1      35.794  17.084  87.432  1.00  0.00    -0.019 C
HETATM   11  C4  UNL     1      34.785  17.226  88.546  1.00  0.00     0.047 C
HETATM   12  S1  UNL     1      35.693  18.657  86.627  1.00  0.00    -0.134 SA
HETATM   13  C5  UNL     1      34.953  18.599  89.129  1.00  0.00     0.015 C
HETATM   14  C6  UNL     1      34.913  19.599  88.001  1.00  0.00     0.079 C
ENDBRANCH   6   8
ENDBRANCH   1   3
BRANCH   1  15
HETATM   15  O1  UNL     1      40.914  13.300  85.625  1.00  0.00    -0.389 OA
ATOM     16  H1  UNL     1      40.240  13.233  86.290  1.00  0.00     0.210 HD
ENDBRANCH   1  15
BRANCH   1  17
HETATM   17  C13 UNL     1      41.422  14.661  83.803  1.00  0.00     0.057 C
HETATM   18  C14 UNL     1      42.604  15.158  84.517  1.00  0.00     0.126 C
HETATM   19  C15 UNL     1      43.608  15.355  83.359  1.00  0.00     0.038 C
HETATM   20  C16 UNL     1      43.472  13.964  82.778  1.00  0.00     0.004 C
HETATM   21  C17 UNL     1      44.205  13.890  81.515  1.00  0.00    -0.043 C
HETATM   22  C23 UNL     1      41.980  13.700  82.773  1.00  0.00    -0.031 C
HETATM   23  C18 UNL     1      44.578  12.523  81.025  1.00  0.00     0.015 C
HETATM   24  C19 UNL     1      45.550  14.611  81.751  1.00  0.00     0.015 C
HETATM   25  C20 UNL     1      43.506  14.727  80.468  1.00  0.00     0.009 C
HETATM   26  C21 UNL     1      42.175  14.113  80.260  1.00  0.00     0.002 C
HETATM   27  C22 UNL     1      41.340  13.875  81.446  1.00  0.00     0.010 C
HETATM   28  C24 UNL     1      41.889  12.238  83.220  1.00  0.00     0.016 C
BRANCH  18  29
HETATM   29  O2  UNL     1      42.580  16.430  85.055  1.00  0.00    -0.395 OA
ATOM     30  H2  UNL     1      42.494  16.533  85.995  1.00  0.00     0.210 HD
ENDBRANCH  18  29
ENDBRANCH   1  17
TORSDOF 5
ENDMDL