MODEL 4
REMARK VINA RESULT: -9.652691193      0.818      1.995
REMARK  5 active torsions:
REMARK  status: ('A' for Active; 'I' for Inactive)
REMARK    1  A    between atoms: C5_6  and  C6_7
REMARK    2  A    between atoms: C9_10  and  C10_11
REMARK    3  A    between atoms: C10_11  and  O2_12
REMARK    4  A    between atoms: C10_11  and  C11_14
REMARK    5  A    between atoms: C25_28  and  O3_29
ROOT
HETATM    1  C6  UNL     1      38.200  15.461  86.148  1.00  0.00    -0.008 C
HETATM    2  C7  UNL     1      38.373  13.979  86.223  1.00  0.00     0.005 C
HETATM    3  C8  UNL     1      38.750  13.495  84.816  1.00  0.00     0.007 C
HETATM    4  C9  UNL     1      39.772  14.411  84.191  1.00  0.00     0.015 C
HETATM    5  C22 UNL     1      40.507  15.100  85.323  1.00  0.00     0.007 C
HETATM    6  C23 UNL     1      39.536  16.110  85.949  1.00  0.00     0.005 C
ENDROOT
BRANCH   4   7
HETATM    7  C10 UNL     1      40.743  13.592  83.377  1.00  0.00     0.126 C
BRANCH   7   8
HETATM    8  O2  UNL     1      41.580  12.853  84.212  1.00  0.00    -0.395 OA
ATOM      9  H2  UNL     1      41.115  12.106  84.572  1.00  0.00     0.210 HD
ENDBRANCH   7   8
BRANCH   7  10
HETATM   10  C11 UNL     1      41.484  14.384  82.357  1.00  0.00     0.015 C
HETATM   11  C12 UNL     1      42.259  15.537  82.898  1.00  0.00     0.007 C
HETATM   12  C13 UNL     1      43.424  15.177  83.755  1.00  0.00     0.000 C
HETATM   13  C14 UNL     1      44.672  15.976  83.356  1.00  0.00     0.000 C
HETATM   14  C15 UNL     1      45.799  15.040  82.978  1.00  0.00     0.000 C
HETATM   15  C16 UNL     1      46.409  15.353  81.652  1.00  0.00     0.000 C
HETATM   16  C17 UNL     1      45.474  15.127  80.497  1.00  0.00     0.000 C
HETATM   17  C18 UNL     1      45.135  13.688  80.301  1.00  0.00     0.000 C
HETATM   18  C19 UNL     1      43.864  13.449  79.549  1.00  0.00     0.000 C
HETATM   19  C20 UNL     1      42.659  14.049  80.190  1.00  0.00     0.000 C
HETATM   20  C21 UNL     1      42.359  13.466  81.555  1.00  0.00     0.007 C
ENDBRANCH   7  10
ENDBRANCH   4   7
BRANCH   1  21
HETATM   21  C5  UNL     1      37.537  16.037  87.385  1.00  0.00     0.016 C
HETATM   22  C4  UNL     1      36.354  15.241  87.825  1.00  0.00     0.174 C
HETATM   23  O1  UNL     1      35.593  15.982  88.722  1.00  0.00    -0.378 OA
HETATM   24  C2  UNL     1      34.943  17.037  88.131  1.00  0.00     0.079 C
HETATM   25  C1  UNL     1      33.700  16.496  87.412  1.00  0.00     0.048 C
HETATM   26  C3  UNL     1      34.392  17.910  89.267  1.00  0.00     0.048 C
HETATM   27  C25 UNL     1      35.791  17.834  87.195  1.00  0.00     0.152 C
HETATM   28  C24 UNL     1      37.249  17.509  87.248  1.00  0.00     0.042 C
BRANCH  27  29
HETATM   29  O3  UNL     1      35.660  19.195  87.556  1.00  0.00    -0.393 OA
ATOM     30  H3  UNL     1      35.045  19.242  88.279  1.00  0.00     0.210 HD
ENDBRANCH  27  29
ENDBRANCH   1  21
TORSDOF 5
ENDMDL