MODEL 2
REMARK VINA RESULT: -2.333628083      1.760      3.510
REMARK  5 active torsions:
REMARK  status: ('A' for Active; 'I' for Inactive)
REMARK    1  A    between atoms: C2_2  and  C3_3
REMARK    2  A    between atoms: C2_2  and  C4_6
REMARK    3  A    between atoms: C3_3  and  O1_4
REMARK    4  A    between atoms: C9_12  and  C10_13
REMARK    5  A    between atoms: C10_13  and  O2_14
ROOT
HETATM    1  C4  UNL     1      44.985  14.835  83.573  1.00  0.00    -0.027 C
HETATM    2  C5  UNL     1      45.494  16.118  83.021  1.00  0.00    -0.013 C
HETATM    3  C6  UNL     1      45.871  16.274  81.614  1.00  0.00     0.042 C
HETATM    4  C7  UNL     1      44.689  16.882  80.851  1.00  0.00     0.048 C
HETATM    5  C8  UNL     1      44.186  18.143  81.493  1.00  0.00     0.021 C
HETATM    6  S1  UNL     1      43.487  15.649  80.648  1.00  0.00    -0.143 SA
HETATM    7  C9  UNL     1      43.325  14.254  81.703  1.00  0.00     0.072 C
HETATM    8  C11 UNL     1      41.854  13.911  81.446  1.00  0.00    -0.003 C
HETATM    9  C12 UNL     1      41.021  13.692  82.331  1.00  0.00    -0.023 C
HETATM   10  C13 UNL     1      41.316  13.730  83.763  1.00  0.00     0.025 C
HETATM   11  C14 UNL     1      40.053  14.057  84.489  1.00  0.00     0.002 C
HETATM   12  C15 UNL     1      39.612  13.032  85.516  1.00  0.00     0.006 C
HETATM   13  C16 UNL     1      38.074  13.135  85.547  1.00  0.00     0.000 C
HETATM   14  C17 UNL     1      37.780  14.532  86.036  1.00  0.00     0.001 C
HETATM   15  C18 UNL     1      38.981  15.422  86.173  1.00  0.00     0.009 C
HETATM   16  C19 UNL     1      39.805  15.459  84.870  1.00  0.00    -0.040 C
HETATM   17  C20 UNL     1      38.853  16.169  83.889  1.00  0.00     0.015 C
HETATM   18  C21 UNL     1      40.969  16.346  85.015  1.00  0.00     0.010 C
HETATM   19  C22 UNL     1      42.167  16.042  84.183  1.00  0.00     0.015 C
HETATM   20  C23 UNL     1      42.521  14.584  84.095  1.00  0.00    -0.011 C
HETATM   21  C24 UNL     1      42.802  14.154  85.528  1.00  0.00     0.021 C
HETATM   22  C25 UNL     1      43.669  14.296  83.133  1.00  0.00    -0.036 C
ENDROOT
BRANCH   1  23
HETATM   23  C2  UNL     1      46.107  13.924  83.832  1.00  0.00    -0.034 C
HETATM   24  C1  UNL     1      46.907  14.056  84.879  1.00  0.00     0.022 C
BRANCH  23  25
HETATM   25  C3  UNL     1      46.551  12.774  82.992  1.00  0.00     0.202 C
BRANCH  25  26
HETATM   26  O1  UNL     1      47.173  13.252  81.858  1.00  0.00    -0.396 OA
ATOM     27  H1  UNL     1      48.028  13.597  82.088  1.00  0.00     0.209 HD
ENDBRANCH  25  26
ENDBRANCH  23  25
ENDBRANCH   1  23
BRANCH   7  28
HETATM   28  C10 UNL     1      43.909  13.002  80.976  1.00  0.00     0.193 C
BRANCH  28  29
HETATM   29  O2  UNL     1      44.880  13.199  80.090  1.00  0.00    -0.399 OA
ATOM     30  H2  UNL     1      45.249  14.072  80.026  1.00  0.00     0.209 HD
ENDBRANCH  28  29
ENDBRANCH   7  28
TORSDOF 5
ENDMDL