MODEL 4
REMARK VINA RESULT: -5.016748055      2.271      8.620
REMARK  5 active torsions:
REMARK  status: ('A' for Active; 'I' for Inactive)
REMARK    1  A    between atoms: C9_9  and  C10_10
REMARK    2  A    between atoms: C10_10  and  O1_11
REMARK    3  A    between atoms: C15_17  and  C16_18
REMARK    4  A    between atoms: C17_19  and  C18_20
REMARK    5  A    between atoms: C26_28  and  O2_29
ROOT
HETATM    1  C1  UNL     1      38.674  12.884  84.029  1.00  0.00     0.019 C
HETATM    2  C2  UNL     1      38.720  13.587  85.112  1.00  0.00    -0.060 C
HETATM    3  C3  UNL     1      37.996  12.935  86.309  1.00  0.00     0.039 C
HETATM    4  C4  UNL     1      36.934  13.894  86.811  1.00  0.00     0.011 C
HETATM    5  C5  UNL     1      37.448  15.288  86.949  1.00  0.00     0.007 C
HETATM    6  C6  UNL     1      36.537  16.203  87.661  1.00  0.00    -0.037 C
HETATM    7  C7  UNL     1      35.063  15.885  87.446  1.00  0.00     0.015 C
HETATM    8  C8  UNL     1      36.728  15.908  89.172  1.00  0.00     0.015 C
HETATM    9  C9  UNL     1      36.863  17.657  87.500  1.00  0.00     0.017 C
HETATM   10  C11 UNL     1      38.274  17.869  86.968  1.00  0.00     0.009 C
HETATM   11  C12 UNL     1      38.354  17.229  85.610  1.00  0.00     0.015 C
HETATM   12  C13 UNL     1      38.051  15.783  85.652  1.00  0.00    -0.012 C
HETATM   13  C14 UNL     1      37.173  15.479  84.444  1.00  0.00     0.021 C
HETATM   14  C15 UNL     1      39.288  14.872  85.452  1.00  0.00    -0.044 C
ENDROOT
BRANCH  14  15
HETATM   15  C16 UNL     1      40.405  15.465  84.797  1.00  0.00     0.007 C
HETATM   16  C17 UNL     1      41.387  15.067  84.045  1.00  0.00     0.005 C
BRANCH  16  17
HETATM   17  C18 UNL     1      42.413  16.012  83.522  1.00  0.00     0.148 C
HETATM   18  C19 UNL     1      43.349  16.411  84.603  1.00  0.00     0.036 C
HETATM   19  C20 UNL     1      44.749  16.670  84.261  1.00  0.00     0.004 C
HETATM   20  C21 UNL     1      45.341  15.875  83.150  1.00  0.00     0.014 C
HETATM   21  C22 UNL     1      45.077  16.384  81.784  1.00  0.00     0.013 C
HETATM   22  C23 UNL     1      45.902  15.656  80.746  1.00  0.00     0.021 C
HETATM   23  C24 UNL     1      45.037  17.848  81.560  1.00  0.00     0.020 C
HETATM   24  C26 UNL     1      43.571  16.343  81.519  1.00  0.00     0.169 C
HETATM   25  C25 UNL     1      43.513  17.793  81.648  1.00  0.00     0.070 C
HETATM   26  O3  UNL     1      43.011  15.492  82.392  1.00  0.00    -0.345 OA
BRANCH  24  27
HETATM   27  O2  UNL     1      43.380  15.947  80.173  1.00  0.00    -0.365 OA
ATOM     28  H2  UNL     1      42.835  16.602  79.753  1.00  0.00     0.213 HD
ENDBRANCH  24  27
ENDBRANCH  16  17
ENDBRANCH  14  15
BRANCH   9  29
HETATM   29  C10 UNL     1      35.852  18.458  86.734  1.00  0.00     0.169 C
BRANCH  29  30
HETATM   30  O1  UNL     1      35.364  19.565  87.375  1.00  0.00    -0.400 OA
ATOM     31  H1  UNL     1      34.753  19.394  88.083  1.00  0.00     0.209 HD
ENDBRANCH  29  30
ENDBRANCH   9  29
TORSDOF 5
ENDMDL