MODEL 2
REMARK VINA RESULT: -6.287852604      2.461      4.882
REMARK  4 active torsions:
REMARK  status: ('A' for Active; 'I' for Inactive)
REMARK    1  A    between atoms: N1_1  and  C1_4
REMARK    2  A    between atoms: C4_9  and  C5_10
REMARK    3  A    between atoms: N3_21  and  C16_22
REMARK    4  A    between atoms: N4_25  and  C19_26
ROOT
HETATM    1  C1  UNL     1      38.179  13.984  86.009  1.00  0.00     0.679 A
HETATM    2  N2  UNL     1      38.998  13.182  85.297  1.00  0.00    -0.190 N
ATOM      3  H2  UNL     1      38.916  12.170  85.206  1.00  0.00     0.184 HD
HETATM    4  C2  UNL     1      39.930  13.946  84.736  1.00  0.00     0.077 A
HETATM    5  C3  UNL     1      41.003  13.625  83.910  1.00  0.00     0.040 A
HETATM    6  C4  UNL     1      41.830  14.612  83.456  1.00  0.00    -0.052 A
HETATM    7  C13 UNL     1      41.569  15.916  83.839  1.00  0.00     0.010 A
HETATM    8  C14 UNL     1      40.503  16.225  84.659  1.00  0.00     0.033 A
HETATM    9  C15 UNL     1      39.658  15.239  85.125  1.00  0.00     0.079 A
HETATM   10  N3  UNL     1      38.550  15.271  85.931  1.00  0.00    -0.176 N
ENDROOT
BRANCH  10  11
HETATM   11  C16 UNL     1      38.024  16.459  86.487  1.00  0.00     0.111 C
HETATM   12  C17 UNL     1      37.279  16.383  87.759  1.00  0.00     0.045 C
HETATM   13  C18 UNL     1      35.905  17.029  87.732  1.00  0.00     0.119 C
HETATM   14  N4  UNL     1      35.974  18.350  87.237  1.00  0.00    -0.408 N
HETATM   15  C25 UNL     1      36.908  18.572  86.198  1.00  0.00     0.119 C
HETATM   16  C26 UNL     1      37.126  17.222  85.492  1.00  0.00     0.045 C
BRANCH  14  17
HETATM   17  C19 UNL     1      35.677  19.416  88.111  1.00  0.00     0.079 C
HETATM   18  C20 UNL     1      34.594  20.334  87.596  1.00  0.00     0.025 C
HETATM   19  C21 UNL     1      34.683  21.642  88.371  1.00  0.00     0.002 C
HETATM   20  C22 UNL     1      35.449  21.473  89.663  1.00  0.00     0.000 C
HETATM   21  C23 UNL     1      35.088  20.195  90.365  1.00  0.00     0.002 C
HETATM   22  C24 UNL     1      35.277  18.975  89.507  1.00  0.00     0.025 C
ENDBRANCH  14  17
ENDBRANCH  10  11
BRANCH   1  23
HETATM   23  N1  UNL     1      37.189  13.548  86.657  1.00  0.00    -0.234 N
ATOM     24  H12 UNL     1      36.673  12.695  86.442  1.00  0.00     0.174 HD
ATOM     25  H11 UNL     1      36.812  14.025  87.475  1.00  0.00     0.174 HD
ENDBRANCH   1  23
BRANCH   6  26
HETATM   26  C5  UNL     1      42.991  14.277  82.557  1.00  0.00     0.018 C
HETATM   27  C6  UNL     1      43.769  15.568  82.370  1.00  0.00     0.009 C
HETATM   28  C7  UNL     1      45.139  15.371  81.815  1.00  0.00     0.001 C
HETATM   29  C8  UNL     1      45.178  15.324  80.304  1.00  0.00     0.000 C
HETATM   30  C9  UNL     1      45.493  13.905  79.811  1.00  0.00     0.000 C
HETATM   31  C10 UNL     1      44.212  13.175  79.496  1.00  0.00     0.000 C
HETATM   32  C11 UNL     1      43.518  12.658  80.720  1.00  0.00     0.001 C
HETATM   33  C12 UNL     1      42.525  13.675  81.273  1.00  0.00     0.009 C
ENDBRANCH   6  26
TORSDOF 4
ENDMDL