MODEL 4
REMARK VINA RESULT: -5.251188769      1.442      2.120
REMARK  5 active torsions:
REMARK  status: ('A' for Active; 'I' for Inactive)
REMARK    1  A    between atoms: C2_2  and  C3_3
REMARK    2  A    between atoms: C3_3  and  C4_4
REMARK    3  A    between atoms: C5_6  and  C7_8
REMARK    4  A    between atoms: C16_20  and  C17_21
REMARK    5  A    between atoms: C26_30  and  O2_31
ROOT
HETATM    1  C7  UNL     1      42.413  13.801  83.522  1.00  0.00     0.026 C
HETATM    2  C8  UNL     1      42.747  12.377  83.087  1.00  0.00     0.009 C
HETATM    3  C9  UNL     1      43.299  12.453  81.726  1.00  0.00     0.017 C
HETATM    4  C10 UNL     1      43.348  13.933  81.340  1.00  0.00     0.016 A
HETATM    5  C11 UNL     1      42.695  14.125  79.959  1.00  0.00    -0.000 A
HETATM    6  N1  UNL     1      41.703  14.151  79.183  1.00  0.00    -0.404 N
ATOM      7  H11 UNL     1      41.271  14.278  78.268  1.00  0.00     0.155 HD
ATOM      8  H12 UNL     1      40.710  14.065  78.965  1.00  0.00     0.155 HD
HETATM    9  C12 UNL     1      44.176  14.254  80.284  1.00  0.00     0.008 A
HETATM   10  C13 UNL     1      45.053  13.174  79.630  1.00  0.00     0.023 C
HETATM   11  C14 UNL     1      44.645  15.627  79.954  1.00  0.00     0.017 C
HETATM   12  C15 UNL     1      43.774  16.589  80.633  1.00  0.00     0.007 C
HETATM   13  C16 UNL     1      44.149  16.900  82.074  1.00  0.00    -0.003 C
HETATM   14  C20 UNL     1      43.885  15.772  83.008  1.00  0.00    -0.039 C
HETATM   15  C21 UNL     1      43.248  16.423  84.237  1.00  0.00     0.015 C
HETATM   16  C22 UNL     1      45.103  14.999  83.431  1.00  0.00     0.015 C
HETATM   17  C23 UNL     1      42.908  14.743  82.456  1.00  0.00     0.016 C
ENDROOT
BRANCH   1  18
HETATM   18  C5  UNL     1      40.942  13.794  83.765  1.00  0.00     0.062 C
HETATM   19  O1  UNL     1      40.494  14.657  84.732  1.00  0.00    -0.372 OA
HETATM   20  C4  UNL     1      39.219  14.413  85.135  1.00  0.00     0.151 C
HETATM   21  C26 UNL     1      39.067  13.156  85.971  1.00  0.00     0.147 C
HETATM   22  C25 UNL     1      40.380  12.387  85.772  1.00  0.00     0.037 C
HETATM   23  C24 UNL     1      40.610  12.379  84.263  1.00  0.00     0.040 C
HETATM   24  C6  UNL     1      40.093  14.011  82.537  1.00  0.00     0.046 C
BRANCH  20  25
HETATM   25  C3  UNL     1      38.616  15.569  85.897  1.00  0.00     0.034 C
BRANCH  25  26
HETATM   26  C2  UNL     1      38.287  16.743  85.016  1.00  0.00    -0.002 C
HETATM   27  C1  UNL     1      37.435  17.693  85.839  1.00  0.00     0.005 C
ENDBRANCH  25  26
ENDBRANCH  20  25
BRANCH  21  28
HETATM   28  O2  UNL     1      38.038  12.334  85.489  1.00  0.00    -0.393 OA
ATOM     29  H2  UNL     1      37.186  12.624  85.795  1.00  0.00     0.210 HD
ENDBRANCH  21  28
ENDBRANCH   1  18
BRANCH  13  30
HETATM   30  C17 UNL     1      45.446  17.561  82.074  1.00  0.00    -0.018 C
HETATM   31  C18 UNL     1      45.695  18.801  81.311  1.00  0.00     0.010 C
HETATM   32  C19 UNL     1      46.530  16.573  81.687  1.00  0.00     0.010 C
ENDBRANCH  13  30
TORSDOF 5
ENDMDL