MODEL 4
REMARK VINA RESULT: -2.776135353      0.936      1.385
REMARK  4 active torsions:
REMARK  status: ('A' for Active; 'I' for Inactive)
REMARK    1  A    between atoms: C11_13  and  O1_14
REMARK    2  A    between atoms: C12_16  and  C13_17
REMARK    3  A    between atoms: N2_24  and  C19_25
REMARK    4  A    between atoms: C19_25  and  C20_26
ROOT
HETATM    1  C1  UNL     1      39.354  17.374  87.050  1.00  0.00     0.045 C
HETATM    2  C2  UNL     1      40.204  16.245  86.591  1.00  0.00     0.151 C
HETATM    3  C3  UNL     1      41.418  16.697  85.971  1.00  0.00    -0.158 C
HETATM    4  C4  UNL     1      42.523  16.917  85.187  1.00  0.00     0.087 C
HETATM    5  C5  UNL     1      42.442  15.976  83.945  1.00  0.00     0.053 C
HETATM    6  C6  UNL     1      41.550  14.825  83.996  1.00  0.00    -0.017 A
HETATM    7  C7  UNL     1      40.451  14.466  84.736  1.00  0.00     0.042 A
HETATM    8  C8  UNL     1      39.896  13.208  84.658  1.00  0.00     0.032 A
HETATM    9  C9  UNL     1      40.414  12.252  83.835  1.00  0.00     0.033 A
HETATM   10  C10 UNL     1      41.497  12.576  83.084  1.00  0.00     0.046 A
HETATM   11  N1  UNL     1      42.140  11.758  82.223  1.00  0.00    -0.336 N
ATOM     12  H1  UNL     1      41.900  10.787  82.023  1.00  0.00     0.168 HD
HETATM   13  C11 UNL     1      43.128  12.434  81.690  1.00  0.00     0.154 A
HETATM   14  C12 UNL     1      43.129  13.776  82.236  1.00  0.00     0.061 A
HETATM   15  C18 UNL     1      42.091  13.844  83.130  1.00  0.00     0.017 A
HETATM   16  N2  UNL     1      39.610  15.266  85.667  1.00  0.00    -0.345 N
ENDROOT
BRANCH  16  17
HETATM   17  C19 UNL     1      38.242  15.048  85.513  1.00  0.00     0.070 C
BRANCH  17  18
HETATM   18  C20 UNL     1      37.205  16.083  85.647  1.00  0.00     0.024 C
HETATM   19  C21 UNL     1      37.508  17.475  86.040  1.00  0.00     0.010 C
HETATM   20  C22 UNL     1      36.185  18.243  86.330  1.00  0.00     0.001 C
HETATM   21  C23 UNL     1      35.720  17.785  87.684  1.00  0.00     0.000 C
HETATM   22  C24 UNL     1      36.189  16.370  87.936  1.00  0.00     0.001 C
HETATM   23  C25 UNL     1      36.126  15.608  86.654  1.00  0.00     0.010 C
ENDBRANCH  17  18
ENDBRANCH  16  17
BRANCH  14  24
HETATM   24  C13 UNL     1      44.138  14.676  81.772  1.00  0.00     0.080 C
HETATM   25  C14 UNL     1      44.115  15.640  80.910  1.00  0.00     0.011 C
HETATM   26  C15 UNL     1      45.257  16.509  80.523  1.00  0.00     0.032 C
HETATM   27  C16 UNL     1      46.562  16.096  81.115  1.00  0.00     0.030 C
HETATM   28  C17 UNL     1      46.274  15.595  82.532  1.00  0.00     0.176 C
HETATM   29  O2  UNL     1      45.423  14.478  82.374  1.00  0.00    -0.350 OA
ENDBRANCH  14  24
BRANCH  13  30
HETATM   30  O1  UNL     1      44.068  12.037  80.759  1.00  0.00    -0.345 OA
ATOM     31  H1  UNL     1      44.625  11.267  80.748  1.00  0.00     0.219 HD
ENDBRANCH  13  30
TORSDOF 4
ENDMDL