MODEL 4
REMARK VINA RESULT: -6.864137865      2.426      4.685
REMARK  5 active torsions:
REMARK  status: ('A' for Active; 'I' for Inactive)
REMARK    1  A    between atoms: C3_3  and  C4_4
REMARK    2  A    between atoms: C4_4  and  C5_5
REMARK    3  A    between atoms: C5_5  and  N1_6
REMARK    4  A    between atoms: C7_8  and  O1_9
REMARK    5  A    between atoms: C8_11  and  O2_12
ROOT
HETATM    1  C1  UNL     1      37.653  14.377  85.559  1.00  0.00     0.015 C
HETATM    2  C2  UNL     1      38.810  14.685  85.005  1.00  0.00    -0.076 C
HETATM    3  C3  UNL     1      39.414  15.993  85.213  1.00  0.00     0.044 C
HETATM    4  C10 UNL     1      40.863  15.907  85.129  1.00  0.00    -0.070 C
HETATM    5  C11 UNL     1      41.646  16.739  85.851  1.00  0.00    -0.022 C
HETATM    6  C12 UNL     1      43.114  16.551  85.679  1.00  0.00     0.033 C
HETATM    7  C13 UNL     1      43.484  16.536  84.211  1.00  0.00     0.005 C
HETATM    8  C14 UNL     1      44.908  16.027  84.131  1.00  0.00     0.084 C
HETATM    9  C15 UNL     1      45.302  16.093  82.711  1.00  0.00     0.127 C
HETATM   10  O3  UNL     1      46.386  16.499  82.397  1.00  0.00    -0.298 OA
HETATM   11  C16 UNL     1      44.333  15.652  81.700  1.00  0.00     0.079 C
HETATM   12  C17 UNL     1      43.143  14.942  82.313  1.00  0.00     0.017 C
HETATM   13  C18 UNL     1      42.508  15.759  83.380  1.00  0.00    -0.032 C
HETATM   14  C19 UNL     1      41.597  16.786  82.690  1.00  0.00     0.016 C
HETATM   15  C20 UNL     1      41.599  14.959  84.286  1.00  0.00     0.028 C
HETATM   16  C21 UNL     1      40.776  13.929  83.615  1.00  0.00     0.003 C
HETATM   17  C22 UNL     1      41.471  12.585  83.655  1.00  0.00     0.006 C
HETATM   18  C23 UNL     1      40.433  11.577  84.009  1.00  0.00     0.001 C
HETATM   19  C24 UNL     1      39.494  12.353  84.910  1.00  0.00     0.009 C
HETATM   20  C25 UNL     1      39.439  13.685  84.157  1.00  0.00     0.019 C
ENDROOT
BRANCH   3  21
HETATM   21  C4  UNL     1      38.926  16.756  86.412  1.00  0.00     0.033 C
BRANCH  21  22
HETATM   22  C5  UNL     1      37.909  17.800  86.159  1.00  0.00     0.129 C
BRANCH  22  23
HETATM   23  N1  UNL     1      36.748  17.446  86.994  1.00  0.00    -0.361 N
HETATM   24  C6  UNL     1      36.536  16.198  87.436  1.00  0.00     0.130 A
HETATM   25  C7  UNL     1      35.387  16.156  88.188  1.00  0.00     0.115 A
HETATM   26  C8  UNL     1      34.913  17.444  88.180  1.00  0.00     0.115 A
HETATM   27  C9  UNL     1      35.773  18.220  87.435  1.00  0.00     0.130 A
BRANCH  25  28
HETATM   28  O1  UNL     1      34.794  15.091  88.831  1.00  0.00    -0.357 OA
ATOM     29  H1  UNL     1      34.052  15.077  89.424  1.00  0.00     0.218 HD
ENDBRANCH  25  28
BRANCH  26  30
HETATM   30  O2  UNL     1      33.759  17.866  88.822  1.00  0.00    -0.357 OA
ATOM     31  H2  UNL     1      33.633  18.728  89.202  1.00  0.00     0.218 HD
ENDBRANCH  26  30
ENDBRANCH  22  23
ENDBRANCH  21  22
ENDBRANCH   3  21
TORSDOF 5
ENDMDL