MODEL 5
REMARK VINA RESULT: 2.729611320      2.005      3.654
REMARK  5 active torsions:
REMARK  status: ('A' for Active; 'I' for Inactive)
REMARK    1  A    between atoms: C2_2  and  C3_3
REMARK    2  A    between atoms: C3_3  and  C4_4
REMARK    3  A    between atoms: C4_4  and  C6_6
REMARK    4  A    between atoms: C18_26  and  C19_27
REMARK    5  A    between atoms: C20_28  and  C21_29
ROOT
HETATM    1  C6  UNL     1      37.513  15.652  85.641  1.00  0.00     0.000 A
HETATM    2  C7  UNL     1      36.567  15.056  84.857  1.00  0.00     0.014 A
HETATM    3  C8  UNL     1      37.014  14.362  83.776  1.00  0.00     0.002 A
HETATM    4  C9  UNL     1      38.374  14.236  83.446  1.00  0.00     0.011 A
HETATM    5  C10 UNL     1      39.306  14.854  84.262  1.00  0.00    -0.010 A
HETATM    6  C11 UNL     1      38.890  15.568  85.351  1.00  0.00     0.095 A
HETATM    7  O1  UNL     1      39.710  16.309  86.239  1.00  0.00    -0.295 OA
HETATM    8  C12 UNL     1      41.065  16.314  85.934  1.00  0.00     0.137 C
HETATM    9  N1  UNL     1      41.991  16.642  86.739  1.00  0.00    -0.382 N
ATOM     10  H11 UNL     1      42.986  16.647  86.516  1.00  0.00     0.158 HD
ATOM     11  H12 UNL     1      41.725  16.915  87.686  1.00  0.00     0.158 HD
HETATM   12  C13 UNL     1      41.457  15.912  84.541  1.00  0.00     0.182 C
HETATM   13  C14 UNL     1      40.959  17.027  83.676  1.00  0.00     0.073 C
HETATM   14  N2  UNL     1      40.566  17.865  82.980  1.00  0.00    -0.196 NA
HETATM   15  C15 UNL     1      40.751  14.631  84.112  1.00  0.00     0.047 C
HETATM   16  C16 UNL     1      41.309  13.491  84.936  1.00  0.00     0.198 C
HETATM   17  C17 UNL     1      40.997  13.349  86.328  1.00  0.00     0.041 C
HETATM   18  N3  UNL     1      42.741  13.859  84.742  1.00  0.00    -0.055 N
ATOM     19  H31 UNL     1      43.422  13.274  85.226  1.00  0.00     0.279 HD
ATOM     20  H32 UNL     1      43.045  14.723  85.191  1.00  0.00     0.279 HD
HETATM   21  C18 UNL     1      42.804  13.840  83.283  1.00  0.00     0.269 C
HETATM   22  C25 UNL     1      41.357  14.241  82.811  1.00  0.00     0.041 C
HETATM   23  C26 UNL     1      40.893  12.993  82.122  1.00  0.00     0.014 C
ENDROOT
BRANCH  21  24
HETATM   24  C19 UNL     1      43.811  14.602  82.674  1.00  0.00    -0.072 C
HETATM   25  C20 UNL     1      44.675  15.285  82.130  1.00  0.00    -0.096 C
BRANCH  25  26
HETATM   26  C21 UNL     1      45.681  16.115  81.451  1.00  0.00     0.013 C
HETATM   27  C22 UNL     1      45.174  17.540  81.457  1.00  0.00     0.028 C
HETATM   28  C23 UNL     1      47.004  15.927  82.117  1.00  0.00     0.028 C
HETATM   29  C24 UNL     1      45.823  15.702  79.997  1.00  0.00     0.028 C
ENDBRANCH  25  26
ENDBRANCH  21  24
BRANCH   1  30
HETATM   30  C4  UNL     1      37.148  16.153  86.986  1.00  0.00    -0.071 C
HETATM   31  C5  UNL     1      37.365  15.271  88.154  1.00  0.00     0.044 C
BRANCH  30  32
HETATM   32  C3  UNL     1      37.431  17.601  87.260  1.00  0.00     0.034 C
BRANCH  32  33
HETATM   33  C2  UNL     1      36.229  18.453  86.930  1.00  0.00    -0.000 C
HETATM   34  C1  UNL     1      35.165  18.324  88.007  1.00  0.00     0.005 C
ENDBRANCH  32  33
ENDBRANCH  30  32
ENDBRANCH   1  30
TORSDOF 5
ENDMDL