MODEL 2
REMARK VINA RESULT: -7.092503445      1.648      3.166
REMARK  3 active torsions:
REMARK  status: ('A' for Active; 'I' for Inactive)
REMARK    1  A    between atoms: C2_2  and  C3_3
REMARK    2  A    between atoms: C6_6  and  N1_7
REMARK       I    between atoms: N1_7  and  C7_9
REMARK       I    between atoms: C7_9  and  N2_11
REMARK    3  A    between atoms: N2_11  and  C8_13
ROOT
HETATM    1  C8  UNL     1      39.909  13.709  84.110  1.00  0.00     0.086 C
HETATM    2  C9  UNL     1      40.586  14.989  83.657  1.00  0.00     0.025 C
HETATM    3  C10 UNL     1      41.472  15.529  84.747  1.00  0.00     0.002 C
HETATM    4  C11 UNL     1      42.489  16.506  84.248  1.00  0.00     0.000 C
HETATM    5  C12 UNL     1      41.930  17.520  83.288  1.00  0.00     0.000 C
HETATM    6  C13 UNL     1      43.094  18.116  82.522  1.00  0.00     0.000 C
HETATM    7  C14 UNL     1      43.542  17.130  81.503  1.00  0.00     0.000 C
HETATM    8  C15 UNL     1      45.035  17.115  81.285  1.00  0.00     0.000 C
HETATM    9  C16 UNL     1      45.360  15.868  80.486  1.00  0.00     0.010 C
HETATM   10  C17 UNL     1      45.774  14.731  81.398  1.00  0.00     0.111 C
HETATM   11  C18 UNL     1      45.480  13.404  80.801  1.00  0.00     0.258 C
HETATM   12  O2  UNL     1      46.052  13.124  79.717  1.00  0.00    -0.265 OA
HETATM   13  O3  UNL     1      44.626  12.494  81.369  1.00  0.00    -0.321 OA
HETATM   14  C19 UNL     1      43.520  12.864  82.185  1.00  0.00     0.178 C
HETATM   15  C20 UNL     1      42.625  11.700  82.442  1.00  0.00     0.027 C
HETATM   16  C21 UNL     1      41.174  12.112  82.641  1.00  0.00     0.004 C
HETATM   17  C22 UNL     1      40.893  12.546  84.046  1.00  0.00     0.025 C
ENDROOT
BRANCH   1  18
HETATM   18  N2  UNL     1      39.331  13.845  85.412  1.00  0.00    -0.338 N
HETATM   19  C7  UNL     1      38.378  14.886  85.731  1.00  0.00     0.321 C
HETATM   20  N1  UNL     1      37.841  14.984  87.008  1.00  0.00    -0.309 N
HETATM   21  O1  UNL     1      38.089  15.656  84.812  1.00  0.00    -0.247 OA
ATOM     22  H1  UNL     1      38.158  14.297  87.692  1.00  0.00     0.170 HD
ATOM     23  H2  UNL     1      39.601  13.185  86.141  1.00  0.00     0.164 HD
BRANCH  20  24
HETATM   24  C6  UNL     1      36.908  15.929  87.453  1.00  0.00     0.036 A
HETATM   25  C5  UNL     1      37.079  17.285  87.080  1.00  0.00     0.030 A
HETATM   26  C4  UNL     1      36.242  18.266  87.470  1.00  0.00     0.009 A
HETATM   27  C3  UNL     1      35.151  17.982  88.269  1.00  0.00    -0.058 A
HETATM   28  C24 UNL     1      34.929  16.688  88.665  1.00  0.00     0.009 A
HETATM   29  C23 UNL     1      35.818  15.695  88.243  1.00  0.00     0.030 A
BRANCH  27  30
HETATM   30  C2  UNL     1      34.235  19.066  88.693  1.00  0.00     0.034 C
HETATM   31  C1  UNL     1      34.749  20.394  88.244  1.00  0.00     0.010 C
ENDBRANCH  27  30
ENDBRANCH  20  24
ENDBRANCH   1  18
TORSDOF 3
ENDMDL