MODEL 4
REMARK VINA RESULT: -6.871486053      2.071      6.457
REMARK  13 active torsions:
REMARK  status: ('A' for Active; 'I' for Inactive)
REMARK    1  A    between atoms: C4_4  and  C5_5
REMARK    2  A    between atoms: C5_5  and  C6_6
REMARK    3  A    between atoms: C6_6  and  C7_7
REMARK    4  A    between atoms: C7_7  and  C8_8
REMARK    5  A    between atoms: C8_8  and  C9_9
REMARK    6  A    between atoms: C9_9  and  C10_10
REMARK    7  A    between atoms: C10_10  and  C11_11
REMARK    8  A    between atoms: C11_11  and  C12_12
REMARK    9  A    between atoms: C12_12  and  C13_13
REMARK   10  A    between atoms: C13_13  and  C14_14
REMARK   11  A    between atoms: C14_14  and  C15_15
REMARK   12  A    between atoms: C15_15  and  N1_16
REMARK   13  A    between atoms: N1_16  and  C16_19
ROOT
HETATM    1  C11 UNL     1       3.737   8.632   1.069  1.00  0.00     0.000 C
ENDROOT
BRANCH   1   2
HETATM    2  C10 UNL     1       2.640   7.725   0.614  1.00  0.00     0.000 C
BRANCH   2   3
HETATM    3  C9  UNL     1       3.057   6.295   0.498  1.00  0.00     0.000 C
BRANCH   3   4
HETATM    4  C8  UNL     1       2.765   5.682  -0.827  1.00  0.00     0.000 C
BRANCH   4   5
HETATM    5  C7  UNL     1       3.646   6.115  -1.948  1.00  0.00     0.000 C
BRANCH   5   6
HETATM    6  C6  UNL     1       5.107   6.097  -1.661  1.00  0.00     0.005 C
BRANCH   6   7
HETATM    7  C5  UNL     1       5.771   7.322  -2.238  1.00  0.00     0.038 C
BRANCH   7   8
HETATM    8  C4  UNL     1       6.672   7.870  -1.170  1.00  0.00    -0.058 A
HETATM    9  C3  UNL     1       6.845   7.119  -0.041  1.00  0.00     0.007 A
HETATM   10  C2  UNL     1       7.647   7.533   0.997  1.00  0.00     0.001 A
HETATM   11  C1  UNL     1       8.274   8.761   0.833  1.00  0.00     0.000 A
HETATM   12  C23 UNL     1       8.110   9.531  -0.299  1.00  0.00     0.001 A
HETATM   13  C22 UNL     1       7.300   9.090  -1.325  1.00  0.00     0.007 A
ENDBRANCH   7   8
ENDBRANCH   6   7
ENDBRANCH   5   6
ENDBRANCH   4   5
ENDBRANCH   3   4
ENDBRANCH   2   3
ENDBRANCH   1   2
BRANCH   1  14
HETATM   14  C12 UNL     1       3.970   9.818   0.176  1.00  0.00     0.000 C
BRANCH  14  15
HETATM   15  C13 UNL     1       4.834  10.789   0.943  1.00  0.00     0.002 C
BRANCH  15  16
HETATM   16  C14 UNL     1       4.412  12.237   0.711  1.00  0.00     0.027 C
BRANCH  16  17
HETATM   17  C15 UNL     1       2.904  12.367   0.903  1.00  0.00     0.232 C
BRANCH  17  18
HETATM   18  N1  UNL     1       2.544  12.810   2.225  1.00  0.00    -0.071 N
ATOM     19  H12 UNL     1       3.367  12.994   2.798  1.00  0.00     0.277 HD
ATOM     20  H11 UNL     1       2.150  13.751   2.214  1.00  0.00     0.277 HD
BRANCH  18  21
HETATM   21  C16 UNL     1       1.664  11.879   2.850  1.00  0.00     0.185 C
HETATM   22  C17 UNL     1       2.463  10.946   3.769  1.00  0.00     0.033 C
HETATM   23  C18 UNL     1       1.570  10.014   4.514  1.00  0.00     0.002 C
HETATM   24  C19 UNL     1       0.636   9.239   3.616  1.00  0.00     0.000 C
HETATM   25  C20 UNL     1      -0.004  10.121   2.572  1.00  0.00     0.002 C
HETATM   26  C21 UNL     1       1.013  10.939   1.822  1.00  0.00     0.033 C
ENDBRANCH  18  21
ENDBRANCH  17  18
ENDBRANCH  16  17
ENDBRANCH  15  16
ENDBRANCH  14  15
ENDBRANCH   1  14
TORSDOF 13
ENDMDL