MODEL 2
REMARK VINA RESULT: -6.212928661      2.300      4.649
REMARK  15 active torsions:
REMARK  status: ('A' for Active; 'I' for Inactive)
REMARK    1  A    between atoms: N1_1  and  C1_5
REMARK    2  A    between atoms: C1_5  and  C2_6
REMARK    3  A    between atoms: C2_6  and  C3_7
REMARK    4  A    between atoms: C3_7  and  C4_8
REMARK    5  A    between atoms: C4_8  and  C5_9
REMARK    6  A    between atoms: C5_9  and  C6_10
REMARK    7  A    between atoms: C6_10  and  C7_11
REMARK    8  A    between atoms: C7_11  and  C8_12
REMARK    9  A    between atoms: C8_12  and  C9_13
REMARK   10  A    between atoms: C9_13  and  C10_14
REMARK   11  A    between atoms: C10_14  and  C11_15
REMARK   12  A    between atoms: C11_15  and  C12_16
REMARK   13  A    between atoms: C12_16  and  C13_17
REMARK   14  A    between atoms: C13_17  and  C14_18
REMARK   15  A    between atoms: C14_18  and  N2_19
ROOT
HETATM    1  C11 UNL     1       2.318   6.738   0.860  1.00  0.00     0.000 C
ENDROOT
BRANCH   1   2
HETATM    2  C10 UNL     1       2.373   8.166   0.476  1.00  0.00     0.000 C
BRANCH   2   3
HETATM    3  C9  UNL     1       3.616   8.808   1.079  1.00  0.00     0.000 C
BRANCH   3   4
HETATM    4  C8  UNL     1       4.098   9.967   0.277  1.00  0.00     0.000 C
BRANCH   4   5
HETATM    5  C7  UNL     1       5.033  10.850   1.063  1.00  0.00     0.000 C
BRANCH   5   6
HETATM    6  C6  UNL     1       4.578  12.269   0.946  1.00  0.00     0.000 C
BRANCH   6   7
HETATM    7  C5  UNL     1       3.056  12.380   0.963  1.00  0.00     0.000 C
BRANCH   7   8
HETATM    8  C4  UNL     1       2.571  12.709   2.339  1.00  0.00     0.000 C
BRANCH   8   9
HETATM    9  C3  UNL     1       1.868  11.549   2.962  1.00  0.00     0.002 C
BRANCH   9  10
HETATM   10  C2  UNL     1       2.282  11.355   4.402  1.00  0.00     0.027 C
BRANCH  10  11
HETATM   11  C1  UNL     1       3.741  11.755   4.575  1.00  0.00     0.229 C
BRANCH  11  12
HETATM   12  N1  UNL     1       3.875  12.560   5.780  1.00  0.00    -0.079 N
ATOM     13  H13 UNL     1       3.814  13.560   5.586  1.00  0.00     0.274 HD
ATOM     14  H12 UNL     1       3.061  12.483   6.390  1.00  0.00     0.274 HD
ATOM     15  H11 UNL     1       4.741  12.308   6.255  1.00  0.00     0.274 HD
ENDBRANCH  11  12
ENDBRANCH  10  11
ENDBRANCH   9  10
ENDBRANCH   8   9
ENDBRANCH   7   8
ENDBRANCH   6   7
ENDBRANCH   5   6
ENDBRANCH   4   5
ENDBRANCH   3   4
ENDBRANCH   2   3
ENDBRANCH   1   2
BRANCH   1  16
HETATM   16  C12 UNL     1       2.709   5.754  -0.177  1.00  0.00     0.002 C
BRANCH  16  17
HETATM   17  C13 UNL     1       2.929   6.307  -1.547  1.00  0.00     0.020 C
BRANCH  17  18
HETATM   18  C14 UNL     1       4.312   5.952  -2.052  1.00  0.00     0.119 C
BRANCH  18  19
HETATM   19  N2  UNL     1       5.185   7.072  -1.881  1.00  0.00    -0.392 N
HETATM   20  C15 UNL     1       6.106   7.109  -1.005  1.00  0.00     0.016 C
HETATM   21  C16 UNL     1       6.469   6.067  -0.022  1.00  0.00     0.062 C
HETATM   22  C23 UNL     1       7.043   8.194  -0.750  1.00  0.00    -0.008 A
HETATM   23  C17 UNL     1       6.901   6.901   1.155  1.00  0.00     0.045 C
HETATM   24  C18 UNL     1       7.542   8.086   0.530  1.00  0.00    -0.046 A
HETATM   25  C19 UNL     1       8.471   8.989   1.052  1.00  0.00     0.008 A
HETATM   26  C20 UNL     1       8.889  10.012   0.244  1.00  0.00     0.001 A
HETATM   27  C21 UNL     1       8.415  10.156  -1.043  1.00  0.00     0.001 A
HETATM   28  C22 UNL     1       7.500   9.254  -1.534  1.00  0.00     0.014 A
ATOM     29  H2  UNL     1       5.062   7.880  -2.491  1.00  0.00     0.159 HD
ENDBRANCH  18  19
ENDBRANCH  17  18
ENDBRANCH  16  17
ENDBRANCH   1  16
TORSDOF 15
ENDMDL