MODEL 2
REMARK VINA RESULT: -6.470179097      1.018      2.829
REMARK  13 active torsions:
REMARK  status: ('A' for Active; 'I' for Inactive)
REMARK    1  A    between atoms: C4_4  and  C5_5
REMARK    2  A    between atoms: C5_5  and  C6_6
REMARK    3  A    between atoms: C6_6  and  C7_7
REMARK    4  A    between atoms: C7_7  and  C8_8
REMARK    5  A    between atoms: C8_8  and  C9_9
REMARK    6  A    between atoms: C9_9  and  C10_10
REMARK    7  A    between atoms: C10_10  and  C11_11
REMARK    8  A    between atoms: C11_11  and  C12_12
REMARK    9  A    between atoms: C12_12  and  C13_13
REMARK   10  A    between atoms: C13_13  and  C14_14
REMARK   11  A    between atoms: C14_14  and  N1_15
REMARK   12  A    between atoms: N1_15  and  C15_18
REMARK   13  A    between atoms: C15_18  and  C16_19
ROOT
HETATM    1  C11 UNL     1       1.400   9.596   0.788  1.00  0.00     0.000 C
ENDROOT
BRANCH   1   2
HETATM    2  C10 UNL     1       2.363   8.599   0.207  1.00  0.00     0.000 C
BRANCH   2   3
HETATM    3  C9  UNL     1       2.826   7.576   1.201  1.00  0.00     0.000 C
BRANCH   3   4
HETATM    4  C8  UNL     1       2.370   6.195   0.815  1.00  0.00     0.000 C
BRANCH   4   5
HETATM    5  C7  UNL     1       2.165   6.124  -0.658  1.00  0.00     0.000 C
BRANCH   5   6
HETATM    6  C6  UNL     1       3.247   5.247  -1.327  1.00  0.00     0.005 C
BRANCH   6   7
HETATM    7  C5  UNL     1       4.040   6.209  -2.197  1.00  0.00     0.038 C
BRANCH   7   8
HETATM    8  C4  UNL     1       5.189   6.785  -1.461  1.00  0.00    -0.058 A
HETATM    9  C3  UNL     1       5.628   8.062  -1.635  1.00  0.00     0.007 A
HETATM   10  C2  UNL     1       6.690   8.566  -0.938  1.00  0.00     0.001 A
HETATM   11  C1  UNL     1       7.327   7.729  -0.028  1.00  0.00     0.000 A
HETATM   12  C23 UNL     1       6.903   6.451   0.158  1.00  0.00     0.001 A
HETATM   13  C22 UNL     1       5.829   5.964  -0.555  1.00  0.00     0.007 A
ENDBRANCH   7   8
ENDBRANCH   6   7
ENDBRANCH   5   6
ENDBRANCH   4   5
ENDBRANCH   3   4
ENDBRANCH   2   3
ENDBRANCH   1   2
BRANCH   1  14
HETATM   14  C12 UNL     1       0.857   9.134   2.095  1.00  0.00     0.002 C
BRANCH  14  15
HETATM   15  C13 UNL     1       0.092  10.262   2.810  1.00  0.00     0.027 C
BRANCH  15  16
HETATM   16  C14 UNL     1       0.695  10.392   4.186  1.00  0.00     0.232 C
BRANCH  16  17
HETATM   17  N1  UNL     1       1.333  11.654   4.405  1.00  0.00    -0.071 N
ATOM     18  H12 UNL     1       1.154  12.293   3.630  1.00  0.00     0.277 HD
ATOM     19  H11 UNL     1       0.873  12.171   5.155  1.00  0.00     0.277 HD
BRANCH  17  20
HETATM   20  C15 UNL     1       2.754  11.532   4.657  1.00  0.00     0.270 C
BRANCH  20  21
HETATM   21  C16 UNL     1       3.526  11.436   3.392  1.00  0.00    -0.033 A
HETATM   22  C17 UNL     1       3.335  12.360   2.383  1.00  0.00     0.009 A
HETATM   23  C18 UNL     1       4.036  12.303   1.192  1.00  0.00     0.001 A
HETATM   24  C19 UNL     1       4.963  11.309   0.964  1.00  0.00     0.000 A
HETATM   25  C20 UNL     1       5.164  10.379   1.961  1.00  0.00     0.001 A
HETATM   26  C21 UNL     1       4.459  10.445   3.147  1.00  0.00     0.009 A
ENDBRANCH  20  21
ENDBRANCH  17  20
ENDBRANCH  16  17
ENDBRANCH  15  16
ENDBRANCH  14  15
ENDBRANCH   1  14
TORSDOF 13
ENDMDL