MODEL 5
REMARK VINA RESULT: -6.318003608      1.765      6.708
REMARK  14 active torsions:
REMARK  status: ('A' for Active; 'I' for Inactive)
REMARK    1  A    between atoms: C4_4  and  C5_5
REMARK    2  A    between atoms: C5_5  and  C6_6
REMARK    3  A    between atoms: C6_6  and  C7_7
REMARK    4  A    between atoms: C7_7  and  C8_8
REMARK    5  A    between atoms: C8_8  and  C9_9
REMARK    6  A    between atoms: C9_9  and  C10_10
REMARK    7  A    between atoms: C10_10  and  C11_11
REMARK    8  A    between atoms: C11_11  and  C12_12
REMARK    9  A    between atoms: C12_12  and  C13_13
REMARK   10  A    between atoms: C13_13  and  N1_14
REMARK   11  A    between atoms: N1_14  and  C14_16
REMARK   12  A    between atoms: C14_16  and  C15_17
REMARK   13  A    between atoms: C15_17  and  C16_18
REMARK   14  A    between atoms: C16_18  and  C17_19
ROOT
HETATM    1  C11 UNL     1       2.836   8.373   0.393  1.00  0.00     0.005 C
ENDROOT
BRANCH   1   2
HETATM    2  C10 UNL     1       1.606   9.101   0.826  1.00  0.00     0.000 C
BRANCH   2   3
HETATM    3  C9  UNL     1       1.006   8.628   2.113  1.00  0.00     0.000 C
BRANCH   3   4
HETATM    4  C8  UNL     1      -0.018   9.563   2.702  1.00  0.00     0.000 C
BRANCH   4   5
HETATM    5  C7  UNL     1       0.371   9.927   4.101  1.00  0.00     0.000 C
BRANCH   5   6
HETATM    6  C6  UNL     1       0.983  11.290   4.217  1.00  0.00     0.005 C
BRANCH   6   7
HETATM    7  C5  UNL     1       2.427  11.272   4.629  1.00  0.00     0.038 C
BRANCH   7   8
HETATM    8  C4  UNL     1       3.295  11.333   3.407  1.00  0.00    -0.058 A
HETATM    9  C3  UNL     1       2.960  12.202   2.379  1.00  0.00     0.007 A
HETATM   10  C2  UNL     1       3.743  12.267   1.249  1.00  0.00     0.001 A
HETATM   11  C1  UNL     1       4.861  11.483   1.113  1.00  0.00     0.000 A
HETATM   12  C23 UNL     1       5.216  10.607   2.128  1.00  0.00     0.001 A
HETATM   13  C22 UNL     1       4.413  10.561   3.251  1.00  0.00     0.007 A
ENDBRANCH   7   8
ENDBRANCH   6   7
ENDBRANCH   5   6
ENDBRANCH   4   5
ENDBRANCH   3   4
ENDBRANCH   2   3
ENDBRANCH   1   2
BRANCH   1  14
HETATM   14  C12 UNL     1       2.804   6.906   0.772  1.00  0.00     0.044 C
BRANCH  14  15
HETATM   15  C13 UNL     1       2.185   6.035  -0.265  1.00  0.00     0.060 C
BRANCH  15  16
HETATM   16  N1  UNL     1       3.066   5.346  -1.073  1.00  0.00    -0.382 N
ATOM     17  H1  UNL     1       3.160   4.350  -0.875  1.00  0.00     0.163 HD
BRANCH  16  18
HETATM   18  C14 UNL     1       3.831   5.819  -2.102  1.00  0.00     0.060 C
BRANCH  18  19
HETATM   19  C15 UNL     1       5.265   6.107  -1.881  1.00  0.00     0.045 C
BRANCH  19  20
HETATM   20  C16 UNL     1       5.568   7.621  -2.029  1.00  0.00     0.009 C
BRANCH  20  21
HETATM   21  C17 UNL     1       6.785   7.928  -1.238  1.00  0.00    -0.014 C
HETATM   22  C18 UNL     1       6.579   7.707   0.260  1.00  0.00     0.004 C
HETATM   23  C19 UNL     1       7.875   8.329   0.796  1.00  0.00     0.000 C
HETATM   24  C20 UNL     1       8.131   9.515  -0.128  1.00  0.00     0.000 C
HETATM   25  C21 UNL     1       7.080   9.432  -1.216  1.00  0.00     0.004 C
ENDBRANCH  20  21
ENDBRANCH  19  20
ENDBRANCH  18  19
ENDBRANCH  16  18
ENDBRANCH  15  16
ENDBRANCH  14  15
ENDBRANCH   1  14
TORSDOF 14
ENDMDL