MODEL 4
REMARK VINA RESULT: -6.767165221      1.160      3.541
REMARK  15 active torsions:
REMARK  status: ('A' for Active; 'I' for Inactive)
REMARK    1  A    between atoms: O1_1  and  C1_3
REMARK    2  A    between atoms: C1_3  and  C2_4
REMARK    3  A    between atoms: C5_7  and  C6_8
REMARK    4  A    between atoms: C6_8  and  C7_9
REMARK    5  A    between atoms: C7_9  and  C8_10
REMARK    6  A    between atoms: C8_10  and  C9_11
REMARK    7  A    between atoms: C9_11  and  C10_12
REMARK    8  A    between atoms: C10_12  and  C11_13
REMARK    9  A    between atoms: C11_13  and  C12_14
REMARK   10  A    between atoms: C12_14  and  C13_15
REMARK   11  A    between atoms: C13_15  and  C14_16
REMARK   12  A    between atoms: C14_16  and  C15_17
REMARK   13  A    between atoms: C15_17  and  C16_18
REMARK   14  A    between atoms: C16_18  and  C17_19
REMARK   15  A    between atoms: C17_19  and  C18_20
ROOT
HETATM    1  C9  UNL     1       0.735   8.404   2.128  1.00  0.00     0.000 C
ENDROOT
BRANCH   1   2
HETATM    2  C8  UNL     1       0.790   8.249   0.673  1.00  0.00     0.000 C
BRANCH   2   3
HETATM    3  C7  UNL     1       1.586   7.213   0.053  1.00  0.00     0.006 C
BRANCH   3   4
HETATM    4  C6  UNL     1       2.302   6.198   0.856  1.00  0.00     0.057 C
BRANCH   4   5
HETATM    5  C5  UNL     1       3.733   6.209   0.330  1.00  0.00     0.009 A
HETATM    6  C4  UNL     1       4.095   6.330  -0.968  1.00  0.00     0.027 A
HETATM    7  C3  UNL     1       5.495   6.293  -1.007  1.00  0.00     0.029 A
HETATM    8  C2  UNL     1       5.931   6.148   0.297  1.00  0.00     0.033 A
HETATM    9  N1  UNL     1       4.812   6.101   1.088  1.00  0.00    -0.361 N
ATOM     10  H1  UNL     1       4.813   5.998   2.104  1.00  0.00     0.165 HD
BRANCH   8  11
HETATM   11  C1  UNL     1       7.308   6.054   0.834  1.00  0.00     0.220 C
BRANCH  11  12
HETATM   12  O1  UNL     1       7.913   4.943   0.259  1.00  0.00    -0.395 OA
ATOM     13  H1  UNL     1       8.640   5.249  -0.271  1.00  0.00     0.209 HD
ENDBRANCH  11  12
ENDBRANCH   8  11
ENDBRANCH   4   5
ENDBRANCH   3   4
ENDBRANCH   2   3
ENDBRANCH   1   2
BRANCH   1  14
HETATM   14  C10 UNL     1       0.042   9.605   2.636  1.00  0.00     0.000 C
BRANCH  14  15
HETATM   15  C11 UNL     1       0.558   9.903   4.071  1.00  0.00     0.000 C
BRANCH  15  16
HETATM   16  C12 UNL     1       0.924  11.332   4.174  1.00  0.00     0.000 C
BRANCH  16  17
HETATM   17  C13 UNL     1       2.466  11.498   4.370  1.00  0.00     0.000 C
BRANCH  17  18
HETATM   18  C14 UNL     1       2.957  12.481   3.398  1.00  0.00     0.000 C
BRANCH  18  19
HETATM   19  C15 UNL     1       2.182  12.821   2.196  1.00  0.00     0.000 C
BRANCH  19  20
HETATM   20  C16 UNL     1       2.412  12.144   0.915  1.00  0.00     0.000 C
BRANCH  20  21
HETATM   21  C17 UNL     1       3.804  11.713   0.648  1.00  0.00     0.004 C
BRANCH  21  22
HETATM   22  C18 UNL     1       3.845  10.230   0.349  1.00  0.00    -0.014 C
HETATM   23  C19 UNL     1       4.131   9.518   1.673  1.00  0.00     0.004 C
HETATM   24  C20 UNL     1       5.582   9.885   1.908  1.00  0.00     0.000 C
HETATM   25  C21 UNL     1       6.189  10.106   0.549  1.00  0.00     0.000 C
HETATM   26  C22 UNL     1       5.085   9.938  -0.476  1.00  0.00     0.004 C
ENDBRANCH  21  22
ENDBRANCH  20  21
ENDBRANCH  19  20
ENDBRANCH  18  19
ENDBRANCH  17  18
ENDBRANCH  16  17
ENDBRANCH  15  16
ENDBRANCH  14  15
ENDBRANCH   1  14
TORSDOF 15
ENDMDL