MODEL 4
REMARK VINA RESULT: -6.578025717      1.293      6.093
REMARK  14 active torsions:
REMARK  status: ('A' for Active; 'I' for Inactive)
REMARK    1  A    between atoms: C4_4  and  C5_5
REMARK    2  A    between atoms: C5_5  and  C6_6
REMARK    3  A    between atoms: C6_6  and  C7_7
REMARK    4  A    between atoms: C7_7  and  C8_8
REMARK    5  A    between atoms: C8_8  and  C9_9
REMARK    6  A    between atoms: C9_9  and  N1_10
REMARK    7  A    between atoms: N1_10  and  C10_13
REMARK    8  A    between atoms: C10_13  and  C11_14
REMARK    9  A    between atoms: C11_14  and  C12_15
REMARK   10  A    between atoms: C12_15  and  C13_16
REMARK   11  A    between atoms: C13_16  and  C14_17
REMARK   12  A    between atoms: C14_17  and  C15_18
REMARK   13  A    between atoms: C15_18  and  C16_19
REMARK   14  A    between atoms: C16_19  and  C17_20
ROOT
HETATM    1  N1  UNL     1       0.780   8.267   2.219  1.00  0.00    -0.075 N
ATOM      2  H11 UNL     1       0.618   7.270   2.365  1.00  0.00     0.277 HD
ATOM      3  H12 UNL     1       1.585   8.363   2.838  1.00  0.00     0.277 HD
ENDROOT
BRANCH   1   4
HETATM    4  C9  UNL     1      -0.346   9.089   2.621  1.00  0.00     0.232 C
BRANCH   4   5
HETATM    5  C8  UNL     1       0.194  10.385   3.154  1.00  0.00     0.027 C
BRANCH   5   6
HETATM    6  C7  UNL     1       1.349  10.193   4.099  1.00  0.00     0.002 C
BRANCH   6   7
HETATM    7  C6  UNL     1       2.315  11.362   3.983  1.00  0.00     0.000 C
BRANCH   7   8
HETATM    8  C5  UNL     1       3.307  11.158   2.881  1.00  0.00     0.005 C
BRANCH   8   9
HETATM    9  C4  UNL     1       3.517  12.435   2.137  1.00  0.00    -0.008 C
HETATM   10  C3  UNL     1       2.214  12.815   1.455  1.00  0.00     0.031 C
HETATM   11  C2  UNL     1       2.282  12.113   0.167  1.00  0.00    -0.030 C
HETATM   12  C1  UNL     1       3.530  11.783  -0.095  1.00  0.00    -0.030 C
HETATM   13  C23 UNL     1       4.453  12.226   0.992  1.00  0.00     0.031 C
ENDBRANCH   8   9
ENDBRANCH   7   8
ENDBRANCH   6   7
ENDBRANCH   5   6
ENDBRANCH   4   5
ENDBRANCH   1   4
BRANCH   1  14
HETATM   14  C10 UNL     1       1.089   8.597   0.825  1.00  0.00     0.232 C
BRANCH  14  15
HETATM   15  C11 UNL     1       2.546   8.342   0.617  1.00  0.00     0.027 C
BRANCH  15  16
HETATM   16  C12 UNL     1       2.826   6.869   0.701  1.00  0.00     0.002 C
BRANCH  16  17
HETATM   17  C13 UNL     1       2.210   6.139  -0.437  1.00  0.00     0.000 C
BRANCH  17  18
HETATM   18  C14 UNL     1       3.229   5.359  -1.187  1.00  0.00     0.000 C
BRANCH  18  19
HETATM   19  C15 UNL     1       4.065   6.236  -2.079  1.00  0.00     0.000 C
BRANCH  19  20
HETATM   20  C16 UNL     1       5.524   5.930  -1.896  1.00  0.00     0.004 C
BRANCH  20  21
HETATM   21  C17 UNL     1       6.311   7.023  -1.233  1.00  0.00    -0.014 C
HETATM   22  C18 UNL     1       5.611   8.355  -1.371  1.00  0.00     0.004 C
HETATM   23  C19 UNL     1       6.407   9.389  -0.596  1.00  0.00     0.000 C
HETATM   24  C20 UNL     1       6.249   9.028   0.879  1.00  0.00     0.000 C
HETATM   25  C21 UNL     1       6.979   7.727   1.084  1.00  0.00     0.000 C
HETATM   26  C22 UNL     1       6.498   6.625   0.209  1.00  0.00     0.004 C
ENDBRANCH  20  21
ENDBRANCH  19  20
ENDBRANCH  18  19
ENDBRANCH  17  18
ENDBRANCH  16  17
ENDBRANCH  15  16
ENDBRANCH  14  15
ENDBRANCH   1  14
TORSDOF 14
ENDMDL