MODEL 5
REMARK VINA RESULT: -6.942839712      1.048      1.217
REMARK  15 active torsions:
REMARK  status: ('A' for Active; 'I' for Inactive)
REMARK    1  A    between atoms: N1_1  and  C1_5
REMARK    2  A    between atoms: C1_5  and  C2_6
REMARK    3  A    between atoms: C2_6  and  C3_7
REMARK    4  A    between atoms: C3_7  and  C4_8
REMARK    5  A    between atoms: C4_8  and  C5_9
REMARK    6  A    between atoms: C5_9  and  C6_10
REMARK    7  A    between atoms: C6_10  and  C7_11
REMARK    8  A    between atoms: C11_15  and  C12_16
REMARK    9  A    between atoms: C12_16  and  C13_17
REMARK   10  A    between atoms: C13_17  and  C14_18
REMARK   11  A    between atoms: C14_18  and  C15_19
REMARK   12  A    between atoms: C15_19  and  C16_20
REMARK   13  A    between atoms: C16_20  and  C17_21
REMARK   14  A    between atoms: C17_21  and  C18_22
REMARK   15  A    between atoms: C18_22  and  C19_23
ROOT
HETATM    1  C7  UNL     1       4.571   6.867  -1.369  1.00  0.00    -0.079 C
HETATM    2  C8  UNL     1       3.793   6.074  -2.125  1.00  0.00    -0.024 C
HETATM    3  C9  UNL     1       2.583   5.678  -1.357  1.00  0.00     0.028 C
HETATM    4  C10 UNL     1       3.123   5.786   0.072  1.00  0.00     0.012 C
HETATM    5  C11 UNL     1       3.939   7.062  -0.043  1.00  0.00     0.014 C
ENDROOT
BRANCH   5   6
HETATM    6  C12 UNL     1       3.086   8.279  -0.013  1.00  0.00     0.009 C
BRANCH   6   7
HETATM    7  C13 UNL     1       2.418   8.503   1.329  1.00  0.00     0.001 C
BRANCH   7   8
HETATM    8  C14 UNL     1       0.954   8.899   1.148  1.00  0.00     0.000 C
BRANCH   8   9
HETATM    9  C15 UNL     1       0.268   9.023   2.475  1.00  0.00     0.000 C
BRANCH   9  10
HETATM   10  C16 UNL     1      -0.011  10.432   2.879  1.00  0.00     0.000 C
BRANCH  10  11
HETATM   11  C17 UNL     1       1.020  10.988   3.834  1.00  0.00     0.005 C
BRANCH  11  12
HETATM   12  C18 UNL     1       1.613  12.285   3.327  1.00  0.00     0.038 C
BRANCH  12  13
HETATM   13  C19 UNL     1       2.626  12.081   2.273  1.00  0.00    -0.058 A
HETATM   14  C20 UNL     1       3.886  11.582   2.612  1.00  0.00     0.007 A
HETATM   15  C21 UNL     1       4.845  11.388   1.640  1.00  0.00     0.001 A
HETATM   16  C22 UNL     1       4.605  11.676   0.308  1.00  0.00     0.000 A
HETATM   17  C23 UNL     1       3.364  12.170  -0.040  1.00  0.00     0.001 A
HETATM   18  C24 UNL     1       2.419  12.358   0.934  1.00  0.00     0.007 A
ENDBRANCH  12  13
ENDBRANCH  11  12
ENDBRANCH  10  11
ENDBRANCH   9  10
ENDBRANCH   8   9
ENDBRANCH   7   8
ENDBRANCH   6   7
ENDBRANCH   5   6
BRANCH   1  19
HETATM   19  C6  UNL     1       5.877   7.415  -1.906  1.00  0.00     0.038 C
BRANCH  19  20
HETATM   20  C5  UNL     1       6.107   8.834  -1.579  1.00  0.00     0.031 C
BRANCH  20  21
HETATM   21  C4  UNL     1       7.429   9.120  -0.983  1.00  0.00    -0.030 C
BRANCH  21  22
HETATM   22  C3  UNL     1       7.897   8.524   0.266  1.00  0.00    -0.029 C
BRANCH  22  23
HETATM   23  C2  UNL     1       7.007   8.328   1.429  1.00  0.00     0.054 C
BRANCH  23  24
HETATM   24  C1  UNL     1       7.117   6.826   1.869  1.00  0.00     0.233 C
BRANCH  24  25
HETATM   25  N1  UNL     1       8.189   6.225   1.113  1.00  0.00    -0.079 N
ATOM     26  H13 UNL     1       8.660   6.888   0.497  1.00  0.00     0.274 HD
ATOM     27  H12 UNL     1       8.994   5.984   1.692  1.00  0.00     0.274 HD
ATOM     28  H11 UNL     1       7.805   5.424   0.614  1.00  0.00     0.274 HD
ENDBRANCH  24  25
ENDBRANCH  23  24
ENDBRANCH  22  23
ENDBRANCH  21  22
ENDBRANCH  20  21
ENDBRANCH  19  20
ENDBRANCH   1  19
TORSDOF 15
ENDMDL