MODEL 3
REMARK VINA RESULT: -6.831885291      2.757      6.997
REMARK  13 active torsions:
REMARK  status: ('A' for Active; 'I' for Inactive)
REMARK    1  A    between atoms: C4_4  and  C5_5
REMARK    2  A    between atoms: C5_5  and  C6_6
REMARK    3  A    between atoms: C6_6  and  C7_7
REMARK    4  A    between atoms: C7_7  and  C8_8
REMARK    5  A    between atoms: C8_8  and  C9_9
REMARK    6  A    between atoms: C9_9  and  C10_10
REMARK    7  A    between atoms: C10_10  and  C11_11
REMARK    8  A    between atoms: C12_12  and  C13_13
REMARK    9  A    between atoms: C13_13  and  C14_14
REMARK   10  A    between atoms: C14_14  and  C15_15
REMARK   11  A    between atoms: C15_15  and  C16_16
REMARK   12  A    between atoms: C16_16  and  C17_17
REMARK   13  A    between atoms: C17_17  and  C18_18
ROOT
HETATM    1  C11 UNL     1       2.883   8.623   0.341  1.00  0.00    -0.031 C
HETATM    2  C12 UNL     1       2.217   7.352   0.338  1.00  0.00    -0.031 C
ENDROOT
BRANCH   1   3
HETATM    3  C10 UNL     1       3.963   8.936   1.267  1.00  0.00     0.027 C
BRANCH   3   4
HETATM    4  C9  UNL     1       4.700  10.202   1.102  1.00  0.00     0.004 C
BRANCH   4   5
HETATM    5  C8  UNL     1       4.343  11.015  -0.076  1.00  0.00     0.000 C
BRANCH   5   6
HETATM    6  C7  UNL     1       3.942  12.418   0.405  1.00  0.00     0.000 C
BRANCH   6   7
HETATM    7  C6  UNL     1       2.471  12.462   0.602  1.00  0.00     0.005 C
BRANCH   7   8
HETATM    8  C5  UNL     1       2.225  12.811   2.082  1.00  0.00     0.038 C
BRANCH   8   9
HETATM    9  C4  UNL     1       1.649  11.558   2.687  1.00  0.00    -0.058 A
HETATM   10  C3  UNL     1       2.129  11.123   3.892  1.00  0.00     0.007 A
HETATM   11  C2  UNL     1       1.607   9.981   4.451  1.00  0.00     0.001 A
HETATM   12  C1  UNL     1       0.606   9.244   3.838  1.00  0.00     0.000 A
HETATM   13  C22 UNL     1       0.151   9.717   2.624  1.00  0.00     0.001 A
HETATM   14  C21 UNL     1       0.660  10.856   2.050  1.00  0.00     0.007 A
ENDBRANCH   8   9
ENDBRANCH   7   8
ENDBRANCH   6   7
ENDBRANCH   5   6
ENDBRANCH   4   5
ENDBRANCH   3   4
ENDBRANCH   1   3
BRANCH   2  15
HETATM   15  C13 UNL     1       2.829   6.042   0.156  1.00  0.00     0.027 C
BRANCH  15  16
HETATM   16  C14 UNL     1       2.815   5.438  -1.187  1.00  0.00     0.004 C
BRANCH  16  17
HETATM   17  C15 UNL     1       3.713   6.048  -2.185  1.00  0.00     0.001 C
BRANCH  17  18
HETATM   18  C16 UNL     1       5.140   6.217  -1.636  1.00  0.00     0.006 C
BRANCH  18  19
HETATM   19  C17 UNL     1       5.771   7.490  -2.078  1.00  0.00     0.058 C
BRANCH  19  20
HETATM   20  C18 UNL     1       6.722   8.087  -1.150  1.00  0.00     0.027 A
HETATM   21  C19 UNL     1       7.421   9.256  -1.260  1.00  0.00     0.045 A
HETATM   22  C20 UNL     1       8.182   9.365  -0.115  1.00  0.00     0.109 A
HETATM   23  N1  UNL     1       7.946   8.283   0.670  1.00  0.00    -0.312 N
HETATM   24  N2  UNL     1       7.077   7.547   0.029  1.00  0.00    -0.305 N
ATOM     25  H1  UNL     1       8.364   8.085   1.579  1.00  0.00     0.186 HD
ATOM     26  H2  UNL     1       6.710   6.664   0.382  1.00  0.00     0.186 HD
ENDBRANCH  19  20
ENDBRANCH  18  19
ENDBRANCH  17  18
ENDBRANCH  16  17
ENDBRANCH  15  16
ENDBRANCH   2  15
TORSDOF 13
ENDMDL