MODEL 5
REMARK VINA RESULT: -6.703432735      2.109      6.350
REMARK  14 active torsions:
REMARK  status: ('A' for Active; 'I' for Inactive)
REMARK    1  A    between atoms: C4_4  and  C5_5
REMARK    2  A    between atoms: C5_5  and  C6_6
REMARK    3  A    between atoms: C6_6  and  C7_7
REMARK    4  A    between atoms: C7_7  and  C8_8
REMARK    5  A    between atoms: C8_8  and  C9_9
REMARK    6  A    between atoms: C9_9  and  C10_10
REMARK    7  A    between atoms: C10_10  and  C11_11
REMARK    8  A    between atoms: C11_11  and  C12_12
REMARK    9  A    between atoms: C12_12  and  C13_13
REMARK   10  A    between atoms: C13_13  and  C14_14
REMARK   11  A    between atoms: C14_14  and  C15_15
REMARK   12  A    between atoms: C15_15  and  C16_16
REMARK   13  A    between atoms: C16_16  and  C17_17
REMARK   14  A    between atoms: C17_17  and  C18_18
ROOT
HETATM    1  C11 UNL     1       4.743  10.035   1.604  1.00  0.00     0.000 C
ENDROOT
BRANCH   1   2
HETATM    2  C10 UNL     1       3.553   9.123   1.434  1.00  0.00     0.000 C
BRANCH   2   3
HETATM    3  C9  UNL     1       2.609   9.593   0.375  1.00  0.00     0.000 C
BRANCH   3   4
HETATM    4  C8  UNL     1       1.275   8.901   0.481  1.00  0.00     0.000 C
BRANCH   4   5
HETATM    5  C7  UNL     1       0.997   8.398   1.862  1.00  0.00     0.000 C
BRANCH   5   6
HETATM    6  C6  UNL     1      -0.026   9.226   2.594  1.00  0.00     0.005 C
BRANCH   6   7
HETATM    7  C5  UNL     1       0.420   9.564   3.997  1.00  0.00     0.038 C
BRANCH   7   8
HETATM    8  C4  UNL     1       1.395  10.661   3.910  1.00  0.00    -0.058 A
HETATM    9  C3  UNL     1       2.521  10.656   4.691  1.00  0.00     0.007 A
HETATM   10  C2  UNL     1       3.462  11.680   4.632  1.00  0.00     0.001 A
HETATM   11  C1  UNL     1       3.253  12.719   3.767  1.00  0.00     0.000 A
HETATM   12  C23 UNL     1       2.120  12.735   2.973  1.00  0.00     0.001 A
HETATM   13  C22 UNL     1       1.190  11.704   3.045  1.00  0.00     0.007 A
ENDBRANCH   7   8
ENDBRANCH   6   7
ENDBRANCH   5   6
ENDBRANCH   4   5
ENDBRANCH   3   4
ENDBRANCH   2   3
ENDBRANCH   1   2
BRANCH   1  14
HETATM   14  C12 UNL     1       4.710  11.092   0.550  1.00  0.00     0.000 C
BRANCH  14  15
HETATM   15  C13 UNL     1       6.012  11.261  -0.201  1.00  0.00     0.000 C
BRANCH  15  16
HETATM   16  C14 UNL     1       6.048  10.176  -1.254  1.00  0.00     0.000 C
BRANCH  16  17
HETATM   17  C15 UNL     1       7.251   9.273  -1.103  1.00  0.00     0.000 C
BRANCH  17  18
HETATM   18  C16 UNL     1       6.707   7.868  -0.941  1.00  0.00     0.002 C
BRANCH  18  19
HETATM   19  C17 UNL     1       5.314   7.733  -1.502  1.00  0.00     0.033 C
BRANCH  19  20
HETATM   20  C18 UNL     1       4.906   6.298  -1.518  1.00  0.00     0.186 C
HETATM   21  C19 UNL     1       3.642   6.019  -2.248  1.00  0.00     0.034 C
HETATM   22  C20 UNL     1       2.785   5.276  -1.223  1.00  0.00     0.029 C
HETATM   23  C21 UNL     1       3.339   5.875   0.074  1.00  0.00     0.233 C
HETATM   24  N1  UNL     1       4.761   5.784  -0.167  1.00  0.00    -0.071 N
ATOM     25  H12 UNL     1       5.157   4.855  -0.022  1.00  0.00     0.277 HD
ATOM     26  H11 UNL     1       5.340   6.255   0.529  1.00  0.00     0.277 HD
ENDBRANCH  19  20
ENDBRANCH  18  19
ENDBRANCH  17  18
ENDBRANCH  16  17
ENDBRANCH  15  16
ENDBRANCH  14  15
ENDBRANCH   1  14
TORSDOF 14
ENDMDL