MODEL 1
REMARK VINA RESULT: -6.565687682      0.000      0.000
REMARK  14 active torsions:
REMARK  status: ('A' for Active; 'I' for Inactive)
REMARK    1  A    between atoms: N1_1  and  C1_5
REMARK    2  A    between atoms: C1_5  and  C2_6
REMARK    3  A    between atoms: C2_6  and  C3_7
REMARK    4  A    between atoms: C3_7  and  C4_8
REMARK    5  A    between atoms: C4_8  and  C5_9
REMARK    6  A    between atoms: C5_9  and  C6_10
REMARK    7  A    between atoms: C6_10  and  C7_11
REMARK    8  A    between atoms: C7_11  and  C8_12
REMARK    9  A    between atoms: C8_12  and  C9_13
REMARK   10  A    between atoms: C9_13  and  C10_14
REMARK   11  A    between atoms: C10_14  and  C11_15
REMARK   12  A    between atoms: C11_15  and  C12_16
REMARK   13  A    between atoms: C12_16  and  C13_17
REMARK   14  A    between atoms: C13_17  and  C14_18
ROOT
HETATM    1  C10 UNL     1       5.465   6.109  -1.576  1.00  0.00     0.000 C
ENDROOT
BRANCH   1   2
HETATM    2  C9  UNL     1       4.055   6.107  -1.950  1.00  0.00     0.000 C
BRANCH   2   3
HETATM    3  C8  UNL     1       2.943   6.086  -1.002  1.00  0.00     0.000 C
BRANCH   3   4
HETATM    4  C7  UNL     1       3.164   6.165   0.449  1.00  0.00     0.000 C
BRANCH   4   5
HETATM    5  C6  UNL     1       2.450   7.379   1.029  1.00  0.00     0.000 C
BRANCH   5   6
HETATM    6  C5  UNL     1       1.657   8.146   0.009  1.00  0.00     0.000 C
BRANCH   6   7
HETATM    7  C4  UNL     1       0.720   9.124   0.726  1.00  0.00     0.000 C
BRANCH   7   8
HETATM    8  C3  UNL     1       0.964   8.967   2.220  1.00  0.00     0.002 C
BRANCH   8   9
HETATM    9  C2  UNL     1       0.028   9.875   2.958  1.00  0.00     0.027 C
BRANCH   9  10
HETATM   10  C1  UNL     1       0.321   9.984   4.420  1.00  0.00     0.229 C
BRANCH  10  11
HETATM   11  N1  UNL     1       0.019  11.363   4.817  1.00  0.00    -0.079 N
ATOM     12  H13 UNL     1       0.335  11.587   5.760  1.00  0.00     0.274 HD
ATOM     13  H12 UNL     1       0.583  12.055   4.323  1.00  0.00     0.274 HD
ATOM     14  H11 UNL     1      -0.984  11.498   4.688  1.00  0.00     0.274 HD
ENDBRANCH  10  11
ENDBRANCH   9  10
ENDBRANCH   8   9
ENDBRANCH   7   8
ENDBRANCH   6   7
ENDBRANCH   5   6
ENDBRANCH   4   5
ENDBRANCH   3   4
ENDBRANCH   2   3
ENDBRANCH   1   2
BRANCH   1  15
HETATM   15  C11 UNL     1       6.320   7.108  -2.251  1.00  0.00     0.000 C
BRANCH  15  16
HETATM   16  C12 UNL     1       6.219   8.448  -1.515  1.00  0.00     0.005 C
BRANCH  16  17
HETATM   17  C13 UNL     1       6.521   8.361  -0.062  1.00  0.00     0.038 C
BRANCH  17  18
HETATM   18  C14 UNL     1       5.614   9.313   0.682  1.00  0.00    -0.057 A
HETATM   19  C15 UNL     1       5.612   9.388   2.054  1.00  0.00     0.008 A
HETATM   20  C16 UNL     1       4.752  10.286   2.692  1.00  0.00     0.013 A
HETATM   21  C17 UNL     1       3.914  11.091   1.960  1.00  0.00    -0.026 A
HETATM   22  C18 UNL     1       3.062  11.982   2.576  1.00  0.00     0.012 A
HETATM   23  C22 UNL     1       3.906  11.029   0.592  1.00  0.00    -0.025 A
HETATM   24  C19 UNL     1       2.212  12.800   1.831  1.00  0.00     0.001 A
HETATM   25  C20 UNL     1       2.231  12.709   0.454  1.00  0.00     0.001 A
HETATM   26  C21 UNL     1       3.078  11.822  -0.181  1.00  0.00     0.012 A
HETATM   27  C23 UNL     1       4.768  10.127  -0.036  1.00  0.00     0.019 A
ENDBRANCH  17  18
ENDBRANCH  16  17
ENDBRANCH  15  16
ENDBRANCH   1  15
TORSDOF 14
ENDMDL