MODEL 3
REMARK VINA RESULT: -7.240874138      4.120      6.665
REMARK  3 active torsions:
REMARK  status: ('A' for Active; 'I' for Inactive)
REMARK    1  A    between atoms: N1_1  and  N2_4
REMARK       I    between atoms: N2_4  and  C1_6
REMARK    2  A    between atoms: C1_6  and  C2_8
REMARK    3  A    between atoms: C3_9  and  C4_10
REMARK       I    between atoms: C4_10  and  N3_12
ROOT
HETATM    1  C2  UNL     1      18.463  67.895  33.739  1.00  0.00     0.176 A
HETATM    2  C3  UNL     1      17.228  68.297  33.281  1.00  0.00     0.152 A
HETATM    3  N6  UNL     1      17.261  68.032  31.929  1.00  0.00    -0.182 N
ATOM      4  H6  UNL     1      16.487  68.219  31.291  1.00  0.00     0.184 HD
HETATM    5  C6  UNL     1      18.422  67.504  31.557  1.00  0.00     0.709 A
HETATM    6  N7  UNL     1      19.134  67.020  30.498  1.00  0.00    -0.138 N
ATOM      7  H7  UNL     1      18.820  66.964  29.529  1.00  0.00     0.189 HD
HETATM    8  C7  UNL     1      20.316  66.636  30.972  1.00  0.00     0.354 A
HETATM    9  O3  UNL     1      21.282  66.128  30.338  1.00  0.00    -0.245 OA
HETATM   10  N8  UNL     1      20.320  66.890  32.327  1.00  0.00    -0.229 N
ATOM     11  H8  UNL     1      21.095  66.699  32.964  1.00  0.00     0.193 HD
HETATM   12  N9  UNL     1      19.170  67.415  32.664  1.00  0.00    -0.074 N
ENDROOT
BRANCH   1  13
HETATM   13  C1  UNL     1      18.922  67.901  35.116  1.00  0.00     0.291 C
HETATM   14  N2  UNL     1      20.034  68.721  35.486  1.00  0.00    -0.271 N
ATOM     15  H2  UNL     1      20.502  69.302  34.790  1.00  0.00     0.189 HD
HETATM   16  O1  UNL     1      18.355  67.204  35.973  1.00  0.00    -0.264 OA
BRANCH  14  17
HETATM   17  N1  UNL     1      20.476  68.715  36.826  1.00  0.00    -0.342 N
ATOM     18  H12 UNL     1      20.189  69.468  37.451  1.00  0.00     0.176 HD
ATOM     19  H11 UNL     1      21.078  67.957  37.147  1.00  0.00     0.176 HD
ENDBRANCH  14  17
ENDBRANCH   1  13
BRANCH   2  20
HETATM   20  C4  UNL     1      16.077  68.892  33.943  1.00  0.00     0.277 C
HETATM   21  O2  UNL     1      15.494  68.337  34.876  1.00  0.00    -0.266 OA
HETATM   22  N3  UNL     1      15.644  70.182  33.449  1.00  0.00    -0.298 N
HETATM   23  C5  UNL     1      14.436  70.338  33.048  1.00  0.00     0.203 C
ATOM     24  H3  UNL     1      16.298  70.964  33.420  1.00  0.00     0.171 HD
HETATM   25  N4  UNL     1      13.542  69.236  33.097  1.00  0.00    -0.066 NA
HETATM   26  N5  UNL     1      14.043  71.600  32.574  1.00  0.00    -0.066 NA
ENDBRANCH   2  20
TORSDOF 3
ENDMDL