MODEL 1
REMARK VINA RESULT: -7.091284047      0.000      0.000
REMARK  3 active torsions:
REMARK  status: ('A' for Active; 'I' for Inactive)
REMARK    1  A    between atoms: C1_2  and  C2_4
REMARK    2  A    between atoms: C2_4  and  N2_5
REMARK    3  A    between atoms: C2_4  and  N3_9
ROOT
HETATM    1  N3  UNL     1      15.265  67.393  36.561  1.00  0.00    -0.337 N
ATOM      2  H3  UNL     1      15.274  68.122  35.848  1.00  0.00     0.163 HD
HETATM    3  C3  UNL     1      16.382  66.844  36.737  1.00  0.00     0.170 C
HETATM    4  N4  UNL     1      17.522  67.273  35.953  1.00  0.00    -0.339 N
ATOM      5  H4  UNL     1      17.382  67.701  35.039  1.00  0.00     0.163 HD
HETATM    6  C4  UNL     1      18.849  67.091  36.469  1.00  0.00     0.279 C
HETATM    7  C5  UNL     1      19.145  68.101  37.514  1.00  0.00     0.284 C
HETATM    8  O2  UNL     1      18.879  67.999  38.752  1.00  0.00    -0.268 OA
HETATM    9  N5  UNL     1      19.776  69.190  36.865  1.00  0.00    -0.264 N
ATOM     10  H5  UNL     1      19.889  70.123  37.260  1.00  0.00     0.190 HD
HETATM   11  N6  UNL     1      20.218  68.791  35.605  1.00  0.00    -0.264 N
ATOM     12  H6  UNL     1      20.705  69.373  34.923  1.00  0.00     0.190 HD
HETATM   13  C6  UNL     1      19.866  67.424  35.447  1.00  0.00     0.284 C
HETATM   14  O3  UNL     1      20.331  66.654  34.598  1.00  0.00    -0.268 OA
HETATM   15  C7  UNL     1      18.986  65.727  36.991  1.00  0.00     0.272 C
HETATM   16  O4  UNL     1      19.975  64.988  36.761  1.00  0.00    -0.269 OA
HETATM   17  N7  UNL     1      17.908  65.243  37.808  1.00  0.00    -0.288 N
ATOM     18  H7  UNL     1      18.087  64.496  38.479  1.00  0.00     0.172 HD
HETATM   19  C8  UNL     1      16.596  65.782  37.702  1.00  0.00     0.291 C
HETATM   20  O5  UNL     1      15.658  65.360  38.416  1.00  0.00    -0.264 OA
ENDROOT
BRANCH   1  21
HETATM   21  C2  UNL     1      14.001  67.198  37.155  1.00  0.00     0.373 C
BRANCH  21  22
HETATM   22  C1  UNL     1      13.105  68.295  36.644  1.00  0.00     0.281 C
HETATM   23  N1  UNL     1      13.254  68.781  35.316  1.00  0.00    -0.059 NA
HETATM   24  O1  UNL     1      12.243  68.754  37.416  1.00  0.00    -0.273 OA
ENDBRANCH  21  22
BRANCH  21  25
HETATM   25  N2  UNL     1      13.390  65.922  36.872  1.00  0.00    -0.050 N
ATOM     26  H23 UNL     1      12.492  66.019  36.397  1.00  0.00     0.277 HD
ATOM     27  H22 UNL     1      13.883  65.408  36.142  1.00  0.00     0.277 HD
ATOM     28  H21 UNL     1      13.315  65.390  37.738  1.00  0.00     0.277 HD
ENDBRANCH  21  25
ENDBRANCH   1  21
TORSDOF 3
ENDMDL