MODEL 3
REMARK VINA RESULT: -5.670154402      1.675      3.804
REMARK  5 active torsions:
REMARK  status: ('A' for Active; 'I' for Inactive)
REMARK    1  A    between atoms: N1_1  and  C1_4
REMARK    2  A    between atoms: C2_7  and  S1_8
REMARK    3  A    between atoms: S1_8  and  N3_9
REMARK    4  A    between atoms: C3_14  and  S2_15
REMARK    5  A    between atoms: S2_15  and  N4_16
ROOT
HETATM    1  C1  UNL     1      14.970  67.239  36.316  1.00  0.00     0.679 A
HETATM    2  N2  UNL     1      15.934  66.798  37.127  1.00  0.00    -0.178 N
ATOM      3  H2  UNL     1      15.660  66.369  38.011  1.00  0.00     0.185 HD
HETATM    4  C2  UNL     1      17.270  66.889  36.836  1.00  0.00     0.193 A
HETATM    5  C3  UNL     1      17.614  67.463  35.653  1.00  0.00     0.188 A
HETATM    6  C4  UNL     1      16.603  67.927  34.802  1.00  0.00     0.286 A
HETATM    7  O5  UNL     1      16.914  68.458  33.707  1.00  0.00    -0.266 OA
HETATM    8  N5  UNL     1      15.319  67.807  35.147  1.00  0.00    -0.155 N
ATOM      9  H5  UNL     1      14.593  68.150  34.517  1.00  0.00     0.187 HD
ENDROOT
BRANCH   4  10
HETATM   10  S1  UNL     1      18.475  66.306  37.929  1.00  0.00     0.274 S
HETATM   11  O1  UNL     1      17.967  65.776  39.214  1.00  0.00    -0.199 OA
HETATM   12  O2  UNL     1      19.087  65.071  37.235  1.00  0.00    -0.199 OA
BRANCH  10  13
HETATM   13  N3  UNL     1      19.834  67.374  38.095  1.00  0.00    -0.323 N
ATOM     14  H32 UNL     1      20.787  67.032  38.217  1.00  0.00     0.169 HD
ATOM     15  H31 UNL     1      19.582  68.363  38.060  1.00  0.00     0.169 HD
ENDBRANCH  10  13
ENDBRANCH   4  10
BRANCH   5  16
HETATM   16  S2  UNL     1      19.236  67.641  35.143  1.00  0.00     0.265 S
HETATM   17  O3  UNL     1      19.804  68.909  35.754  1.00  0.00    -0.200 OA
HETATM   18  O4  UNL     1      20.151  66.507  35.314  1.00  0.00    -0.200 OA
BRANCH  16  19
HETATM   19  N4  UNL     1      19.201  67.948  33.415  1.00  0.00    -0.324 N
ATOM     20  H42 UNL     1      18.408  68.319  32.892  1.00  0.00     0.169 HD
ATOM     21  H41 UNL     1      20.115  67.685  33.046  1.00  0.00     0.169 HD
ENDBRANCH  16  19
ENDBRANCH   5  16
BRANCH   1  22
HETATM   22  N1  UNL     1      13.716  67.143  36.613  1.00  0.00    -0.234 N
ATOM     23  H12 UNL     1      13.023  67.385  35.906  1.00  0.00     0.174 HD
ATOM     24  H11 UNL     1      13.394  66.836  37.531  1.00  0.00     0.174 HD
ENDBRANCH   1  22
TORSDOF 5
ENDMDL