MODEL 2
REMARK VINA RESULT: -6.928872933      0.600      1.029
REMARK  5 active torsions:
REMARK  status: ('A' for Active; 'I' for Inactive)
REMARK    1  A    between atoms: N1_1  and  N2_4
REMARK    2  A    between atoms: N2_4  and  C1_6
REMARK    3  A    between atoms: C2_9  and  C3_10
REMARK       I    between atoms: C3_10  and  N4_12
REMARK    4  A    between atoms: N4_12  and  C4_14
REMARK    5  A    between atoms: C5_21  and  C6_22
ROOT
HETATM    1  C1  UNL     1      19.040  67.759  35.203  1.00  0.00     0.190 A
HETATM    2  N3  UNL     1      18.695  68.091  33.938  1.00  0.00    -0.330 N
ATOM      3  H3  UNL     1      19.428  68.330  33.271  1.00  0.00     0.168 HD
HETATM    4  C2  UNL     1      17.381  68.117  33.526  1.00  0.00     0.135 A
HETATM    5  C5  UNL     1      16.388  67.801  34.392  1.00  0.00     0.133 A
HETATM    6  N10 UNL     1      16.791  67.472  35.666  1.00  0.00    -0.314 N
ATOM      7  H10 UNL     1      16.062  67.232  36.338  1.00  0.00     0.169 HD
HETATM    8  C7  UNL     1      18.042  67.439  36.092  1.00  0.00     0.291 A
HETATM    9  O3  UNL     1      18.354  67.124  37.286  1.00  0.00    -0.264 OA
ENDROOT
BRANCH   4  10
HETATM   10  C3  UNL     1      17.180  68.536  32.164  1.00  0.00     0.289 C
HETATM   11  O1  UNL     1      16.994  67.805  31.189  1.00  0.00    -0.265 OA
HETATM   12  N4  UNL     1      17.181  69.949  31.825  1.00  0.00    -0.152 N
ATOM     13  H4  UNL     1      18.053  70.416  31.572  1.00  0.00     0.187 HD
BRANCH  12  14
HETATM   14  C4  UNL     1      16.075  70.610  31.847  1.00  0.00     0.710 A
HETATM   15  N5  UNL     1      15.323  71.002  30.810  1.00  0.00    -0.117 N
HETATM   16  N6  UNL     1      14.253  71.664  31.270  1.00  0.00     0.006 NA
ATOM     17  H5  UNL     1      15.532  70.825  29.828  1.00  0.00     0.202 HD
HETATM   18  N7  UNL     1      14.342  71.683  32.603  1.00  0.00     0.006 NA
HETATM   19  N8  UNL     1      15.457  71.036  32.949  1.00  0.00    -0.117 N
ATOM     20  H8  UNL     1      15.785  70.892  33.904  1.00  0.00     0.202 HD
ENDBRANCH  12  14
ENDBRANCH   4  10
BRANCH   5  21
HETATM   21  C6  UNL     1      14.986  67.715  34.063  1.00  0.00     0.284 C
HETATM   22  N9  UNL     1      14.138  68.777  34.632  1.00  0.00    -0.056 NA
HETATM   23  O2  UNL     1      14.402  66.874  33.370  1.00  0.00    -0.269 OA
ENDBRANCH   5  21
BRANCH   1  24
HETATM   24  N2  UNL     1      20.268  67.742  35.578  1.00  0.00    -0.287 N
ATOM     25  H2  UNL     1      20.864  66.991  35.231  1.00  0.00     0.188 HD
BRANCH  24  26
HETATM   26  N1  UNL     1      20.825  68.674  36.416  1.00  0.00    -0.343 N
ATOM     27  H12 UNL     1      20.530  68.654  37.392  1.00  0.00     0.176 HD
ATOM     28  H11 UNL     1      21.506  69.373  36.119  1.00  0.00     0.176 HD
ENDBRANCH  24  26
ENDBRANCH   1  24
TORSDOF 5
ENDMDL