MODEL 5
REMARK VINA RESULT: -6.127346023      6.520      8.283
REMARK  6 active torsions:
REMARK  status: ('A' for Active; 'I' for Inactive)
REMARK    1  A    between atoms: N1_1  and  C1_4
REMARK    2  A    between atoms: C2_7  and  N3_8
REMARK    3  A    between atoms: N3_8  and  N4_10
REMARK    4  A    between atoms: N6_18  and  S1_20
REMARK    5  A    between atoms: S1_20  and  C5_23
REMARK    6  A    between atoms: C5_23  and  N7_24
ROOT
HETATM    1  C1  UNL     1      13.886  64.880  39.123  1.00  0.00     0.692 C
HETATM    2  N2  UNL     1      14.106  63.688  39.736  1.00  0.00    -0.021 N
ATOM      3  H2  UNL     1      13.271  63.159  39.988  1.00  0.00     0.203 HD
HETATM    4  C2  UNL     1      15.282  63.113  40.055  1.00  0.00     0.713 C
HETATM    5  N5  UNL     1      16.516  63.683  40.009  1.00  0.00    -0.151 N
ATOM      6  H5  UNL     1      17.276  63.129  40.405  1.00  0.00     0.188 HD
HETATM    7  C3  UNL     1      16.869  64.902  39.501  1.00  0.00     0.305 C
HETATM    8  O1  UNL     1      17.938  65.413  39.907  1.00  0.00    -0.263 OA
HETATM    9  C4  UNL     1      16.167  65.638  38.582  1.00  0.00     0.199 C
HETATM   10  N6  UNL     1      16.769  66.253  37.679  1.00  0.00    -0.263 N
ATOM     11  H6  UNL     1      16.122  66.755  37.073  1.00  0.00     0.180 HD
HETATM   12  N8  UNL     1      14.785  65.733  38.589  1.00  0.00    -0.170 N
ATOM     13  H8  UNL     1      14.395  66.557  38.129  1.00  0.00     0.186 HD
ENDROOT
BRANCH  10  14
HETATM   14  S1  UNL     1      18.350  66.470  37.200  1.00  0.00     0.256 S
HETATM   15  O2  UNL     1      19.157  65.184  37.105  1.00  0.00    -0.204 OA
HETATM   16  O3  UNL     1      18.436  67.048  35.770  1.00  0.00    -0.204 OA
BRANCH  14  17
HETATM   17  C5  UNL     1      19.235  67.642  38.199  1.00  0.00     0.392 C
BRANCH  17  18
HETATM   18  N7  UNL     1      20.234  68.349  37.472  1.00  0.00    -0.065 N
ATOM     19  H73 UNL     1      21.094  68.427  38.015  1.00  0.00     0.275 HD
ATOM     20  H72 UNL     1      20.580  67.792  36.691  1.00  0.00     0.275 HD
ATOM     21  H71 UNL     1      19.920  69.266  37.154  1.00  0.00     0.275 HD
ENDBRANCH  17  18
ENDBRANCH  14  17
ENDBRANCH  10  14
BRANCH   1  22
HETATM   22  N1  UNL     1      12.672  65.280  39.020  1.00  0.00    -0.234 N
ATOM     23  H12 UNL     1      12.060  64.924  39.755  1.00  0.00     0.174 HD
ATOM     24  H11 UNL     1      12.442  65.895  38.241  1.00  0.00     0.174 HD
ENDBRANCH   1  22
BRANCH   4  25
HETATM   25  N3  UNL     1      15.266  61.896  40.448  1.00  0.00    -0.138 N
ATOM     26  H3  UNL     1      15.588  61.181  39.795  1.00  0.00     0.205 HD
BRANCH  25  27
HETATM   27  N4  UNL     1      14.841  61.484  41.701  1.00  0.00    -0.331 N
ATOM     28  H42 UNL     1      14.319  62.163  42.255  1.00  0.00     0.177 HD
ATOM     29  H41 UNL     1      15.017  60.560  42.094  1.00  0.00     0.177 HD
ENDBRANCH  25  27
ENDBRANCH   4  25
TORSDOF 6
ENDMDL