MODEL 5
REMARK VINA RESULT: -6.702081374      2.289      5.960
REMARK  5 active torsions:
REMARK  status: ('A' for Active; 'I' for Inactive)
REMARK    1  A    between atoms: N2_3  and  C2_5
REMARK    2  A    between atoms: C6_12  and  C7_13
REMARK       I    between atoms: C7_13  and  N5_15
REMARK       I    between atoms: C8_17  and  N7_19
REMARK    3  A    between atoms: N7_19  and  N8_21
REMARK    4  A    between atoms: N8_21  and  N9_22
REMARK    5  A    between atoms: N8_21  and  O2_25
ROOT
HETATM    1  N1  UNL     1      16.206  71.265  28.948  1.00  0.00    -0.172 NA
HETATM    2  C1  UNL     1      16.309  70.719  29.942  1.00  0.00     0.182 C
HETATM    3  N2  UNL     1      16.457  70.045  31.159  1.00  0.00    -0.293 N
ATOM      4  H2  UNL     1      17.355  69.616  31.386  1.00  0.00     0.178 HD
ENDROOT
BRANCH   3   5
HETATM    5  C2  UNL     1      15.491  69.956  31.995  1.00  0.00     0.062 A
HETATM    6  C3  UNL     1      14.541  70.927  32.132  1.00  0.00     0.048 A
HETATM    7  C4  UNL     1      13.540  70.749  33.053  1.00  0.00     0.091 A
HETATM    8  N3  UNL     1      13.448  69.666  33.829  1.00  0.00    -0.354 N
HETATM    9  C5  UNL     1      14.383  68.691  33.707  1.00  0.00     0.134 A
ATOM     10  H3  UNL     1      12.687  69.573  34.502  1.00  0.00     0.166 HD
HETATM   11  N4  UNL     1      14.342  67.524  34.496  1.00  0.00    -0.082 NA
HETATM   12  C6  UNL     1      15.410  68.824  32.794  1.00  0.00     0.100 A
BRANCH  12  13
HETATM   13  C7  UNL     1      16.428  67.796  32.639  1.00  0.00     0.263 C
HETATM   14  O1  UNL     1      16.320  66.993  31.682  1.00  0.00    -0.267 OA
HETATM   15  N5  UNL     1      17.525  67.666  33.519  1.00  0.00    -0.296 N
HETATM   16  C8  UNL     1      18.710  67.759  33.040  1.00  0.00     0.208 C
ATOM     17  H5  UNL     1      17.378  67.501  34.514  1.00  0.00     0.171 HD
HETATM   18  N6  UNL     1      18.899  67.989  31.656  1.00  0.00    -0.062 NA
HETATM   19  N7  UNL     1      19.859  67.640  33.863  1.00  0.00    -0.251 N
ATOM     20  H7  UNL     1      20.781  67.487  33.454  1.00  0.00     0.187 HD
BRANCH  19  21
HETATM   21  N8  UNL     1      19.697  67.736  35.238  1.00  0.00    -0.009 NA
BRANCH  21  22
HETATM   22  N9  UNL     1      20.495  68.732  35.810  1.00  0.00    -0.322 NA
ATOM     23  H92 UNL     1      20.663  69.442  35.097  1.00  0.00     0.175 HD
ATOM     24  H91 UNL     1      20.044  69.197  36.598  1.00  0.00     0.175 HD
ENDBRANCH  21  22
BRANCH  21  25
HETATM   25  O2  UNL     1      20.080  66.541  35.774  1.00  0.00    -0.276 OA
ATOM     26  H2  UNL     1      19.410  66.285  36.397  1.00  0.00     0.241 HD
ENDBRANCH  21  25
ENDBRANCH  19  21
ENDBRANCH  12  13
ENDBRANCH   3   5
TORSDOF 5
ENDMDL