MODEL 5
REMARK VINA RESULT: -6.876682596      3.104      6.481
REMARK  4 active torsions:
REMARK  status: ('A' for Active; 'I' for Inactive)
REMARK    1  A    between atoms: N1_1  and  N2_4
REMARK       I    between atoms: N2_4  and  C1_6
REMARK    2  A    between atoms: C1_6  and  C2_8
REMARK    3  A    between atoms: C2_8  and  N3_9
REMARK    4  A    between atoms: C2_8  and  C3_13
ROOT
HETATM    1  C3  UNL     1      16.837  68.372  33.909  1.00  0.00     0.126 A
HETATM    2  N4  UNL     1      16.004  67.960  34.900  1.00  0.00    -0.329 N
ATOM      3  H4  UNL     1      15.001  68.131  34.824  1.00  0.00     0.168 HD
HETATM    4  C4  UNL     1      16.495  67.328  35.982  1.00  0.00     0.132 A
HETATM    5  N5  UNL     1      15.703  66.901  36.992  1.00  0.00    -0.293 N
ATOM      6  H5  UNL     1      14.696  67.060  36.943  1.00  0.00     0.172 HD
HETATM    7  C5  UNL     1      16.226  66.270  38.061  1.00  0.00     0.328 A
HETATM    8  O2  UNL     1      15.455  65.885  38.985  1.00  0.00    -0.247 OA
HETATM    9  N6  UNL     1      17.553  66.038  38.171  1.00  0.00    -0.275 N
ATOM     10  H6  UNL     1      17.939  65.559  38.985  1.00  0.00     0.173 HD
HETATM   11  C6  UNL     1      18.347  66.460  37.170  1.00  0.00     0.269 A
HETATM   12  O3  UNL     1      19.602  66.265  37.227  1.00  0.00    -0.267 OA
HETATM   13  C7  UNL     1      17.856  67.110  36.056  1.00  0.00     0.144 A
HETATM   14  C8  UNL     1      18.710  67.536  35.032  1.00  0.00     0.266 A
HETATM   15  O4  UNL     1      19.921  67.307  35.165  1.00  0.00    -0.267 OA
HETATM   16  N7  UNL     1      18.160  68.160  33.982  1.00  0.00    -0.310 N
ATOM     17  H7  UNL     1      18.759  68.480  33.221  1.00  0.00     0.170 HD
ENDROOT
BRANCH   1  18
HETATM   18  C2  UNL     1      16.304  69.069  32.714  1.00  0.00     0.343 C
BRANCH  18  19
HETATM   19  C1  UNL     1      15.284  70.070  33.056  1.00  0.00     0.273 C
HETATM   20  N2  UNL     1      13.921  69.712  33.083  1.00  0.00    -0.275 N
ATOM     21  H2  UNL     1      13.667  68.750  32.860  1.00  0.00     0.189 HD
HETATM   22  O1  UNL     1      15.618  71.239  33.325  1.00  0.00    -0.269 OA
BRANCH  20  23
HETATM   23  N1  UNL     1      12.898  70.613  33.400  1.00  0.00    -0.343 N
ATOM     24  H12 UNL     1      12.654  71.310  32.698  1.00  0.00     0.176 HD
ATOM     25  H11 UNL     1      12.398  70.599  34.289  1.00  0.00     0.176 HD
ENDBRANCH  20  23
ENDBRANCH  18  19
BRANCH  18  26
HETATM   26  N3  UNL     1      17.443  69.649  32.032  1.00  0.00    -0.059 N
ATOM     27  H33 UNL     1      17.480  70.659  32.173  1.00  0.00     0.275 HD
ATOM     28  H32 UNL     1      18.317  69.387  32.490  1.00  0.00     0.275 HD
ATOM     29  H31 UNL     1      17.466  69.416  31.039  1.00  0.00     0.275 HD
ENDBRANCH  18  26
ENDBRANCH   1  18
TORSDOF 4
ENDMDL