MODEL 3
REMARK VINA RESULT: -7.777360057      2.459      2.986
REMARK  4 active torsions:
REMARK  status: ('A' for Active; 'I' for Inactive)
REMARK    1  A    between atoms: N1_1  and  C1_4
REMARK    2  A    between atoms: C2_7  and  C3_8
REMARK       I    between atoms: C3_8  and  N3_10
REMARK    3  A    between atoms: N3_10  and  N4_12
REMARK    4  A    between atoms: N4_12  and  C4_14
ROOT
HETATM    1  C3  UNL     1      19.245  67.547  32.147  1.00  0.00     0.287 C
HETATM    2  O1  UNL     1      20.132  66.773  31.707  1.00  0.00    -0.264 OA
HETATM    3  N3  UNL     1      19.203  67.781  33.531  1.00  0.00    -0.250 N
ATOM      4  H3  UNL     1      18.484  68.409  33.891  1.00  0.00     0.191 HD
ENDROOT
BRANCH   1   5
HETATM    5  C2  UNL     1      18.308  68.164  31.234  1.00  0.00     0.109 C
HETATM    6  N2  UNL     1      17.835  69.394  31.618  1.00  0.00    -0.334 N
HETATM    7  C1  UNL     1      16.672  69.952  31.222  1.00  0.00     0.169 C
ATOM      8  H2  UNL     1      18.415  69.934  32.261  1.00  0.00     0.168 HD
HETATM    9  C7  UNL     1      15.718  69.468  30.318  1.00  0.00     0.291 C
HETATM   10  N9  UNL     1      15.789  68.422  29.486  1.00  0.00    -0.287 N
HETATM   11  O3  UNL     1      14.628  70.108  30.275  1.00  0.00    -0.264 OA
HETATM   12  C6  UNL     1      16.787  67.526  29.376  1.00  0.00     0.250 C
ATOM     13  H9  UNL     1      14.993  68.288  28.862  1.00  0.00     0.172 HD
HETATM   14  C5  UNL     1      17.954  67.513  30.073  1.00  0.00     0.109 C
HETATM   15  O2  UNL     1      16.569  66.625  28.527  1.00  0.00    -0.268 OA
BRANCH   7  16
HETATM   16  N1  UNL     1      16.371  71.105  31.742  1.00  0.00    -0.381 N
ATOM     17  H12 UNL     1      16.939  71.356  32.552  1.00  0.00     0.157 HD
ATOM     18  H11 UNL     1      15.617  71.626  31.295  1.00  0.00     0.157 HD
ENDBRANCH   7  16
ENDBRANCH   1   5
BRANCH   3  19
HETATM   19  N4  UNL     1      20.088  67.205  34.441  1.00  0.00    -0.127 N
ATOM     20  H4  UNL     1      20.720  66.458  34.150  1.00  0.00     0.206 HD
BRANCH  19  21
HETATM   21  C4  UNL     1      20.091  67.632  35.652  1.00  0.00     0.728 A
HETATM   22  N5  UNL     1      19.707  66.980  36.750  1.00  0.00    -0.114 N
HETATM   23  N6  UNL     1      19.862  67.765  37.812  1.00  0.00    -0.213 N
ATOM     24  H5  UNL     1      19.349  66.025  36.772  1.00  0.00     0.207 HD
HETATM   25  N7  UNL     1      20.345  68.908  37.369  1.00  0.00    -0.213 N
ATOM     26  H6  UNL     1      19.649  67.528  38.781  1.00  0.00     0.210 HD
HETATM   27  N8  UNL     1      20.494  68.849  36.046  1.00  0.00    -0.114 N
ATOM     28  H7  UNL     1      20.572  69.715  37.950  1.00  0.00     0.210 HD
ATOM     29  H8  UNL     1      20.849  69.593  35.444  1.00  0.00     0.207 HD
ENDBRANCH  19  21
ENDBRANCH   3  19
TORSDOF 4
ENDMDL