MODEL 2
REMARK VINA RESULT: -7.101821195      0.080      1.898
REMARK  3 active torsions:
REMARK  status: ('A' for Active; 'I' for Inactive)
REMARK       I    between atoms: C1_4  and  N3_6
REMARK    1  A    between atoms: N3_6  and  N4_8
REMARK    2  A    between atoms: N4_8  and  S1_10
REMARK    3  A    between atoms: S1_10  and  N5_13
ROOT
HETATM    1  S1  UNL     1      19.170  67.588  35.390  1.00  0.00     0.350 S
HETATM    2  O1  UNL     1      20.129  66.429  35.410  1.00  0.00    -0.180 OA
HETATM    3  O2  UNL     1      19.775  68.723  36.133  1.00  0.00    -0.180 OA
ENDROOT
BRANCH   1   4
HETATM    4  N4  UNL     1      18.835  67.961  33.746  1.00  0.00    -0.207 N
ATOM      5  H4  UNL     1      17.976  68.375  33.386  1.00  0.00     0.201 HD
BRANCH   4   6
HETATM    6  N3  UNL     1      19.956  67.595  32.990  1.00  0.00    -0.263 N
HETATM    7  C1  UNL     1      19.838  67.176  31.639  1.00  0.00     0.201 C
HETATM    8  N1  UNL     1      20.697  66.378  31.082  1.00  0.00    -0.372 N
HETATM    9  N2  UNL     1      18.762  67.624  30.842  1.00  0.00    -0.062 NA
ATOM     10  H12 UNL     1      20.613  66.077  30.111  1.00  0.00     0.158 HD
ATOM     11  H11 UNL     1      21.475  66.054  31.657  1.00  0.00     0.158 HD
ATOM     12  H3  UNL     1      20.879  67.630  33.421  1.00  0.00     0.190 HD
ENDBRANCH   4   6
ENDBRANCH   1   4
BRANCH   1  13
HETATM   13  N5  UNL     1      17.735  67.113  36.238  1.00  0.00    -0.120 N
HETATM   14  C2  UNL     1      16.502  67.434  35.773  1.00  0.00     0.349 A
HETATM   15  O3  UNL     1      16.456  68.087  34.706  1.00  0.00    -0.245 OA
HETATM   16  N6  UNL     1      15.380  67.088  36.395  1.00  0.00    -0.259 N
HETATM   17  C3  UNL     1      15.436  66.386  37.541  1.00  0.00     0.332 A
ATOM     18  H6  UNL     1      14.477  67.356  36.004  1.00  0.00     0.175 HD
HETATM   19  O4  UNL     1      14.377  66.062  38.126  1.00  0.00    -0.246 OA
HETATM   20  N7  UNL     1      16.660  66.049  38.035  1.00  0.00    -0.259 N
HETATM   21  C4  UNL     1      17.777  66.413  37.382  1.00  0.00     0.349 A
ATOM     22  H7  UNL     1      16.728  65.518  38.903  1.00  0.00     0.175 HD
HETATM   23  O5  UNL     1      18.884  66.083  37.871  1.00  0.00    -0.245 OA
ENDBRANCH   1  13
TORSDOF 3
ENDMDL