MODEL 4
REMARK VINA RESULT: -6.577822053      4.479      6.206
REMARK  4 active torsions:
REMARK  status: ('A' for Active; 'I' for Inactive)
REMARK    1  A    between atoms: N1_1  and  N2_4
REMARK       I    between atoms: N2_4  and  C1_6
REMARK    2  A    between atoms: C1_6  and  C2_8
REMARK       I    between atoms: C2_8  and  N3_10
REMARK    3  A    between atoms: N3_10  and  N4_12
REMARK    4  A    between atoms: N4_12  and  C3_14
ROOT
HETATM    1  C3  UNL     1      17.901  67.667  35.336  1.00  0.00     0.193 C
HETATM    2  N5  UNL     1      18.943  67.050  35.916  1.00  0.00    -0.289 N
ATOM      3  H5  UNL     1      19.864  67.444  35.720  1.00  0.00     0.172 HD
HETATM    4  C4  UNL     1      18.917  65.963  36.730  1.00  0.00     0.328 C
HETATM    5  O3  UNL     1      19.935  65.259  36.713  1.00  0.00    -0.247 OA
HETATM    6  N6  UNL     1      17.891  65.609  37.533  1.00  0.00    -0.285 N
ATOM      7  H6  UNL     1      18.105  64.900  38.235  1.00  0.00     0.173 HD
HETATM    8  C5  UNL     1      16.625  66.064  37.532  1.00  0.00     0.182 C
HETATM    9  S1  UNL     1      15.752  65.581  38.806  1.00  0.00    -0.040 SA
HETATM   10  N7  UNL     1      16.018  66.850  36.625  1.00  0.00    -0.297 N
ATOM     11  H7  UNL     1      15.012  66.964  36.753  1.00  0.00     0.171 HD
HETATM   12  C6  UNL     1      16.538  67.508  35.574  1.00  0.00     0.293 C
HETATM   13  O4  UNL     1      15.791  68.029  34.728  1.00  0.00    -0.264 OA
ENDROOT
BRANCH   1  14
HETATM   14  N4  UNL     1      18.156  68.531  34.434  1.00  0.00    -0.278 N
ATOM     15  H4  UNL     1      18.479  69.454  34.726  1.00  0.00     0.189 HD
BRANCH  14  16
HETATM   16  N3  UNL     1      18.018  68.282  33.078  1.00  0.00    -0.260 N
HETATM   17  C2  UNL     1      19.060  67.620  32.383  1.00  0.00     0.329 C
HETATM   18  O2  UNL     1      20.096  67.258  32.961  1.00  0.00    -0.261 OA
ATOM     19  H3  UNL     1      17.174  68.572  32.586  1.00  0.00     0.190 HD
BRANCH  17  20
HETATM   20  C1  UNL     1      18.901  67.367  30.963  1.00  0.00     0.329 C
HETATM   21  N2  UNL     1      19.769  66.460  30.325  1.00  0.00    -0.268 N
ATOM     22  H2  UNL     1      20.500  65.987  30.857  1.00  0.00     0.190 HD
HETATM   23  O1  UNL     1      18.013  67.930  30.279  1.00  0.00    -0.261 OA
BRANCH  21  24
HETATM   24  N1  UNL     1      19.621  66.213  28.964  1.00  0.00    -0.342 N
ATOM     25  H12 UNL     1      18.769  65.767  28.627  1.00  0.00     0.176 HD
ATOM     26  H11 UNL     1      20.367  66.482  28.323  1.00  0.00     0.176 HD
ENDBRANCH  21  24
ENDBRANCH  17  20
ENDBRANCH  14  16
ENDBRANCH   1  14
TORSDOF 4
ENDMDL