MODEL 3
REMARK VINA RESULT: -7.060684247      1.492      1.678
REMARK  5 active torsions:
REMARK  status: ('A' for Active; 'I' for Inactive)
REMARK    1  A    between atoms: N1_1  and  C1_4
REMARK    2  A    between atoms: C2_7  and  C3_8
REMARK       I    between atoms: C3_8  and  N3_10
REMARK       I    between atoms: N3_10  and  C4_12
REMARK    3  A    between atoms: C4_12  and  C5_14
REMARK    4  A    between atoms: N4_15  and  N5_17
REMARK    5  A    between atoms: N8_26  and  O3_27
ROOT
HETATM    1  C1  UNL     1     -64.594  18.950  53.763  1.00  0.00     0.719 A
HETATM    2  N2  UNL     1     -64.224  18.251  54.850  1.00  0.00    -0.168 N
ATOM      3  H2  UNL     1     -63.940  18.776  55.677  1.00  0.00     0.186 HD
HETATM    4  C2  UNL     1     -64.203  16.915  54.922  1.00  0.00     0.211 A
HETATM    5  N6  UNL     1     -64.594  16.262  53.785  1.00  0.00    -0.133 N
HETATM    6  C6  UNL     1     -64.703  14.972  53.477  1.00  0.00     0.135 A
HETATM    7  C7  UNL     1     -65.155  14.804  52.158  1.00  0.00     0.124 A
HETATM    8  N7  UNL     1     -65.310  16.038  51.690  1.00  0.00    -0.197 N
ATOM      9  H7  UNL     1     -65.630  16.283  50.753  1.00  0.00     0.183 HD
HETATM   10  C8  UNL     1     -64.975  16.917  52.666  1.00  0.00     0.732 A
HETATM   11  N8  UNL     1     -64.969  18.261  52.670  1.00  0.00     0.127 N
ENDROOT
BRANCH   4  12
HETATM   12  C3  UNL     1     -63.796  16.198  56.118  1.00  0.00     0.294 C
HETATM   13  O1  UNL     1     -64.350  15.144  56.503  1.00  0.00    -0.264 OA
HETATM   14  N3  UNL     1     -62.734  16.675  56.914  1.00  0.00    -0.286 N
HETATM   15  C4  UNL     1     -62.324  15.968  58.102  1.00  0.00     0.265 C
ATOM     16  H3  UNL     1     -62.249  17.531  56.647  1.00  0.00     0.172 HD
HETATM   17  O2  UNL     1     -62.947  14.926  58.391  1.00  0.00    -0.267 OA
BRANCH  15  18
HETATM   18  C5  UNL     1     -61.220  16.488  58.905  1.00  0.00     0.180 C
HETATM   19  N4  UNL     1     -60.164  15.774  59.108  1.00  0.00    -0.313 N
ATOM     20  H4  UNL     1     -59.403  16.153  59.671  1.00  0.00     0.185 HD
BRANCH  19  21
HETATM   21  N5  UNL     1     -60.047  14.496  58.573  1.00  0.00    -0.345 N
ATOM     22  H52 UNL     1     -59.688  14.398  57.623  1.00  0.00     0.176 HD
ATOM     23  H51 UNL     1     -60.314  13.672  59.112  1.00  0.00     0.176 HD
ENDBRANCH  19  21
ENDBRANCH  15  18
ENDBRANCH   4  12
BRANCH   1  24
HETATM   24  N1  UNL     1     -64.602  20.239  53.728  1.00  0.00    -0.232 N
ATOM     25  H12 UNL     1     -63.747  20.736  53.481  1.00  0.00     0.174 HD
ATOM     26  H11 UNL     1     -65.432  20.793  53.939  1.00  0.00     0.174 HD
ENDBRANCH   1  24
BRANCH  11  27
HETATM   27  O3  UNL     1     -65.358  18.916  51.529  1.00  0.00    -0.256 OA
ATOM     28  H3  UNL     1     -65.309  18.486  50.683  1.00  0.00     0.246 HD
ENDBRANCH  11  27
TORSDOF 5
ENDMDL