MODEL 4
REMARK VINA RESULT: -7.533032101      3.089      7.176
REMARK  3 active torsions:
REMARK  status: ('A' for Active; 'I' for Inactive)
REMARK       I    between atoms: C2_2  and  N1_4
REMARK    1  A    between atoms: N1_4  and  C3_6
REMARK    2  A    between atoms: C4_11  and  C5_12
REMARK       I    between atoms: C5_12  and  N4_14
REMARK    3  A    between atoms: N4_14  and  N5_16
ROOT
HETATM    1  C3  UNL     1     -64.632  19.322  53.132  1.00  0.00     0.702 A
HETATM    2  N2  UNL     1     -64.042  20.122  54.029  1.00  0.00    -0.131 N
ATOM      3  H2  UNL     1     -63.951  21.120  53.840  1.00  0.00     0.205 HD
HETATM    4  N3  UNL     1     -63.577  19.622  55.159  1.00  0.00    -0.277 N
ATOM      5  H3  UNL     1     -63.133  20.256  55.822  1.00  0.00     0.188 HD
HETATM    6  C4  UNL     1     -63.659  18.297  55.485  1.00  0.00     0.187 A
HETATM    7  C7  UNL     1     -64.260  17.498  54.564  1.00  0.00     0.293 A
HETATM    8  O3  UNL     1     -64.389  16.285  54.757  1.00  0.00    -0.265 OA
HETATM    9  N8  UNL     1     -64.746  18.020  53.385  1.00  0.00    -0.152 N
ATOM     10  H8  UNL     1     -65.194  17.406  52.704  1.00  0.00     0.187 HD
ENDROOT
BRANCH   6  11
HETATM   11  C5  UNL     1     -63.107  17.894  56.754  1.00  0.00     0.293 C
HETATM   12  O2  UNL     1     -63.516  18.488  57.823  1.00  0.00    -0.264 OA
HETATM   13  N4  UNL     1     -62.146  16.895  56.948  1.00  0.00    -0.262 N
ATOM     14  H4  UNL     1     -61.777  16.382  56.146  1.00  0.00     0.190 HD
BRANCH  13  15
HETATM   15  N5  UNL     1     -61.680  16.590  58.252  1.00  0.00    -0.273 N
HETATM   16  C6  UNL     1     -60.976  15.531  58.399  1.00  0.00     0.215 C
HETATM   17  N6  UNL     1     -60.685  14.707  57.293  1.00  0.00    -0.065 NA
HETATM   18  N7  UNL     1     -60.494  15.202  59.707  1.00  0.00    -0.065 NA
ATOM     19  H5  UNL     1     -61.898  17.194  59.045  1.00  0.00     0.189 HD
ENDBRANCH  13  15
ENDBRANCH   6  11
BRANCH   1  20
HETATM   20  N1  UNL     1     -65.078  19.819  52.042  1.00  0.00    -0.159 N
HETATM   21  C2  UNL     1     -64.455  19.585  50.785  1.00  0.00     0.232 C
HETATM   22  C1  UNL     1     -64.580  18.302  50.049  1.00  0.00     0.118 C
HETATM   23  O1  UNL     1     -63.752  20.489  50.237  1.00  0.00    -0.273 OA
ATOM     24  H1  UNL     1     -65.913  20.404  52.076  1.00  0.00     0.187 HD
ENDBRANCH   1  20
TORSDOF 3
ENDMDL