MODEL 1
REMARK VINA RESULT: -7.844071191      0.000      0.000
REMARK  2 active torsions:
REMARK  status: ('A' for Active; 'I' for Inactive)
REMARK    1  A    between atoms: C1_4  and  N2_5
REMARK    2  A    between atoms: N2_5  and  C2_7
REMARK       I    between atoms: N4_12  and  C4_13
ROOT
HETATM    1  C2  UNL     1     -64.664  19.088  52.993  1.00  0.00     0.141 A
HETATM    2  N3  UNL     1     -64.068  19.723  54.000  1.00  0.00    -0.292 N
ATOM      3  H3  UNL     1     -63.860  20.719  53.921  1.00  0.00     0.172 HD
HETATM    4  C3  UNL     1     -63.747  19.067  55.098  1.00  0.00     0.337 A
HETATM    5  O1  UNL     1     -63.191  19.701  56.017  1.00  0.00    -0.246 OA
HETATM    6  N4  UNL     1     -63.977  17.733  55.313  1.00  0.00    -0.200 N
HETATM    7  C4  UNL     1     -63.573  17.202  56.528  1.00  0.00     0.344 C
HETATM    8  N5  UNL     1     -62.931  18.035  57.531  1.00  0.00    -0.039 NA
HETATM    9  O2  UNL     1     -63.689  16.026  56.915  1.00  0.00    -0.250 OA
HETATM   10  C5  UNL     1     -64.574  17.076  54.313  1.00  0.00     0.154 A
HETATM   11  N6  UNL     1     -64.835  15.766  54.443  1.00  0.00    -0.302 N
ATOM     12  H6  UNL     1     -64.585  15.262  55.293  1.00  0.00     0.171 HD
HETATM   13  C6  UNL     1     -65.439  15.136  53.414  1.00  0.00     0.315 A
HETATM   14  O3  UNL     1     -65.705  13.904  53.489  1.00  0.00    -0.262 OA
HETATM   15  C7  UNL     1     -65.783  15.787  52.269  1.00  0.00     0.314 A
HETATM   16  O4  UNL     1     -66.346  15.197  51.310  1.00  0.00    -0.262 OA
HETATM   17  N7  UNL     1     -65.525  17.092  52.131  1.00  0.00    -0.313 N
ATOM     18  H7  UNL     1     -65.781  17.581  51.273  1.00  0.00     0.169 HD
HETATM   19  C8  UNL     1     -64.927  17.752  53.133  1.00  0.00     0.125 A
ENDROOT
BRANCH   1  20
HETATM   20  N2  UNL     1     -64.975  19.751  51.916  1.00  0.00    -0.337 N
ATOM     21  H2  UNL     1     -65.907  20.153  51.821  1.00  0.00     0.168 HD
BRANCH  20  22
HETATM   22  C1  UNL     1     -64.024  19.916  50.874  1.00  0.00     0.175 C
HETATM   23  N1  UNL     1     -64.158  19.338  49.724  1.00  0.00    -0.395 N
ATOM     24  H12 UNL     1     -64.978  18.748  49.578  1.00  0.00     0.156 HD
ATOM     25  H11 UNL     1     -63.475  19.457  48.976  1.00  0.00     0.156 HD
ENDBRANCH  20  22
ENDBRANCH   1  20
TORSDOF 2
ENDMDL