MODEL 1
REMARK VINA RESULT: -6.872731283      0.000      0.000
REMARK  2 active torsions:
REMARK  status: ('A' for Active; 'I' for Inactive)
REMARK       I    between atoms: N1_2  and  C2_4
REMARK       I    between atoms: C2_4  and  N3_11
REMARK       I    between atoms: N2_5  and  C3_7
REMARK    1  A    between atoms: C3_7  and  C4_9
REMARK    2  A    between atoms: N3_11  and  N4_13
ROOT
HETATM    1  N4  UNL     1     -63.331  15.425  55.998  1.00  0.00    -0.117 N
ATOM      2  H4  UNL     1     -63.709  14.661  55.437  1.00  0.00     0.206 HD
HETATM    3  C5  UNL     1     -63.638  16.657  55.697  1.00  0.00     0.710 C
HETATM    4  N5  UNL     1     -64.498  16.844  54.582  1.00  0.00    -0.196 N
ATOM      5  H5  UNL     1     -64.910  15.997  54.191  1.00  0.00     0.183 HD
HETATM    6  C6  UNL     1     -64.829  17.959  53.993  1.00  0.00     0.155 C
HETATM    7  C7  UNL     1     -64.381  19.294  54.354  1.00  0.00     0.128 C
HETATM    8  N6  UNL     1     -64.603  20.246  53.504  1.00  0.00    -0.384 N
ATOM      9  H61 UNL     1     -64.289  21.182  53.757  1.00  0.00     0.157 HD
ATOM     10  H62 UNL     1     -65.079  19.968  52.646  1.00  0.00     0.157 HD
HETATM   11  N7  UNL     1     -63.713  19.684  55.560  1.00  0.00    -0.268 N
ATOM     12  H7  UNL     1     -63.272  20.604  55.554  1.00  0.00     0.186 HD
HETATM   13  N8  UNL     1     -63.593  18.941  56.757  1.00  0.00    -0.006 NA
HETATM   14  N9  UNL     1     -63.075  17.665  56.521  1.00  0.00    -0.115 N
ATOM     15  H9  UNL     1     -62.199  17.433  56.990  1.00  0.00     0.203 HD
ENDROOT
BRANCH   1  16
HETATM   16  N3  UNL     1     -62.491  15.139  57.078  1.00  0.00    -0.118 N
HETATM   17  C2  UNL     1     -62.556  13.941  57.819  1.00  0.00     0.695 C
HETATM   18  N1  UNL     1     -62.161  13.918  59.172  1.00  0.00    -0.229 N
HETATM   19  N2  UNL     1     -62.968  12.853  57.291  1.00  0.00    -0.152 N
HETATM   20  C1  UNL     1     -60.743  13.779  59.442  1.00  0.00     0.165 C
ATOM     21  H1  UNL     1     -62.842  13.996  59.928  1.00  0.00     0.177 HD
HETATM   22  C3  UNL     1     -63.396  12.689  55.974  1.00  0.00     0.297 C
ATOM     23  H2  UNL     1     -62.986  12.026  57.889  1.00  0.00     0.187 HD
HETATM   24  O1  UNL     1     -62.555  12.657  55.046  1.00  0.00    -0.264 OA
ATOM     25  H3  UNL     1     -61.794  15.834  57.344  1.00  0.00     0.206 HD
BRANCH  22  26
HETATM   26  C4  UNL     1     -64.800  12.555  55.663  1.00  0.00     0.333 C
HETATM   27  O2  UNL     1     -65.615  13.480  55.921  1.00  0.00    -0.296 OA
ENDBRANCH  22  26
ENDBRANCH   1  16
TORSDOF 2
ENDMDL