MODEL 1
REMARK VINA RESULT: -6.461405144      0.000      0.000
REMARK  4 active torsions:
REMARK  status: ('A' for Active; 'I' for Inactive)
REMARK    1  A    between atoms: C2_3  and  C3_4
REMARK    2  A    between atoms: C3_4  and  N2_5
REMARK    3  A    between atoms: C3_4  and  C4_9
REMARK       I    between atoms: C4_9  and  N3_11
REMARK    4  A    between atoms: N3_11  and  C5_13
ROOT
HETATM    1  N1  UNL     1     -62.576  20.988  48.195  1.00  0.00    -0.197 NA
HETATM    2  C1  UNL     1     -63.095  20.531  49.106  1.00  0.00     0.061 C
HETATM    3  C2  UNL     1     -63.735  19.936  50.256  1.00  0.00     0.166 C
ENDROOT
BRANCH   3   4
HETATM    4  C3  UNL     1     -63.928  18.420  50.085  1.00  0.00     0.287 C
BRANCH   4   5
HETATM    5  N2  UNL     1     -64.227  18.188  48.711  1.00  0.00    -0.066 N
ATOM      6  H23 UNL     1     -65.059  18.685  48.393  1.00  0.00     0.275 HD
ATOM      7  H22 UNL     1     -63.561  18.629  48.076  1.00  0.00     0.275 HD
ATOM      8  H21 UNL     1     -64.290  17.178  48.584  1.00  0.00     0.275 HD
ENDBRANCH   4   5
BRANCH   4   9
HETATM    9  C4  UNL     1     -65.099  18.065  50.916  1.00  0.00     0.255 C
HETATM   10  O1  UNL     1     -65.882  17.185  50.479  1.00  0.00    -0.271 OA
HETATM   11  N3  UNL     1     -65.329  18.710  52.182  1.00  0.00    -0.307 N
ATOM     12  H3  UNL     1     -65.856  19.580  52.254  1.00  0.00     0.170 HD
BRANCH  11  13
HETATM   13  C5  UNL     1     -64.835  18.132  53.213  1.00  0.00     0.181 C
HETATM   14  N4  UNL     1     -64.966  16.804  53.363  1.00  0.00    -0.300 N
HETATM   15  C6  UNL     1     -64.510  15.993  54.352  1.00  0.00     0.316 C
ATOM     16  H4  UNL     1     -65.488  16.333  52.623  1.00  0.00     0.171 HD
HETATM   17  O2  UNL     1     -64.760  14.778  54.215  1.00  0.00    -0.262 OA
HETATM   18  C7  UNL     1     -63.810  16.315  55.488  1.00  0.00     0.328 C
HETATM   19  O3  UNL     1     -63.460  15.413  56.269  1.00  0.00    -0.261 OA
HETATM   20  N5  UNL     1     -63.423  17.557  55.903  1.00  0.00    -0.259 N
HETATM   21  N6  UNL     1     -63.481  18.695  55.222  1.00  0.00    -0.260 N
ATOM     22  H5  UNL     1     -63.045  17.618  56.849  1.00  0.00     0.190 HD
HETATM   23  C8  UNL     1     -64.191  18.967  54.100  1.00  0.00     0.304 C
ATOM     24  H6  UNL     1     -62.919  19.463  55.589  1.00  0.00     0.190 HD
HETATM   25  O4  UNL     1     -64.264  20.182  53.843  1.00  0.00    -0.263 OA
ENDBRANCH  11  13
ENDBRANCH   4   9
ENDBRANCH   3   4
TORSDOF 4
ENDMDL