MODEL 2
REMARK VINA RESULT: -7.125978799      4.239      8.864
REMARK  3 active torsions:
REMARK  status: ('A' for Active; 'I' for Inactive)
REMARK    1  A    between atoms: C2_9  and  C3_10
REMARK       I    between atoms: C3_10  and  N4_12
REMARK    2  A    between atoms: N4_12  and  N5_14
REMARK       I    between atoms: N5_14  and  C4_16
REMARK    3  A    between atoms: C4_16  and  C5_18
ROOT
HETATM    1  N1  UNL     1     -64.694  20.122  53.546  1.00  0.00    -0.381 N
ATOM      2  H11 UNL     1     -65.314  19.817  52.796  1.00  0.00     0.157 HD
ATOM      3  H12 UNL     1     -64.364  21.070  53.729  1.00  0.00     0.157 HD
HETATM    4  C1  UNL     1     -64.271  19.236  54.370  1.00  0.00     0.164 C
HETATM    5  N2  UNL     1     -63.440  19.644  55.376  1.00  0.00    -0.282 N
ATOM      6  H2  UNL     1     -63.557  20.607  55.691  1.00  0.00     0.188 HD
HETATM    7  N3  UNL     1     -62.496  18.935  55.995  1.00  0.00    -0.294 N
ATOM      8  H3  UNL     1     -61.590  19.375  56.150  1.00  0.00     0.187 HD
HETATM    9  C2  UNL     1     -62.674  17.643  56.438  1.00  0.00     0.117 C
HETATM   10  C6  UNL     1     -63.379  16.645  55.766  1.00  0.00     0.041 C
HETATM   11  C7  UNL     1     -64.288  16.789  54.735  1.00  0.00     0.061 C
HETATM   12  C8  UNL     1     -64.715  17.961  54.125  1.00  0.00     0.216 C
HETATM   13  O4  UNL     1     -65.606  17.821  53.256  1.00  0.00    -0.284 OA
ENDROOT
BRANCH   9  14
HETATM   14  C3  UNL     1     -62.076  17.240  57.683  1.00  0.00     0.288 C
HETATM   15  O1  UNL     1     -62.478  17.807  58.745  1.00  0.00    -0.264 OA
HETATM   16  N4  UNL     1     -61.068  16.248  57.807  1.00  0.00    -0.262 N
ATOM     17  H4  UNL     1     -60.734  15.768  56.972  1.00  0.00     0.190 HD
BRANCH  16  18
HETATM   18  N5  UNL     1     -60.530  15.917  59.040  1.00  0.00    -0.259 N
HETATM   19  C4  UNL     1     -59.609  14.845  59.214  1.00  0.00     0.325 C
HETATM   20  O2  UNL     1     -59.254  14.139  58.233  1.00  0.00    -0.261 OA
ATOM     21  H5  UNL     1     -60.804  16.464  59.857  1.00  0.00     0.190 HD
BRANCH  19  22
HETATM   22  C5  UNL     1     -59.055  14.526  60.521  1.00  0.00     0.324 C
HETATM   23  N6  UNL     1     -57.872  15.105  60.995  1.00  0.00    -0.053 NA
HETATM   24  O3  UNL     1     -59.677  13.702  61.231  1.00  0.00    -0.266 OA
ENDBRANCH  19  22
ENDBRANCH  16  18
ENDBRANCH   9  14
TORSDOF 3
ENDMDL