MODEL 5
REMARK VINA RESULT: -6.734809013      2.278      3.197
REMARK  6 active torsions:
REMARK  status: ('A' for Active; 'I' for Inactive)
REMARK       I    between atoms: C2_2  and  N1_4
REMARK    1  A    between atoms: N1_4  and  N2_6
REMARK    2  A    between atoms: N2_6  and  C3_8
REMARK    3  A    between atoms: C3_8  and  N3_10
REMARK    4  A    between atoms: N3_10  and  C5_12
REMARK    5  A    between atoms: C6_15  and  C7_16
REMARK       I    between atoms: C7_16  and  N5_18
REMARK    6  A    between atoms: N5_18  and  N6_20
ROOT
HETATM    1  C5  UNL     1     -64.643  19.541  54.831  1.00  0.00     0.179 A
HETATM    2  N4  UNL     1     -63.649  18.718  55.225  1.00  0.00    -0.318 N
ATOM      3  H4  UNL     1     -62.928  18.468  54.548  1.00  0.00     0.169 HD
HETATM    4  C6  UNL     1     -63.565  18.214  56.464  1.00  0.00     0.192 A
HETATM    5  N7  UNL     1     -64.520  18.550  57.346  1.00  0.00    -0.278 N
ATOM      6  H7  UNL     1     -64.482  18.183  58.296  1.00  0.00     0.189 HD
HETATM    7  N8  UNL     1     -65.522  19.363  56.989  1.00  0.00    -0.262 N
ATOM      8  H8  UNL     1     -66.235  19.602  57.677  1.00  0.00     0.190 HD
HETATM    9  C8  UNL     1     -65.615  19.877  55.744  1.00  0.00     0.304 A
HETATM   10  O3  UNL     1     -66.576  20.637  55.460  1.00  0.00    -0.263 OA
ENDROOT
BRANCH   1  11
HETATM   11  N3  UNL     1     -64.652  19.983  53.624  1.00  0.00    -0.327 N
ATOM     12  H3  UNL     1     -64.502  20.985  53.500  1.00  0.00     0.169 HD
BRANCH  11  13
HETATM   13  C3  UNL     1     -64.848  19.224  52.461  1.00  0.00     0.093 C
HETATM   14  C4  UNL     1     -64.336  19.622  51.120  1.00  0.00     0.090 C
BRANCH  13  15
HETATM   15  N2  UNL     1     -65.511  18.123  52.570  1.00  0.00    -0.287 N
ATOM     16  H2  UNL     1     -66.406  18.121  53.060  1.00  0.00     0.188 HD
BRANCH  15  17
HETATM   17  N1  UNL     1     -65.021  16.937  52.027  1.00  0.00    -0.269 N
HETATM   18  C2  UNL     1     -64.592  15.922  52.924  1.00  0.00     0.232 C
HETATM   19  C1  UNL     1     -64.071  14.660  52.294  1.00  0.00     0.119 C
HETATM   20  O1  UNL     1     -64.643  16.067  54.162  1.00  0.00    -0.272 OA
ATOM     21  H1  UNL     1     -64.972  16.802  51.018  1.00  0.00     0.190 HD
ENDBRANCH  15  17
ENDBRANCH  13  15
ENDBRANCH  11  13
ENDBRANCH   1  11
BRANCH   4  22
HETATM   22  C7  UNL     1     -62.453  17.317  56.840  1.00  0.00     0.304 C
HETATM   23  O2  UNL     1     -61.415  17.809  57.356  1.00  0.00    -0.263 OA
HETATM   24  N5  UNL     1     -62.511  15.928  56.643  1.00  0.00    -0.270 N
ATOM     25  H5  UNL     1     -63.348  15.520  56.226  1.00  0.00     0.189 HD
BRANCH  24  26
HETATM   26  N6  UNL     1     -61.454  15.091  57.002  1.00  0.00    -0.342 N
ATOM     27  H62 UNL     1     -61.197  15.037  57.987  1.00  0.00     0.176 HD
ATOM     28  H61 UNL     1     -60.945  14.544  56.309  1.00  0.00     0.176 HD
ENDBRANCH  24  26
ENDBRANCH   4  22
TORSDOF 6
ENDMDL