MODEL 5
REMARK VINA RESULT: -6.177712655      3.557      6.197
REMARK  3 active torsions:
REMARK  status: ('A' for Active; 'I' for Inactive)
REMARK       I    between atoms: C1_2  and  N2_4
REMARK    1  A    between atoms: N2_4  and  N3_6
REMARK       I    between atoms: N3_6  and  C2_8
REMARK    2  A    between atoms: C2_8  and  C3_10
REMARK    3  A    between atoms: C3_10  and  N4_12
ROOT
HETATM    1  C3  UNL     1     -65.169  15.220  52.556  1.00  0.00     0.264 C
HETATM    2  S1  UNL     1     -63.753  14.182  52.187  1.00  0.00    -0.059 SA
ENDROOT
BRANCH   1   3
HETATM    3  C2  UNL     1     -64.865  16.370  53.423  1.00  0.00     0.270 C
HETATM    4  N3  UNL     1     -64.059  16.192  54.573  1.00  0.00    -0.264 N
ATOM      5  H3  UNL     1     -63.696  15.263  54.789  1.00  0.00     0.190 HD
HETATM    6  O2  UNL     1     -65.304  17.516  53.170  1.00  0.00    -0.268 OA
BRANCH   4   7
HETATM    7  N2  UNL     1     -63.747  17.264  55.422  1.00  0.00    -0.251 N
HETATM    8  C1  UNL     1     -63.545  17.028  56.793  1.00  0.00     0.347 C
HETATM    9  N1  UNL     1     -63.227  18.137  57.639  1.00  0.00    -0.038 NA
HETATM   10  O1  UNL     1     -63.627  15.893  57.322  1.00  0.00    -0.249 OA
ATOM     11  H2  UNL     1     -63.667  18.209  55.048  1.00  0.00     0.191 HD
ENDBRANCH   4   7
ENDBRANCH   1   3
BRANCH   1  12
HETATM   12  N4  UNL     1     -65.713  15.732  51.298  1.00  0.00    -0.237 N
HETATM   13  C4  UNL     1     -65.037  16.429  50.283  1.00  0.00     0.334 A
HETATM   14  O3  UNL     1     -63.827  16.756  50.247  1.00  0.00    -0.246 OA
HETATM   15  N5  UNL     1     -65.951  16.728  49.251  1.00  0.00    -0.271 N
HETATM   16  C5  UNL     1     -67.216  16.208  49.633  1.00  0.00     0.318 A
ATOM     17  H5  UNL     1     -65.742  17.228  48.387  1.00  0.00     0.174 HD
HETATM   18  O4  UNL     1     -68.312  16.259  48.991  1.00  0.00    -0.262 OA
HETATM   19  C6  UNL     1     -67.070  15.573  50.933  1.00  0.00     0.321 A
HETATM   20  O5  UNL     1     -67.980  14.990  51.615  1.00  0.00    -0.262 OA
ENDBRANCH   1  12
TORSDOF 3
ENDMDL