MODEL 1
REMARK VINA RESULT: -7.944733528      0.000      0.000
REMARK  4 active torsions:
REMARK  status: ('A' for Active; 'I' for Inactive)
REMARK    1  A    between atoms: C2_5  and  N2_6
REMARK    2  A    between atoms: N2_6  and  N3_8
REMARK    3  A    between atoms: N3_8  and  C3_10
REMARK    4  A    between atoms: C3_10  and  C4_11
ROOT
HETATM    1  O1  UNL     1     -66.999  20.385  56.257  1.00  0.00    -0.246 OA
HETATM    2  C1  UNL     1     -65.909  19.864  55.895  1.00  0.00     0.341 C
HETATM    3  N1  UNL     1     -65.524  20.227  54.649  1.00  0.00    -0.140 N
ATOM      4  H1  UNL     1     -66.198  20.758  54.097  1.00  0.00     0.189 HD
HETATM    5  C2  UNL     1     -64.337  19.957  54.062  1.00  0.00     0.703 C
HETATM    6  N6  UNL     1     -63.221  19.529  54.679  1.00  0.00    -0.150 N
ATOM      7  H6  UNL     1     -62.354  19.711  54.174  1.00  0.00     0.188 HD
HETATM    8  C7  UNL     1     -63.069  18.894  55.867  1.00  0.00     0.328 C
HETATM    9  O3  UNL     1     -61.886  18.610  56.190  1.00  0.00    -0.261 OA
HETATM   10  C8  UNL     1     -64.073  18.529  56.753  1.00  0.00     0.318 C
HETATM   11  O4  UNL     1     -63.760  17.632  57.581  1.00  0.00    -0.262 OA
HETATM   12  N7  UNL     1     -65.319  19.044  56.797  1.00  0.00    -0.270 N
ATOM     13  H7  UNL     1     -65.884  18.784  57.605  1.00  0.00     0.174 HD
ENDROOT
BRANCH   5  14
HETATM   14  N2  UNL     1     -64.301  20.136  52.786  1.00  0.00    -0.132 N
ATOM     15  H2  UNL     1     -63.641  20.786  52.358  1.00  0.00     0.205 HD
BRANCH  14  16
HETATM   16  N3  UNL     1     -65.204  19.402  52.015  1.00  0.00    -0.297 N
ATOM     17  H3  UNL     1     -66.167  19.725  51.929  1.00  0.00     0.186 HD
BRANCH  16  18
HETATM   18  C3  UNL     1     -64.842  18.326  51.412  1.00  0.00     0.126 C
BRANCH  18  19
HETATM   19  C4  UNL     1     -64.494  18.374  49.998  1.00  0.00     0.067 A
HETATM   20  C5  UNL     1     -64.746  17.375  49.061  1.00  0.00     0.125 A
HETATM   21  N4  UNL     1     -64.263  17.830  47.888  1.00  0.00    -0.308 N
HETATM   22  N5  UNL     1     -63.734  19.046  48.067  1.00  0.00    -0.266 N
ATOM     23  H4  UNL     1     -64.295  17.326  47.002  1.00  0.00     0.186 HD
HETATM   24  C6  UNL     1     -63.859  19.411  49.353  1.00  0.00     0.272 A
ATOM     25  H5  UNL     1     -63.302  19.611  47.336  1.00  0.00     0.190 HD
HETATM   26  O2  UNL     1     -63.483  20.483  49.894  1.00  0.00    -0.266 OA
ENDBRANCH  18  19
ENDBRANCH  16  18
ENDBRANCH  14  16
ENDBRANCH   5  14
TORSDOF 4
ENDMDL