MODEL 1
REMARK VINA RESULT: -7.100017441      0.000      0.000
REMARK  5 active torsions:
REMARK  status: ('A' for Active; 'I' for Inactive)
REMARK    1  A    between atoms: N1_2  and  C2_4
REMARK    2  A    between atoms: C3_9  and  N4_10
REMARK    3  A    between atoms: C5_13  and  N5_14
REMARK       I    between atoms: N5_14  and  C6_16
REMARK    4  A    between atoms: C6_16  and  C7_18
REMARK    5  A    between atoms: C7_18  and  N6_19
ROOT
HETATM    1  C2  UNL     1     -65.816  16.667  52.324  1.00  0.00     0.694 A
HETATM    2  N2  UNL     1     -66.599  15.585  52.325  1.00  0.00    -0.131 N
ATOM      3  H2  UNL     1     -67.373  15.535  51.664  1.00  0.00     0.205 HD
HETATM    4  N3  UNL     1     -66.403  14.582  53.155  1.00  0.00    -0.268 N
ATOM      5  H3  UNL     1     -67.027  13.776  53.117  1.00  0.00     0.189 HD
HETATM    6  C3  UNL     1     -65.384  14.592  54.068  1.00  0.00     0.161 A
HETATM    7  C5  UNL     1     -64.587  15.698  54.062  1.00  0.00     0.169 A
HETATM    8  N10 UNL     1     -64.815  16.721  53.190  1.00  0.00    -0.172 N
ATOM      9  H10 UNL     1     -64.206  17.539  53.205  1.00  0.00     0.186 HD
ENDROOT
BRANCH   7  10
HETATM   10  N5  UNL     1     -63.608  15.820  54.864  1.00  0.00    -0.308 N
HETATM   11  C6  UNL     1     -63.721  16.569  56.051  1.00  0.00     0.243 C
HETATM   12  O1  UNL     1     -64.304  16.083  57.043  1.00  0.00    -0.271 OA
ATOM     13  H5  UNL     1     -62.722  15.366  54.643  1.00  0.00     0.170 HD
BRANCH  11  14
HETATM   14  C7  UNL     1     -63.157  17.928  56.132  1.00  0.00     0.254 C
BRANCH  14  15
HETATM   15  N6  UNL     1     -64.113  18.882  55.610  1.00  0.00    -0.262 N
HETATM   16  C8  UNL     1     -65.280  19.262  56.167  1.00  0.00     0.220 A
HETATM   17  N7  UNL     1     -65.848  20.170  55.338  1.00  0.00    -0.279 N
HETATM   18  N8  UNL     1     -65.055  20.346  54.298  1.00  0.00    -0.227 N
ATOM     19  H7  UNL     1     -66.741  20.639  55.492  1.00  0.00     0.189 HD
HETATM   20  N9  UNL     1     -64.024  19.566  54.482  1.00  0.00    -0.225 N
ATOM     21  H8  UNL     1     -65.216  20.969  53.506  1.00  0.00     0.210 HD
ATOM     22  H9  UNL     1     -63.241  19.492  53.832  1.00  0.00     0.210 HD
ENDBRANCH  14  15
ENDBRANCH  11  14
ENDBRANCH   7  10
BRANCH   6  23
HETATM   23  N4  UNL     1     -65.239  13.621  54.830  1.00  0.00    -0.377 N
HETATM   24  C4  UNL     1     -64.888  12.283  54.499  1.00  0.00     0.148 C
ATOM     25  H4  UNL     1     -65.392  13.807  55.821  1.00  0.00     0.160 HD
ENDBRANCH   6  23
BRANCH   1  26
HETATM   26  N1  UNL     1     -66.045  17.642  51.481  1.00  0.00    -0.229 N
HETATM   27  C1  UNL     1     -64.922  18.439  51.051  1.00  0.00     0.165 C
ATOM     28  H1  UNL     1     -66.987  17.831  51.140  1.00  0.00     0.177 HD
ENDBRANCH   1  26
TORSDOF 5
ENDMDL