MODEL 2
REMARK VINA RESULT: -7.917339320      0.937      1.056
REMARK  3 active torsions:
REMARK  status: ('A' for Active; 'I' for Inactive)
REMARK    1  A    between atoms: N1_1  and  C1_4
REMARK    2  A    between atoms: C5_15  and  C6_16
REMARK    3  A    between atoms: C7_20  and  C8_21
ROOT
HETATM    1  C1  UNL     1      19.668  68.048  36.198  1.00  0.00     0.146 A
HETATM    2  N2  UNL     1      19.719  67.465  37.411  1.00  0.00    -0.335 N
ATOM      3  H2  UNL     1      20.593  67.406  37.933  1.00  0.00     0.168 HD
HETATM    4  C2  UNL     1      18.575  66.962  37.910  1.00  0.00     0.199 A
HETATM    5  N3  UNL     1      17.399  67.027  37.236  1.00  0.00    -0.285 N
ATOM      6  H3  UNL     1      16.556  66.632  37.651  1.00  0.00     0.188 HD
HETATM    7  N4  UNL     1      17.338  67.602  36.038  1.00  0.00    -0.197 N
HETATM    8  C3  UNL     1      16.144  67.647  35.399  1.00  0.00     0.294 A
HETATM    9  O1  UNL     1      15.101  67.168  35.895  1.00  0.00    -0.264 OA
HETATM   10  C4  UNL     1      16.097  68.250  34.147  1.00  0.00     0.141 A
HETATM   11  N5  UNL     1      14.898  68.350  33.395  1.00  0.00    -0.094 NA
HETATM   12  C5  UNL     1      17.250  68.775  33.609  1.00  0.00     0.081 A
HETATM   13  N8  UNL     1      18.408  68.707  34.279  1.00  0.00    -0.337 N
ATOM     14  H8  UNL     1      19.255  69.099  33.869  1.00  0.00     0.167 HD
HETATM   15  C10 UNL     1      18.461  68.121  35.497  1.00  0.00     0.175 A
ENDROOT
BRANCH  12  16
HETATM   16  C6  UNL     1      17.238  69.418  32.292  1.00  0.00     0.331 C
HETATM   17  N6  UNL     1      15.954  69.783  31.791  1.00  0.00    -0.026 N
HETATM   18  C7  UNL     1      15.867  69.396  30.411  1.00  0.00     0.389 C
ATOM     19  H62 UNL     1      15.193  69.399  32.352  1.00  0.00     0.281 HD
ATOM     20  H61 UNL     1      15.748  70.772  31.932  1.00  0.00     0.281 HD
HETATM   21  N7  UNL     1      17.169  68.883  30.034  1.00  0.00    -0.323 N
HETATM   22  C9  UNL     1      17.841  68.541  31.240  1.00  0.00     0.256 C
ATOM     23  H7  UNL     1      17.534  68.787  29.086  1.00  0.00     0.165 HD
HETATM   24  O4  UNL     1      18.753  67.674  31.368  1.00  0.00    -0.271 OA
BRANCH  18  25
HETATM   25  C8  UNL     1      15.555  70.520  29.512  1.00  0.00     0.225 C
HETATM   26  O2  UNL     1      14.507  70.506  28.843  1.00  0.00    -0.645 OA
HETATM   27  O3  UNL     1      16.419  71.583  29.413  1.00  0.00    -0.645 OA
ENDBRANCH  18  25
ENDBRANCH  12  16
BRANCH   1  28
HETATM   28  N1  UNL     1      20.728  68.552  35.661  1.00  0.00    -0.382 N
ATOM     29  H12 UNL     1      21.537  68.736  36.253  1.00  0.00     0.157 HD
ATOM     30  H11 UNL     1      20.759  68.761  34.663  1.00  0.00     0.157 HD
ENDBRANCH   1  28
TORSDOF 3
ENDMDL