MODEL 2
REMARK VINA RESULT: -6.814097091      2.586      4.391
REMARK  5 active torsions:
REMARK  status: ('A' for Active; 'I' for Inactive)
REMARK    1  A    between atoms: N1_1  and  C1_4
REMARK    2  A    between atoms: N4_13  and  C5_14
REMARK    3  A    between atoms: C5_14  and  O2_15
REMARK    4  A    between atoms: C7_21  and  C8_22
REMARK    5  A    between atoms: C8_22  and  O3_23
ROOT
HETATM    1  C1  UNL     1      19.648  67.874  35.508  1.00  0.00     0.681 C
HETATM    2  N2  UNL     1      19.614  66.996  36.525  1.00  0.00    -0.154 N
ATOM      3  H2  UNL     1      20.515  66.665  36.869  1.00  0.00     0.187 HD
HETATM    4  C2  UNL     1      18.509  66.499  37.146  1.00  0.00     0.288 C
HETATM    5  O1  UNL     1      18.742  65.652  38.019  1.00  0.00    -0.265 OA
HETATM    6  C3  UNL     1      17.195  66.838  36.902  1.00  0.00     0.135 A
HETATM    7  N3  UNL     1      16.185  66.524  37.722  1.00  0.00    -0.346 N
ATOM      8  H3  UNL     1      16.252  66.010  38.600  1.00  0.00     0.167 HD
HETATM    9  C4  UNL     1      15.066  67.016  37.166  1.00  0.00     0.189 A
HETATM   10  N4  UNL     1      15.339  67.654  35.982  1.00  0.00    -0.278 N
HETATM   11  C9  UNL     1      16.667  67.545  35.812  1.00  0.00     0.141 A
HETATM   12  C10 UNL     1      17.403  68.035  34.754  1.00  0.00     0.289 C
HETATM   13  O4  UNL     1      16.732  68.236  33.721  1.00  0.00    -0.265 OA
HETATM   14  N7  UNL     1      18.720  68.326  34.668  1.00  0.00    -0.154 N
ATOM     15  H7  UNL     1      19.023  68.934  33.907  1.00  0.00     0.187 HD
ENDROOT
BRANCH  10  16
HETATM   16  C5  UNL     1      14.423  68.306  35.097  1.00  0.00     0.338 C
HETATM   17  C6  UNL     1      13.110  68.373  35.953  1.00  0.00     0.328 C
HETATM   18  N5  UNL     1      12.253  69.040  34.976  1.00  0.00    -0.037 N
HETATM   19  C7  UNL     1      12.629  68.373  33.748  1.00  0.00     0.411 C
ATOM     20  H52 UNL     1      11.256  69.022  35.190  1.00  0.00     0.280 HD
ATOM     21  H51 UNL     1      12.326  70.058  34.956  1.00  0.00     0.280 HD
HETATM   22  N6  UNL     1      13.846  67.598  34.049  1.00  0.00     0.010 N
ATOM     23  H62 UNL     1      14.461  67.448  33.249  1.00  0.00     0.285 HD
ATOM     24  H61 UNL     1      13.683  66.610  34.243  1.00  0.00     0.285 HD
BRANCH  16  25
HETATM   25  O2  UNL     1      14.574  69.686  34.957  1.00  0.00    -0.347 OA
ATOM     26  H2  UNL     1      15.402  69.985  34.602  1.00  0.00     0.214 HD
ENDBRANCH  16  25
BRANCH  19  27
HETATM   27  C8  UNL     1      11.568  67.444  33.243  1.00  0.00     0.226 C
BRANCH  27  28
HETATM   28  O3  UNL     1      12.095  66.159  33.212  1.00  0.00    -0.397 OA
ATOM     29  H3  UNL     1      11.708  65.697  32.477  1.00  0.00     0.209 HD
ENDBRANCH  27  28
ENDBRANCH  19  27
ENDBRANCH  10  16
BRANCH   1  30
HETATM   30  N1  UNL     1      20.833  68.373  35.319  1.00  0.00    -0.234 N
ATOM     31  H12 UNL     1      21.432  67.818  34.709  1.00  0.00     0.174 HD
ATOM     32  H11 UNL     1      20.973  69.252  35.818  1.00  0.00     0.174 HD
ENDBRANCH   1  30
TORSDOF 5
ENDMDL