MODEL 5
REMARK VINA RESULT: -7.350317063      3.214      6.807
REMARK  4 active torsions:
REMARK  status: ('A' for Active; 'I' for Inactive)
REMARK    1  A    between atoms: N1_1  and  C1_4
REMARK    2  A    between atoms: C4_13  and  C5_14
REMARK    3  A    between atoms: C6_17  and  O3_18
REMARK    4  A    between atoms: C9_26  and  N8_27
ROOT
HETATM    1  C1  UNL     1      18.609  66.386  36.836  1.00  0.00     0.679 A
HETATM    2  N2  UNL     1      18.314  67.226  35.819  1.00  0.00    -0.174 N
ATOM      3  H2  UNL     1      19.033  67.480  35.142  1.00  0.00     0.186 HD
HETATM    4  C2  UNL     1      17.075  67.727  35.701  1.00  0.00     0.165 A
HETATM    5  N3  UNL     1      16.770  68.565  34.694  1.00  0.00    -0.228 N
HETATM    6  C3  UNL     1      17.664  68.944  33.766  1.00  0.00     0.334 A
HETATM    7  O1  UNL     1      18.844  68.515  33.815  1.00  0.00    -0.246 OA
HETATM    8  N4  UNL     1      17.341  69.776  32.776  1.00  0.00    -0.301 N
ATOM      9  H4  UNL     1      18.035  70.052  32.081  1.00  0.00     0.171 HD
HETATM   10  C4  UNL     1      16.068  70.249  32.712  1.00  0.00     0.139 A
HETATM   11  C6  UNL     1      15.117  69.889  33.638  1.00  0.00     0.144 A
HETATM   12  C7  UNL     1      15.507  69.005  34.671  1.00  0.00     0.168 A
HETATM   13  N6  UNL     1      14.583  68.662  35.561  1.00  0.00    -0.282 N
ATOM     14  H6  UNL     1      13.642  69.044  35.467  1.00  0.00     0.188 HD
HETATM   15  N7  UNL     1      14.849  67.826  36.583  1.00  0.00    -0.292 N
ATOM     16  H7  UNL     1      14.121  67.580  37.254  1.00  0.00     0.187 HD
HETATM   17  C8  UNL     1      16.079  67.326  36.704  1.00  0.00     0.138 A
HETATM   18  C9  UNL     1      16.417  66.467  37.726  1.00  0.00     0.146 A
HETATM   19  N9  UNL     1      17.686  66.024  37.751  1.00  0.00    -0.175 N
ATOM     20  H9  UNL     1      17.965  65.386  38.496  1.00  0.00     0.186 HD
ENDROOT
BRANCH   1  21
HETATM   21  N1  UNL     1      19.816  65.889  36.962  1.00  0.00    -0.234 N
ATOM     22  H12 UNL     1      20.199  65.372  36.171  1.00  0.00     0.174 HD
ATOM     23  H11 UNL     1      20.346  66.024  37.824  1.00  0.00     0.174 HD
ENDBRANCH   1  21
BRANCH  18  24
HETATM   24  N8  UNL     1      15.580  66.090  38.624  1.00  0.00    -0.383 N
ATOM     25  H82 UNL     1      15.827  65.352  39.283  1.00  0.00     0.157 HD
ATOM     26  H81 UNL     1      14.650  66.499  38.718  1.00  0.00     0.157 HD
ENDBRANCH  18  24
BRANCH  11  27
HETATM   27  O3  UNL     1      13.828  70.321  33.637  1.00  0.00    -0.355 OA
ATOM     28  H3  UNL     1      13.332  70.555  34.413  1.00  0.00     0.218 HD
ENDBRANCH  11  27
BRANCH  10  29
HETATM   29  C5  UNL     1      15.787  71.153  31.603  1.00  0.00     0.284 C
HETATM   30  N5  UNL     1      16.645  71.424  30.525  1.00  0.00    -0.056 NA
HETATM   31  O2  UNL     1      14.671  71.787  31.554  1.00  0.00    -0.269 OA
ENDBRANCH  10  29
TORSDOF 4
ENDMDL