MODEL 5
REMARK VINA RESULT: -6.348508635      2.976      6.777
REMARK  8 active torsions:
REMARK  status: ('A' for Active; 'I' for Inactive)
REMARK    1  A    between atoms: C2_3  and  O1_4
REMARK    2  A    between atoms: C2_3  and  C3_6
REMARK    3  A    between atoms: C3_6  and  O2_7
REMARK    4  A    between atoms: C3_6  and  C4_9
REMARK    5  A    between atoms: C6_17  and  N5_18
REMARK    6  A    between atoms: C9_26  and  N7_27
REMARK    7  A    between atoms: N7_27  and  N8_28
REMARK    8  A    between atoms: N7_27  and  N9_31
ROOT
HETATM    1  N1  UNL     1      15.554  66.583  30.182  1.00  0.00    -0.194 NA
HETATM    2  C1  UNL     1      16.164  67.560  30.133  1.00  0.00     0.094 C
HETATM    3  C2  UNL     1      16.965  68.820  30.079  1.00  0.00     0.259 C
ENDROOT
BRANCH   3   4
HETATM    4  O1  UNL     1      16.421  69.535  29.019  1.00  0.00    -0.378 OA
ATOM      5  H1  UNL     1      16.388  68.911  28.302  1.00  0.00     0.211 HD
ENDBRANCH   3   4
BRANCH   3   6
HETATM    6  C3  UNL     1      16.718  69.552  31.419  1.00  0.00     0.214 C
BRANCH   6   7
HETATM    7  O2  UNL     1      17.331  70.820  31.191  1.00  0.00    -0.386 OA
ATOM      8  H2  UNL     1      18.163  70.577  30.802  1.00  0.00     0.210 HD
ENDBRANCH   6   7
BRANCH   6   9
HETATM    9  C4  UNL     1      17.490  68.944  32.489  1.00  0.00     0.089 A
HETATM   10  N2  UNL     1      18.824  68.802  32.320  1.00  0.00    -0.298 N
HETATM   11  N3  UNL     1      19.570  68.276  33.295  1.00  0.00    -0.284 N
ATOM     12  H2  UNL     1      19.261  69.098  31.448  1.00  0.00     0.187 HD
HETATM   13  C5  UNL     1      19.027  67.879  34.456  1.00  0.00     0.153 A
ATOM     14  H3  UNL     1      20.574  68.174  33.154  1.00  0.00     0.188 HD
HETATM   15  N4  UNL     1      19.778  67.346  35.438  1.00  0.00    -0.174 N
HETATM   16  C8  UNL     1      17.649  68.016  34.659  1.00  0.00     0.111 A
HETATM   17  C6  UNL     1      19.216  66.950  36.588  1.00  0.00     0.680 A
ATOM     18  H4  UNL     1      20.784  67.242  35.305  1.00  0.00     0.186 HD
HETATM   19  N6  UNL     1      17.893  67.064  36.821  1.00  0.00    -0.155 N
HETATM   20  C7  UNL     1      17.122  67.597  35.853  1.00  0.00     0.276 A
ATOM     21  H6  UNL     1      17.488  66.756  37.704  1.00  0.00     0.187 HD
HETATM   22  O3  UNL     1      15.918  67.698  36.076  1.00  0.00    -0.267 OA
HETATM   23  C9  UNL     1      16.875  68.561  33.647  1.00  0.00     0.120 A
BRANCH  17  24
HETATM   24  N5  UNL     1      20.030  66.456  37.492  1.00  0.00    -0.234 N
ATOM     25  H52 UNL     1      20.298  65.471  37.485  1.00  0.00     0.174 HD
ATOM     26  H51 UNL     1      20.365  67.108  38.201  1.00  0.00     0.174 HD
ENDBRANCH  17  24
BRANCH  23  27
HETATM   27  N7  UNL     1      15.508  68.709  33.797  1.00  0.00    -0.207 N
BRANCH  27  28
HETATM   28  N8  UNL     1      14.837  69.824  34.318  1.00  0.00    -0.324 N
ATOM     29  H82 UNL     1      15.377  70.397  34.967  1.00  0.00     0.178 HD
ATOM     30  H81 UNL     1      13.878  70.106  34.120  1.00  0.00     0.178 HD
ENDBRANCH  27  28
BRANCH  27  31
HETATM   31  N9  UNL     1      14.677  67.640  33.374  1.00  0.00    -0.324 N
ATOM     32  H92 UNL     1      14.792  67.353  32.402  1.00  0.00     0.178 HD
ATOM     33  H91 UNL     1      14.040  67.234  34.059  1.00  0.00     0.178 HD
ENDBRANCH  27  31
ENDBRANCH  23  27
ENDBRANCH   6   9
ENDBRANCH   3   6
TORSDOF 8
ENDMDL