MODEL 4
REMARK VINA RESULT: -6.208870065      1.970      2.616
REMARK  7 active torsions:
REMARK  status: ('A' for Active; 'I' for Inactive)
REMARK    1  A    between atoms: N1_1  and  C1_4
REMARK    2  A    between atoms: N4_14  and  C5_15
REMARK    3  A    between atoms: C5_15  and  O3_16
REMARK    4  A    between atoms: O3_16  and  C6_17
REMARK    5  A    between atoms: C8_21  and  N6_22
REMARK    6  A    between atoms: N6_22  and  N7_23
REMARK    7  A    between atoms: N6_22  and  O5_26
ROOT
HETATM    1  C1  UNL     1      20.058  67.096  31.551  1.00  0.00     0.678 A
HETATM    2  N2  UNL     1      18.799  67.357  31.217  1.00  0.00    -0.184 N
ATOM      3  H2  UNL     1      18.515  67.277  30.240  1.00  0.00     0.184 HD
HETATM    4  C2  UNL     1      17.890  67.723  32.141  1.00  0.00     0.148 A
HETATM    5  C3  UNL     1      16.592  67.960  31.735  1.00  0.00     0.279 A
HETATM    6  O1  UNL     1      16.285  67.849  30.522  1.00  0.00    -0.265 OA
HETATM    7  N3  UNL     1      15.717  68.302  32.678  1.00  0.00    -0.273 N
ATOM      8  H3  UNL     1      14.749  68.484  32.414  1.00  0.00     0.173 HD
HETATM    9  C4  UNL     1      16.066  68.409  33.932  1.00  0.00     0.331 A
HETATM   10  O2  UNL     1      15.175  68.742  34.785  1.00  0.00    -0.246 OA
HETATM   11  N4  UNL     1      17.350  68.189  34.426  1.00  0.00    -0.271 N
HETATM   12  C7  UNL     1      18.241  67.843  33.498  1.00  0.00     0.122 A
HETATM   13  C8  UNL     1      19.520  67.572  33.810  1.00  0.00     0.195 A
HETATM   14  N8  UNL     1      20.420  67.198  32.820  1.00  0.00    -0.171 N
ATOM     15  H8  UNL     1      21.385  66.998  33.079  1.00  0.00     0.186 HD
ENDROOT
BRANCH  13  16
HETATM   16  N6  UNL     1      20.090  67.578  35.072  1.00  0.00    -0.150 N
BRANCH  16  17
HETATM   17  N7  UNL     1      20.733  68.689  35.550  1.00  0.00    -0.317 N
ATOM     18  H72 UNL     1      20.867  69.488  34.931  1.00  0.00     0.179 HD
ATOM     19  H71 UNL     1      20.990  68.765  36.535  1.00  0.00     0.179 HD
ENDBRANCH  16  17
BRANCH  16  20
HETATM   20  O5  UNL     1      20.127  66.451  35.786  1.00  0.00    -0.267 OA
ATOM     21  H5  UNL     1      20.959  66.128  36.112  1.00  0.00     0.247 HD
ENDBRANCH  16  20
ENDBRANCH  13  16
BRANCH  11  22
HETATM   22  C5  UNL     1      17.517  68.378  35.826  1.00  0.00     0.316 C
BRANCH  22  23
HETATM   23  O3  UNL     1      17.202  67.064  36.377  1.00  0.00    -0.286 OA
BRANCH  23  24
HETATM   24  C6  UNL     1      17.299  66.721  37.685  1.00  0.00     0.374 C
HETATM   25  N5  UNL     1      18.287  65.851  38.224  1.00  0.00    -0.032 NA
HETATM   26  O4  UNL     1      16.417  67.241  38.457  1.00  0.00    -0.242 OA
ENDBRANCH  23  24
ENDBRANCH  22  23
ENDBRANCH  11  22
BRANCH   1  27
HETATM   27  N1  UNL     1      20.928  66.749  30.666  1.00  0.00    -0.234 N
ATOM     28  H12 UNL     1      21.035  65.764  30.422  1.00  0.00     0.174 HD
ATOM     29  H11 UNL     1      21.517  67.440  30.202  1.00  0.00     0.174 HD
ENDBRANCH   1  27
TORSDOF 7
ENDMDL