MODEL 5
REMARK VINA RESULT: -7.275584944      2.956      5.567
REMARK  8 active torsions:
REMARK  status: ('A' for Active; 'I' for Inactive)
REMARK    1  A    between atoms: N1_1  and  N2_4
REMARK    2  A    between atoms: N2_4  and  C1_6
REMARK    3  A    between atoms: C3_13  and  N5_14
REMARK    4  A    between atoms: C3_13  and  O2_18
REMARK    5  A    between atoms: C4_21  and  C5_22
REMARK    6  A    between atoms: C5_22  and  N6_23
REMARK    7  A    between atoms: C5_22  and  C6_28
REMARK    8  A    between atoms: N6_23  and  N7_25
ROOT
HETATM    1  C1  UNL     1      19.028  67.909  33.168  1.00  0.00     0.146 C
HETATM    2  N3  UNL     1      20.042  67.268  32.606  1.00  0.00    -0.283 N
ATOM      3  H3  UNL     1      20.897  67.252  33.164  1.00  0.00     0.188 HD
HETATM    4  N4  UNL     1      20.137  66.608  31.372  1.00  0.00    -0.262 N
ATOM      5  H4  UNL     1      20.920  65.966  31.251  1.00  0.00     0.190 HD
HETATM    6  C2  UNL     1      19.236  66.749  30.264  1.00  0.00     0.329 C
HETATM    7  O1  UNL     1      19.609  66.158  29.241  1.00  0.00    -0.263 OA
HETATM    8  C3  UNL     1      17.959  67.512  30.260  1.00  0.00     0.420 C
HETATM    9  O3  UNL     1      17.959  68.501  31.209  1.00  0.00    -0.306 OA
HETATM   10  C4  UNL     1      17.755  68.030  32.525  1.00  0.00     0.249 C
ENDROOT
BRANCH  10  11
HETATM   11  C5  UNL     1      16.610  68.735  33.121  1.00  0.00     0.072 C
BRANCH  11  12
HETATM   12  N6  UNL     1      16.630  70.112  33.339  1.00  0.00    -0.307 N
ATOM     13  H6  UNL     1      16.871  70.442  34.273  1.00  0.00     0.186 HD
BRANCH  12  14
HETATM   14  N7  UNL     1      16.353  71.028  32.404  1.00  0.00    -0.345 N
ATOM     15  H72 UNL     1      16.348  70.709  31.435  1.00  0.00     0.176 HD
ATOM     16  H71 UNL     1      16.153  72.008  32.600  1.00  0.00     0.176 HD
ENDBRANCH  12  14
ENDBRANCH  11  12
BRANCH  11  17
HETATM   17  C6  UNL     1      15.804  67.924  34.075  1.00  0.00    -0.009 A
HETATM   18  C7  UNL     1      14.694  67.237  33.618  1.00  0.00     0.013 A
HETATM   19  C8  UNL     1      13.878  66.468  34.449  1.00  0.00     0.001 A
HETATM   20  C9  UNL     1      14.171  66.375  35.785  1.00  0.00     0.000 A
HETATM   21  C10 UNL     1      15.275  67.052  36.267  1.00  0.00     0.001 A
HETATM   22  C11 UNL     1      16.061  67.802  35.420  1.00  0.00     0.013 A
ENDBRANCH  11  17
ENDBRANCH  10  11
BRANCH   1  23
HETATM   23  N2  UNL     1      19.412  68.407  34.413  1.00  0.00    -0.292 N
ATOM     24  H2  UNL     1      18.789  69.032  34.925  1.00  0.00     0.187 HD
BRANCH  23  25
HETATM   25  N1  UNL     1      20.650  68.052  34.959  1.00  0.00    -0.344 N
ATOM     26  H12 UNL     1      21.503  68.314  34.464  1.00  0.00     0.176 HD
ATOM     27  H11 UNL     1      20.692  67.539  35.840  1.00  0.00     0.176 HD
ENDBRANCH  23  25
ENDBRANCH   1  23
BRANCH   8  28
HETATM   28  N5  UNL     1      17.894  68.182  28.958  1.00  0.00    -0.012 N
ATOM     29  H53 UNL     1      18.773  68.156  28.442  1.00  0.00     0.281 HD
ATOM     30  H52 UNL     1      17.331  67.681  28.269  1.00  0.00     0.281 HD
ATOM     31  H51 UNL     1      17.560  69.128  29.146  1.00  0.00     0.281 HD
ENDBRANCH   8  28
BRANCH   8  32
HETATM   32  O2  UNL     1      16.854  66.665  30.325  1.00  0.00    -0.336 OA
ATOM     33  H2  UNL     1      16.048  67.150  30.455  1.00  0.00     0.215 HD
ENDBRANCH   8  32
TORSDOF 8
ENDMDL