MODEL 1
REMARK VINA RESULT: -6.483963577      0.000      0.000
REMARK  6 active torsions:
REMARK  status: ('A' for Active; 'I' for Inactive)
REMARK    1  A    between atoms: C2_2  and  O1_4
REMARK    2  A    between atoms: C2_2  and  C4_6
REMARK    3  A    between atoms: C4_6  and  C5_8
REMARK    4  A    between atoms: C9_17  and  N3_18
REMARK    5  A    between atoms: N4_21  and  N5_22
REMARK    6  A    between atoms: N5_22  and  N6_24
ROOT
HETATM    1  C5  UNL     1      15.384  68.536  34.943  1.00  0.00     0.108 A
HETATM    2  C6  UNL     1      14.183  68.159  35.570  1.00  0.00     0.124 A
HETATM    3  N1  UNL     1      14.532  67.369  36.596  1.00  0.00    -0.345 N
ATOM      4  H1  UNL     1      13.880  66.933  37.248  1.00  0.00     0.167 HD
HETATM    5  C7  UNL     1      15.847  67.240  36.636  1.00  0.00     0.185 A
HETATM    6  C8  UNL     1      16.521  66.509  37.616  1.00  0.00     0.304 C
HETATM    7  O3  UNL     1      15.893  65.624  38.235  1.00  0.00    -0.263 OA
HETATM    8  N2  UNL     1      17.810  66.635  37.996  1.00  0.00    -0.151 N
ATOM      9  H2  UNL     1      18.107  66.109  38.818  1.00  0.00     0.188 HD
HETATM   10  C9  UNL     1      18.749  67.405  37.377  1.00  0.00     0.704 C
HETATM   11  N4  UNL     1      18.736  67.954  36.132  1.00  0.00    -0.042 N
HETATM   12  C10 UNL     1      17.679  67.965  35.303  1.00  0.00     0.241 C
HETATM   13  N7  UNL     1      17.971  67.920  33.928  1.00  0.00    -0.060 NA
HETATM   14  N8  UNL     1      16.374  67.965  35.599  1.00  0.00    -0.259 N
ENDROOT
BRANCH   1  15
HETATM   15  C4  UNL     1      15.471  69.395  33.797  1.00  0.00     0.211 C
HETATM   16  O2  UNL     1      15.818  70.561  33.776  1.00  0.00    -0.287 OA
BRANCH  15  17
HETATM   17  C2  UNL     1      15.109  68.854  32.430  1.00  0.00     0.117 C
HETATM   18  C1  UNL     1      15.966  69.552  31.397  1.00  0.00     0.054 C
HETATM   19  C3  UNL     1      13.671  69.054  32.089  1.00  0.00     0.054 C
BRANCH  17  20
HETATM   20  O1  UNL     1      15.407  67.491  32.327  1.00  0.00    -0.382 OA
ATOM     21  H1  UNL     1      15.840  67.377  31.489  1.00  0.00     0.211 HD
ENDBRANCH  17  20
ENDBRANCH  15  17
ENDBRANCH   1  15
BRANCH  11  22
HETATM   22  N5  UNL     1      19.916  68.528  35.724  1.00  0.00    -0.226 N
ATOM     23  H5  UNL     1      20.200  69.402  36.168  1.00  0.00     0.209 HD
BRANCH  22  24
HETATM   24  N6  UNL     1      20.753  67.990  34.738  1.00  0.00    -0.330 N
ATOM     25  H62 UNL     1      20.648  66.996  34.536  1.00  0.00     0.178 HD
ATOM     26  H61 UNL     1      21.449  68.528  34.221  1.00  0.00     0.178 HD
ENDBRANCH  22  24
ENDBRANCH  11  22
BRANCH  10  27
HETATM   27  N3  UNL     1      19.781  67.619  38.100  1.00  0.00    -0.233 N
ATOM     28  H32 UNL     1      19.711  68.350  38.808  1.00  0.00     0.174 HD
ATOM     29  H31 UNL     1      20.567  67.014  37.866  1.00  0.00     0.174 HD
ENDBRANCH  10  27
TORSDOF 6
ENDMDL