MODEL 1
REMARK VINA RESULT: -6.831647169      0.000      0.000
REMARK  7 active torsions:
REMARK  status: ('A' for Active; 'I' for Inactive)
REMARK    1  A    between atoms: C3_7  and  N3_8
REMARK    2  A    between atoms: N3_8  and  C4_10
REMARK    3  A    between atoms: C5_13  and  O2_14
REMARK    4  A    between atoms: N5_18  and  C7_19
REMARK    5  A    between atoms: C7_19  and  N6_20
REMARK    6  A    between atoms: N6_20  and  N7_21
REMARK    7  A    between atoms: N8_25  and  N9_27
ROOT
HETATM    1  C1  UNL     1      14.954  66.184  37.860  1.00  0.00     0.180 C
HETATM    2  N1  UNL     1      15.836  66.828  36.909  1.00  0.00    -0.134 N
HETATM    3  C2  UNL     1      15.239  67.460  35.856  1.00  0.00     0.354 A
HETATM    4  O1  UNL     1      13.982  67.476  35.733  1.00  0.00    -0.245 OA
HETATM    5  N2  UNL     1      15.942  68.091  34.911  1.00  0.00    -0.140 N
ATOM      6  H2  UNL     1      15.482  68.558  34.130  1.00  0.00     0.189 HD
HETATM    7  C3  UNL     1      17.280  68.083  35.029  1.00  0.00     0.706 A
HETATM    8  N5  UNL     1      17.889  67.468  36.053  1.00  0.00     0.004 N
HETATM    9  C8  UNL     1      17.172  66.819  37.027  1.00  0.00     0.720 A
HETATM   10  N8  UNL     1      17.773  66.243  37.989  1.00  0.00    -0.138 N
ATOM     11  H8  UNL     1      18.790  66.313  37.958  1.00  0.00     0.205 HD
ENDROOT
BRANCH   7  12
HETATM   12  N3  UNL     1      18.103  68.730  34.067  1.00  0.00    -0.169 N
ATOM     13  H3  UNL     1      19.059  68.991  34.310  1.00  0.00     0.186 HD
BRANCH  12  14
HETATM   14  C4  UNL     1      17.636  68.993  32.865  1.00  0.00     0.165 A
HETATM   15  N4  UNL     1      17.384  70.184  32.323  1.00  0.00    -0.317 N
HETATM   16  C5  UNL     1      16.918  70.223  31.105  1.00  0.00     0.148 A
ATOM     17  H4  UNL     1      17.551  71.043  32.847  1.00  0.00     0.170 HD
HETATM   18  C6  UNL     1      16.715  69.041  30.453  1.00  0.00     0.109 A
HETATM   19  S1  UNL     1      17.205  67.904  31.628  1.00  0.00    -0.061 SA
BRANCH  16  20
HETATM   20  O2  UNL     1      16.623  71.450  30.452  1.00  0.00    -0.346 OA
ATOM     21  H2  UNL     1      15.743  71.669  30.167  1.00  0.00     0.219 HD
ENDBRANCH  16  20
ENDBRANCH  12  14
ENDBRANCH   7  12
BRANCH   8  22
HETATM   22  C7  UNL     1      19.324  67.444  36.205  1.00  0.00     0.301 C
BRANCH  22  23
HETATM   23  N6  UNL     1      19.805  68.580  36.985  1.00  0.00    -0.127 NA
BRANCH  23  24
HETATM   24  N7  UNL     1      20.838  69.175  36.229  1.00  0.00    -0.347 N
ATOM     25  H72 UNL     1      21.803  68.849  36.169  1.00  0.00     0.172 HD
ATOM     26  H71 UNL     1      20.425  69.984  35.764  1.00  0.00     0.172 HD
ENDBRANCH  23  24
ENDBRANCH  22  23
ENDBRANCH   8  22
BRANCH  10  27
HETATM   27  N9  UNL     1      17.280  65.549  39.055  1.00  0.00    -0.331 N
ATOM     28  H92 UNL     1      17.286  64.538  38.919  1.00  0.00     0.177 HD
ATOM     29  H91 UNL     1      16.913  65.876  39.949  1.00  0.00     0.177 HD
ENDBRANCH  10  27
TORSDOF 7
ENDMDL