MODEL 4
REMARK VINA RESULT: -6.708274566      1.455      1.554
REMARK  9 active torsions:
REMARK  status: ('A' for Active; 'I' for Inactive)
REMARK    1  A    between atoms: N1_1  and  C1_4
REMARK    2  A    between atoms: N3_9  and  O1_10
REMARK    3  A    between atoms: O1_10  and  C4_11
REMARK    4  A    between atoms: C5_14  and  C6_15
REMARK    5  A    between atoms: C6_15  and  O3_16
REMARK    6  A    between atoms: C6_15  and  N5_18
REMARK    7  A    between atoms: N5_18  and  N6_20
REMARK    8  A    between atoms: C7_23  and  O4_24
REMARK    9  A    between atoms: C8_27  and  N8_28
ROOT
HETATM    1  C1  UNL     1      13.751  68.449  33.671  1.00  0.00     0.692 A
HETATM    2  N2  UNL     1      14.246  68.118  34.871  1.00  0.00    -0.174 N
ATOM      3  H2  UNL     1      13.634  67.948  35.668  1.00  0.00     0.186 HD
HETATM    4  C2  UNL     1      15.586  68.017  34.983  1.00  0.00     0.164 A
HETATM    5  C3  UNL     1      16.094  67.685  36.196  1.00  0.00     0.174 A
HETATM    6  N3  UNL     1      17.404  67.566  36.400  1.00  0.00    -0.211 N
HETATM    7  C5  UNL     1      18.269  67.787  35.352  1.00  0.00     0.166 A
HETATM    8  C7  UNL     1      17.778  68.122  34.123  1.00  0.00     0.199 A
HETATM    9  N7  UNL     1      16.433  68.236  33.945  1.00  0.00    -0.107 N
HETATM   10  C8  UNL     1      15.934  68.569  32.744  1.00  0.00     0.700 A
HETATM   11  N9  UNL     1      14.584  68.668  32.638  1.00  0.00    -0.022 N
ATOM     12  H9  UNL     1      14.184  68.919  31.734  1.00  0.00     0.203 HD
ENDROOT
BRANCH   7  13
HETATM   13  C6  UNL     1      19.674  67.657  35.652  1.00  0.00     0.188 C
BRANCH  13  14
HETATM   14  O3  UNL     1      20.127  66.486  35.999  1.00  0.00    -0.343 OA
ATOM     15  H3  UNL     1      20.141  66.264  36.923  1.00  0.00     0.219 HD
ENDBRANCH  13  14
BRANCH  13  16
HETATM   16  N5  UNL     1      20.630  68.652  35.618  1.00  0.00    -0.285 N
ATOM     17  H5  UNL     1      21.179  68.769  34.766  1.00  0.00     0.188 HD
BRANCH  16  18
HETATM   18  N6  UNL     1      20.886  69.521  36.713  1.00  0.00    -0.343 N
ATOM     19  H62 UNL     1      20.715  70.517  36.571  1.00  0.00     0.176 HD
ATOM     20  H61 UNL     1      21.227  69.194  37.616  1.00  0.00     0.176 HD
ENDBRANCH  16  18
ENDBRANCH  13  16
ENDBRANCH   7  13
BRANCH   6  21
HETATM   21  O1  UNL     1      17.853  67.227  37.656  1.00  0.00    -0.176 OA
BRANCH  21  22
HETATM   22  C4  UNL     1      17.533  66.018  38.235  1.00  0.00     0.395 C
HETATM   23  N4  UNL     1      16.454  65.813  39.114  1.00  0.00    -0.031 NA
HETATM   24  O2  UNL     1      18.282  65.031  37.935  1.00  0.00    -0.240 OA
ENDBRANCH  21  22
ENDBRANCH   6  21
BRANCH   8  25
HETATM   25  O4  UNL     1      18.564  68.358  33.014  1.00  0.00    -0.343 OA
ATOM     26  H4  UNL     1      18.979  69.191  32.824  1.00  0.00     0.219 HD
ENDBRANCH   8  25
BRANCH  10  27
HETATM   27  N8  UNL     1      16.677  68.796  31.718  1.00  0.00    -0.233 N
ATOM     28  H82 UNL     1      17.575  69.267  31.834  1.00  0.00     0.174 HD
ATOM     29  H81 UNL     1      16.413  68.521  30.772  1.00  0.00     0.174 HD
ENDBRANCH  10  27
BRANCH   1  30
HETATM   30  N1  UNL     1      12.487  68.576  33.441  1.00  0.00    -0.234 N
ATOM     31  H12 UNL     1      11.976  69.241  34.021  1.00  0.00     0.174 HD
ATOM     32  H11 UNL     1      11.997  68.047  32.719  1.00  0.00     0.174 HD
ENDBRANCH   1  30
TORSDOF 9
ENDMDL