MODEL 2
REMARK VINA RESULT: -6.230195081      6.648      8.496
REMARK  3 active torsions:
REMARK  status: ('A' for Active; 'I' for Inactive)
REMARK    1  A    between atoms: N2_5  and  C2_6
REMARK       I    between atoms: N6_12  and  C4_13
REMARK       I    between atoms: C4_13  and  N7_14
REMARK       I    between atoms: C4_13  and  N8_18
REMARK    2  A    between atoms: C5_24  and  C6_25
REMARK    3  A    between atoms: C6_25  and  O1_26
ROOT
HETATM    1  N1  UNL     1      12.474  66.316  41.972  1.00  0.00    -0.384 N
ATOM      2  H11 UNL     1      12.760  66.192  42.942  1.00  0.00     0.157 HD
ATOM      3  H12 UNL     1      11.907  67.094  42.307  1.00  0.00     0.157 HD
HETATM    4  C1  UNL     1      12.707  65.754  40.814  1.00  0.00     0.149 C
HETATM    5  N2  UNL     1      12.307  65.926  39.460  1.00  0.00    -0.218 N
HETATM    6  N4  UNL     1      12.604  64.599  39.239  1.00  0.00    -0.084 NA
HETATM    7  C3  UNL     1      13.527  64.628  40.329  1.00  0.00     0.266 C
HETATM    8  N5  UNL     1      13.507  63.479  41.208  1.00  0.00    -0.073 NA
HETATM    9  N6  UNL     1      14.506  62.565  40.932  1.00  0.00    -0.178 N
HETATM   10  C4  UNL     1      14.295  61.192  41.418  1.00  0.00     0.514 C
HETATM   11  N7  UNL     1      15.422  60.395  41.043  1.00  0.00    -0.030 N
ATOM     12  H71 UNL     1      15.276  59.443  41.380  1.00  0.00     0.279 HD
ATOM     13  H72 UNL     1      16.305  60.791  41.364  1.00  0.00     0.279 HD
ATOM     14  H73 UNL     1      15.608  60.429  40.041  1.00  0.00     0.279 HD
HETATM   15  N8  UNL     1      13.086  60.630  40.858  1.00  0.00    -0.030 N
ATOM     16  H81 UNL     1      12.940  59.679  41.195  1.00  0.00     0.279 HD
ATOM     17  H82 UNL     1      13.086  60.674  39.839  1.00  0.00     0.279 HD
ATOM     18  H83 UNL     1      12.275  61.223  41.037  1.00  0.00     0.279 HD
HETATM   19  N9  UNL     1      15.678  62.890  40.226  1.00  0.00    -0.282 N
ATOM     20  H9  UNL     1      16.378  62.163  40.082  1.00  0.00     0.188 HD
HETATM   21  C5  UNL     1      15.906  64.068  39.753  1.00  0.00     0.100 C
HETATM   22  C7  UNL     1      14.880  65.079  39.982  1.00  0.00     0.227 C
HETATM   23  O2  UNL     1      15.176  66.318  39.875  1.00  0.00    -0.286 OA
ENDROOT
BRANCH   5  24
HETATM   24  C2  UNL     1      11.817  67.063  38.746  1.00  0.00     0.205 C
HETATM   25  N3  UNL     1      12.607  67.782  37.824  1.00  0.00    -0.068 NA
HETATM   26  S1  UNL     1      10.287  67.518  39.030  1.00  0.00    -0.043 SA
ENDBRANCH   5  24
BRANCH  21  27
HETATM   27  C6  UNL     1      17.139  64.428  39.004  1.00  0.00     0.226 C
BRANCH  27  28
HETATM   28  O1  UNL     1      17.855  65.401  39.694  1.00  0.00    -0.395 OA
ATOM     29  H1  UNL     1      17.585  66.268  39.416  1.00  0.00     0.209 HD
ENDBRANCH  27  28
ENDBRANCH  21  27
TORSDOF 3
ENDMDL