MODEL 2
REMARK VINA RESULT: -7.754211431      2.195      4.096
REMARK  4 active torsions:
REMARK  status: ('A' for Active; 'I' for Inactive)
REMARK    1  A    between atoms: C3_7  and  N3_8
REMARK    2  A    between atoms: C4_14  and  C5_15
REMARK    3  A    between atoms: N7_17  and  N8_19
REMARK    4  A    between atoms: N8_19  and  C6_21
ROOT
HETATM    1  C1  UNL     1     -63.054  14.757  53.819  1.00  0.00     0.180 C
HETATM    2  N1  UNL     1     -62.748  15.523  55.016  1.00  0.00    -0.134 N
HETATM    3  C2  UNL     1     -61.844  15.064  55.903  1.00  0.00     0.354 A
HETATM    4  O1  UNL     1     -61.272  13.967  55.676  1.00  0.00    -0.245 OA
HETATM    5  N2  UNL     1     -61.561  15.774  57.011  1.00  0.00    -0.139 N
ATOM      6  H2  UNL     1     -60.873  15.403  57.665  1.00  0.00     0.189 HD
HETATM    7  C3  UNL     1     -62.146  16.951  57.295  1.00  0.00     0.716 A
HETATM    8  N4  UNL     1     -63.054  17.415  56.407  1.00  0.00     0.092 N
HETATM    9  N5  UNL     1     -63.771  18.510  56.416  1.00  0.00    -0.246 N
ATOM     10  H5  UNL     1     -63.750  19.225  57.142  1.00  0.00     0.190 HD
HETATM   11  C4  UNL     1     -64.550  18.539  55.296  1.00  0.00     0.179 A
HETATM   12  N11 UNL     1     -64.258  17.410  54.626  1.00  0.00    -0.169 N
ATOM     13  H11 UNL     1     -64.677  17.133  53.737  1.00  0.00     0.186 HD
HETATM   14  C10 UNL     1     -63.334  16.700  55.298  1.00  0.00     0.726 A
ENDROOT
BRANCH  11  15
HETATM   15  C5  UNL     1     -65.496  19.576  54.911  1.00  0.00     0.177 C
HETATM   16  N6  UNL     1     -66.588  19.910  55.757  1.00  0.00    -0.077 NA
HETATM   17  N7  UNL     1     -65.334  20.183  53.805  1.00  0.00    -0.283 N
ATOM     18  H7  UNL     1     -66.000  20.909  53.542  1.00  0.00     0.188 HD
BRANCH  17  19
HETATM   19  N8  UNL     1     -64.283  19.896  52.941  1.00  0.00    -0.283 N
ATOM     20  H8  UNL     1     -63.329  20.150  53.199  1.00  0.00     0.188 HD
BRANCH  19  21
HETATM   21  C6  UNL     1     -64.508  19.317  51.828  1.00  0.00     0.135 A
HETATM   22  C7  UNL     1     -63.787  19.674  50.724  1.00  0.00     0.137 A
HETATM   23  N9  UNL     1     -64.006  19.075  49.529  1.00  0.00    -0.371 N
HETATM   24  C8  UNL     1     -64.954  18.114  49.454  1.00  0.00     0.104 A
ATOM     25  H9  UNL     1     -63.467  19.342  48.705  1.00  0.00     0.164 HD
HETATM   26  C9  UNL     1     -65.682  17.752  50.562  1.00  0.00     0.106 A
HETATM   27  N10 UNL     1     -65.441  18.365  51.735  1.00  0.00    -0.349 N
ATOM     28  H10 UNL     1     -65.977  18.101  52.562  1.00  0.00     0.167 HD
ENDBRANCH  19  21
ENDBRANCH  17  19
ENDBRANCH  11  15
BRANCH   7  29
HETATM   29  N3  UNL     1     -61.835  17.590  58.375  1.00  0.00    -0.232 N
ATOM     30  H32 UNL     1     -61.163  17.231  59.054  1.00  0.00     0.174 HD
ATOM     31  H31 UNL     1     -62.264  18.492  58.582  1.00  0.00     0.174 HD
ENDBRANCH   7  29
TORSDOF 4
ENDMDL