MODEL 4
REMARK VINA RESULT: -7.987480906      2.810      6.646
REMARK  3 active torsions:
REMARK  status: ('A' for Active; 'I' for Inactive)
REMARK       I    between atoms: C2_2  and  N1_4
REMARK    1  A    between atoms: N1_4  and  C3_6
REMARK    2  A    between atoms: C5_12  and  C6_13
REMARK    3  A    between atoms: C9_21  and  N6_22
ROOT
HETATM    1  C3  UNL     1     -64.549  18.973  52.531  1.00  0.00     0.714 A
HETATM    2  N2  UNL     1     -65.624  18.204  52.703  1.00  0.00    -0.129 N
ATOM      3  H2  UNL     1     -66.063  18.160  53.622  1.00  0.00     0.205 HD
HETATM    4  N3  UNL     1     -66.135  17.498  51.712  1.00  0.00    -0.269 N
ATOM      5  H3  UNL     1     -66.959  16.923  51.889  1.00  0.00     0.189 HD
HETATM    6  C4  UNL     1     -65.601  17.513  50.478  1.00  0.00     0.161 A
HETATM    7  C5  UNL     1     -65.967  16.852  49.285  1.00  0.00     0.096 A
HETATM    8  C7  UNL     1     -65.066  17.241  48.344  1.00  0.00     0.098 A
HETATM    9  C8  UNL     1     -64.867  16.963  46.997  1.00  0.00     0.274 A
HETATM   10  O3  UNL     1     -65.646  16.179  46.408  1.00  0.00    -0.267 OA
HETATM   11  N5  UNL     1     -63.838  17.548  46.359  1.00  0.00    -0.155 N
ATOM     12  H5  UNL     1     -63.698  17.341  45.371  1.00  0.00     0.187 HD
HETATM   13  C9  UNL     1     -62.992  18.388  46.961  1.00  0.00     0.680 A
HETATM   14  N7  UNL     1     -63.197  18.646  48.261  1.00  0.00    -0.174 N
ATOM     15  H7  UNL     1     -62.555  19.288  48.726  1.00  0.00     0.186 HD
HETATM   16  C10 UNL     1     -64.190  18.119  48.992  1.00  0.00     0.162 A
HETATM   17  N8  UNL     1     -64.528  18.271  50.280  1.00  0.00    -0.205 N
HETATM   18  N9  UNL     1     -64.017  18.984  51.287  1.00  0.00    -0.120 N
ATOM     19  H9  UNL     1     -63.194  19.559  51.111  1.00  0.00     0.206 HD
ENDROOT
BRANCH   1  20
HETATM   20  N1  UNL     1     -63.987  19.739  53.583  1.00  0.00    -0.157 N
HETATM   21  C2  UNL     1     -63.134  19.235  54.576  1.00  0.00     0.232 C
HETATM   22  C1  UNL     1     -62.720  17.840  54.642  1.00  0.00     0.118 C
HETATM   23  O1  UNL     1     -62.697  20.040  55.470  1.00  0.00    -0.273 OA
ATOM     24  H1  UNL     1     -64.220  20.731  53.620  1.00  0.00     0.187 HD
ENDBRANCH   1  20
BRANCH   7  25
HETATM   25  C6  UNL     1     -67.083  15.960  49.171  1.00  0.00     0.270 C
HETATM   26  N4  UNL     1     -68.236  16.040  48.394  1.00  0.00    -0.057 NA
HETATM   27  O2  UNL     1     -67.034  14.891  49.907  1.00  0.00    -0.271 OA
ENDBRANCH   7  25
BRANCH  13  28
HETATM   28  N6  UNL     1     -61.998  18.943  46.317  1.00  0.00    -0.234 N
ATOM     29  H62 UNL     1     -61.036  18.646  46.483  1.00  0.00     0.174 HD
ATOM     30  H61 UNL     1     -62.149  19.685  45.633  1.00  0.00     0.174 HD
ENDBRANCH  13  28
TORSDOF 3
ENDMDL