MODEL 5
REMARK VINA RESULT: -7.388962298      3.276      7.254
REMARK  5 active torsions:
REMARK  status: ('A' for Active; 'I' for Inactive)
REMARK    1  A    between atoms: N1_1  and  N2_4
REMARK    2  A    between atoms: N2_4  and  C1_6
REMARK    3  A    between atoms: C1_6  and  C2_8
REMARK    4  A    between atoms: C5_16  and  C6_17
REMARK       I    between atoms: C6_17  and  N6_19
REMARK    5  A    between atoms: N6_19  and  C7_21
ROOT
HETATM    1  C2  UNL     1     -64.641  17.843  52.796  1.00  0.00     0.089 A
HETATM    2  C3  UNL     1     -65.327  16.792  52.224  1.00  0.00     0.132 A
HETATM    3  N3  UNL     1     -65.157  15.720  53.029  1.00  0.00    -0.299 N
HETATM    4  C4  UNL     1     -65.607  14.435  52.951  1.00  0.00     0.206 A
HETATM    5  N4  UNL     1     -65.282  13.550  53.910  1.00  0.00    -0.295 N
ATOM      6  H4  UNL     1     -65.632  12.596  53.827  1.00  0.00     0.187 HD
HETATM    7  N5  UNL     1     -64.532  13.854  54.955  1.00  0.00    -0.292 N
ATOM      8  H5  UNL     1     -64.305  13.158  55.664  1.00  0.00     0.187 HD
HETATM    9  C5  UNL     1     -64.079  15.124  55.047  1.00  0.00     0.162 A
HETATM   10  C8  UNL     1     -64.399  16.048  54.076  1.00  0.00     0.147 A
HETATM   11  N11 UNL     1     -64.091  17.338  53.926  1.00  0.00    -0.336 N
ATOM     12  H11 UNL     1     -63.516  17.874  54.578  1.00  0.00     0.168 HD
ENDROOT
BRANCH   9  13
HETATM   13  C6  UNL     1     -63.246  15.565  56.156  1.00  0.00     0.291 C
HETATM   14  O1  UNL     1     -63.712  16.244  57.085  1.00  0.00    -0.265 OA
HETATM   15  N6  UNL     1     -61.854  15.179  56.126  1.00  0.00    -0.152 N
ATOM     16  H6  UNL     1     -61.366  14.974  55.254  1.00  0.00     0.188 HD
BRANCH  15  17
HETATM   17  C7  UNL     1     -61.268  15.109  57.277  1.00  0.00     0.713 A
HETATM   18  N7  UNL     1     -60.853  14.038  57.970  1.00  0.00    -0.113 N
HETATM   19  N8  UNL     1     -60.309  14.461  59.097  1.00  0.00     0.009 NA
ATOM     20  H7  UNL     1     -60.941  13.065  57.677  1.00  0.00     0.203 HD
HETATM   21  N9  UNL     1     -60.356  15.782  59.162  1.00  0.00    -0.212 N
HETATM   22  N10 UNL     1     -60.942  16.179  58.049  1.00  0.00    -0.118 N
ATOM     23  H9  UNL     1     -60.011  16.372  59.918  1.00  0.00     0.206 HD
ATOM     24  H10 UNL     1     -61.125  17.152  57.803  1.00  0.00     0.207 HD
ENDBRANCH  15  17
ENDBRANCH   9  13
BRANCH   1  25
HETATM   25  C1  UNL     1     -64.543  19.202  52.276  1.00  0.00     0.143 C
HETATM   26  S1  UNL     1     -64.101  19.393  50.713  1.00  0.00    -0.057 SA
BRANCH  25  27
HETATM   27  N2  UNL     1     -64.823  20.297  53.108  1.00  0.00    -0.295 N
ATOM     28  H2  UNL     1     -64.287  21.153  52.966  1.00  0.00     0.187 HD
BRANCH  27  29
HETATM   29  N1  UNL     1     -65.789  20.290  54.115  1.00  0.00    -0.344 N
ATOM     30  H12 UNL     1     -65.550  19.803  54.979  1.00  0.00     0.176 HD
ATOM     31  H11 UNL     1     -66.703  20.736  54.036  1.00  0.00     0.176 HD
ENDBRANCH  27  29
ENDBRANCH  25  27
ENDBRANCH   1  25
TORSDOF 5
ENDMDL