MODEL 1
REMARK VINA RESULT: -8.461719782      0.000      0.000
REMARK  4 active torsions:
REMARK  status: ('A' for Active; 'I' for Inactive)
REMARK    1  A    between atoms: N1_2  and  C2_4
REMARK    2  A    between atoms: N4_12  and  C6_13
REMARK    3  A    between atoms: C6_13  and  N5_14
REMARK    4  A    between atoms: C9_24  and  N9_25
ROOT
HETATM    1  N5  UNL     1     -64.169  19.476  52.971  1.00  0.00    -0.216 N
HETATM    2  N6  UNL     1     -65.262  20.195  53.232  1.00  0.00    -0.233 N
ATOM      3  H6  UNL     1     -65.792  20.724  52.539  1.00  0.00     0.209 HD
HETATM    4  N7  UNL     1     -65.553  20.123  54.496  1.00  0.00    -0.277 N
ATOM      5  H7  UNL     1     -66.345  20.587  54.941  1.00  0.00     0.189 HD
HETATM    6  C7  UNL     1     -64.659  19.348  55.131  1.00  0.00     0.165 A
HETATM    7  C8  UNL     1     -64.536  18.952  56.446  1.00  0.00     0.291 A
HETATM    8  O2  UNL     1     -65.321  19.312  57.355  1.00  0.00    -0.265 OA
HETATM    9  N8  UNL     1     -63.519  18.138  56.757  1.00  0.00    -0.154 N
ATOM     10  H8  UNL     1     -63.393  17.823  57.719  1.00  0.00     0.187 HD
HETATM   11  C9  UNL     1     -62.663  17.737  55.799  1.00  0.00     0.680 A
HETATM   12  N10 UNL     1     -62.788  18.126  54.525  1.00  0.00    -0.172 N
ATOM     13  H10 UNL     1     -62.112  17.793  53.839  1.00  0.00     0.186 HD
HETATM   14  C10 UNL     1     -63.775  18.942  54.119  1.00  0.00     0.178 A
ENDROOT
BRANCH   1  15
HETATM   15  C6  UNL     1     -63.529  19.375  51.675  1.00  0.00     0.237 C
BRANCH  15  16
HETATM   16  N4  UNL     1     -64.194  18.544  50.724  1.00  0.00    -0.231 N
HETATM   17  C2  UNL     1     -63.871  18.543  49.433  1.00  0.00     0.125 A
HETATM   18  C3  UNL     1     -64.588  17.731  48.540  1.00  0.00     0.082 A
HETATM   19  C4  UNL     1     -65.618  16.944  49.006  1.00  0.00     0.119 A
HETATM   20  N2  UNL     1     -66.345  16.122  48.105  1.00  0.00    -0.096 NA
HETATM   21  C5  UNL     1     -65.872  17.014  50.347  1.00  0.00     0.284 A
HETATM   22  O1  UNL     1     -66.832  16.275  50.765  1.00  0.00    -0.265 OA
HETATM   23  N3  UNL     1     -65.200  17.779  51.199  1.00  0.00    -0.256 N
ATOM     24  H3  UNL     1     -65.439  17.788  52.191  1.00  0.00     0.191 HD
BRANCH  17  25
HETATM   25  N1  UNL     1     -62.916  19.211  48.919  1.00  0.00    -0.379 N
HETATM   26  C1  UNL     1     -63.155  20.396  48.151  1.00  0.00     0.147 C
ATOM     27  H1  UNL     1     -61.956  18.893  49.057  1.00  0.00     0.160 HD
ENDBRANCH  17  25
ENDBRANCH  15  16
ENDBRANCH   1  15
BRANCH  11  28
HETATM   28  N9  UNL     1     -61.662  16.939  56.091  1.00  0.00    -0.234 N
ATOM     29  H92 UNL     1     -61.784  16.303  56.879  1.00  0.00     0.174 HD
ATOM     30  H91 UNL     1     -60.803  16.965  55.543  1.00  0.00     0.174 HD
ENDBRANCH  11  28
TORSDOF 4
ENDMDL