MODEL 3
REMARK VINA RESULT: -7.553517758      2.152      6.638
REMARK  3 active torsions:
REMARK  status: ('A' for Active; 'I' for Inactive)
REMARK    1  A    between atoms: C4_7  and  C5_8
REMARK       I    between atoms: C5_8  and  N3_10
REMARK    2  A    between atoms: N3_10  and  C6_12
REMARK    3  A    between atoms: C9_21  and  N8_22
ROOT
HETATM    1  C6  UNL     1     -64.629  18.599  53.888  1.00  0.00     0.158 A
HETATM    2  N4  UNL     1     -63.499  17.884  53.789  1.00  0.00    -0.282 N
ATOM      3  H4  UNL     1     -63.209  17.533  52.876  1.00  0.00     0.188 HD
HETATM    4  N5  UNL     1     -62.748  17.620  54.852  1.00  0.00    -0.285 N
ATOM      5  H5  UNL     1     -61.899  17.072  54.717  1.00  0.00     0.188 HD
HETATM    6  C7  UNL     1     -63.045  18.036  56.089  1.00  0.00     0.157 A
HETATM    7  N6  UNL     1     -62.218  17.747  57.211  1.00  0.00    -0.079 NA
HETATM    8  C8  UNL     1     -64.208  18.780  56.227  1.00  0.00     0.125 A
HETATM    9  N7  UNL     1     -64.569  19.250  57.523  1.00  0.00    -0.096 NA
HETATM   10  C9  UNL     1     -64.987  19.053  55.126  1.00  0.00     0.175 A
ENDROOT
BRANCH   1  11
HETATM   11  N3  UNL     1     -65.394  18.876  52.884  1.00  0.00    -0.308 N
HETATM   12  C5  UNL     1     -64.792  18.878  51.576  1.00  0.00     0.246 C
HETATM   13  O1  UNL     1     -64.044  19.848  51.300  1.00  0.00    -0.271 OA
ATOM     14  H3  UNL     1     -66.384  19.084  53.012  1.00  0.00     0.170 HD
BRANCH  12  15
HETATM   15  C4  UNL     1     -65.011  17.822  50.590  1.00  0.00     0.178 C
HETATM   16  C3  UNL     1     -64.548  18.148  49.210  1.00  0.00     0.054 C
HETATM   17  C2  UNL     1     -64.919  17.069  48.243  1.00  0.00     0.125 C
HETATM   18  N2  UNL     1     -66.147  16.411  48.537  1.00  0.00    -0.365 N
HETATM   19  C1  UNL     1     -66.839  16.561  49.600  1.00  0.00     0.184 C
ATOM     20  H2  UNL     1     -66.506  15.763  47.837  1.00  0.00     0.162 HD
HETATM   21  N1  UNL     1     -68.067  15.855  49.818  1.00  0.00    -0.064 NA
HETATM   22  N9  UNL     1     -66.417  17.454  50.622  1.00  0.00    -0.351 N
ATOM     23  H9  UNL     1     -67.058  17.812  51.330  1.00  0.00     0.163 HD
ENDBRANCH  12  15
ENDBRANCH   1  11
BRANCH  10  24
HETATM   24  N8  UNL     1     -66.195  19.806  55.273  1.00  0.00    -0.110 N
HETATM   25  O2  UNL     1     -66.408  20.716  54.463  1.00  0.00    -0.532 OA
HETATM   26  O3  UNL     1     -67.108  19.562  56.254  1.00  0.00    -0.532 OA
ENDBRANCH  10  24
TORSDOF 3
ENDMDL