MODEL 4
REMARK VINA RESULT: -6.398051800      2.107      5.054
REMARK  5 active torsions:
REMARK  status: ('A' for Active; 'I' for Inactive)
REMARK    1  A    between atoms: O1_2  and  C2_3
REMARK    2  A    between atoms: C4_6  and  C5_7
REMARK    3  A    between atoms: C7_16  and  O4_17
REMARK    4  A    between atoms: C7_16  and  C8_19
REMARK    5  A    between atoms: C9_20  and  N5_21
ROOT
HETATM    1  C2  UNL     1     -63.994  17.498  52.478  1.00  0.00     0.173 A
HETATM    2  C3  UNL     1     -64.152  16.454  53.316  1.00  0.00     0.140 A
HETATM    3  N1  UNL     1     -63.981  16.608  54.633  1.00  0.00    -0.226 N
HETATM    4  C4  UNL     1     -63.649  17.803  55.140  1.00  0.00     0.197 A
HETATM    5  N3  UNL     1     -63.487  18.865  54.316  1.00  0.00    -0.301 N
ATOM      6  H3  UNL     1     -63.235  19.771  54.710  1.00  0.00     0.171 HD
HETATM    7  C6  UNL     1     -63.651  18.747  52.997  1.00  0.00     0.283 A
HETATM    8  O3  UNL     1     -63.509  19.710  52.204  1.00  0.00    -0.265 OA
HETATM    9  N4  UNL     1     -64.167  15.536  55.517  1.00  0.00    -0.276 N
ATOM     10  H4  UNL     1     -64.617  15.725  56.412  1.00  0.00     0.185 HD
HETATM   11  C7  UNL     1     -63.762  14.194  55.237  1.00  0.00     0.265 C
HETATM   12  C10 UNL     1     -64.162  13.674  53.918  1.00  0.00     0.117 C
HETATM   13  N6  UNL     1     -64.192  12.420  53.727  1.00  0.00    -0.392 N
ATOM     14  H61 UNL     1     -64.469  12.060  52.814  1.00  0.00     0.156 HD
ATOM     15  H62 UNL     1     -63.952  11.738  54.446  1.00  0.00     0.156 HD
HETATM   16  S1  UNL     1     -64.584  14.870  52.658  1.00  0.00    -0.048 SA
ENDROOT
BRANCH  11  17
HETATM   17  O4  UNL     1     -64.236  13.360  56.249  1.00  0.00    -0.354 OA
ATOM     18  H4  UNL     1     -63.564  13.273  56.915  1.00  0.00     0.214 HD
ENDBRANCH  11  17
BRANCH  11  19
HETATM   19  C8  UNL     1     -62.280  14.070  55.285  1.00  0.00    -0.014 C
HETATM   20  C9  UNL     1     -61.078  13.963  55.327  1.00  0.00     0.009 C
BRANCH  20  21
HETATM   21  N5  UNL     1     -59.685  13.827  55.391  1.00  0.00    -0.359 N
ATOM     22  H52 UNL     1     -60.452  14.431  55.096  1.00  0.00     0.166 HD
ATOM     23  H51 UNL     1     -58.673  13.716  55.443  1.00  0.00     0.166 HD
ENDBRANCH  20  21
ENDBRANCH  11  19
BRANCH   4  24
HETATM   24  C5  UNL     1     -63.401  18.046  56.551  1.00  0.00     0.300 C
HETATM   25  N2  UNL     1     -62.160  17.552  57.107  1.00  0.00    -0.054 NA
HETATM   26  O2  UNL     1     -64.143  18.639  57.347  1.00  0.00    -0.268 OA
ENDBRANCH   4  24
BRANCH   1  27
HETATM   27  O1  UNL     1     -64.170  17.340  51.120  1.00  0.00    -0.349 OA
HETATM   28  C1  UNL     1     -65.392  17.604  50.460  1.00  0.00     0.210 C
ENDBRANCH   1  27
TORSDOF 5
ENDMDL