MODEL 2
REMARK VINA RESULT: -7.521567964      5.224      8.172
REMARK  5 active torsions:
REMARK  status: ('A' for Active; 'I' for Inactive)
REMARK       I    between atoms: N1_1  and  C1_4
REMARK       I    between atoms: C1_4  and  N3_6
REMARK    1  A    between atoms: N3_6  and  C2_8
REMARK    2  A    between atoms: C3_11  and  N5_12
REMARK    3  A    between atoms: N5_12  and  C4_14
REMARK    4  A    between atoms: C4_14  and  C5_15
REMARK    5  A    between atoms: C5_15  and  O1_16
ROOT
HETATM    1  C2  UNL     1     -63.299  15.830  54.769  1.00  0.00     0.154 A
HETATM    2  N4  UNL     1     -63.664  16.991  54.231  1.00  0.00    -0.174 N
ATOM      3  H4  UNL     1     -64.226  16.995  53.380  1.00  0.00     0.186 HD
HETATM    4  C3  UNL     1     -63.295  18.186  54.807  1.00  0.00     0.681 A
HETATM    5  N6  UNL     1     -62.558  18.144  55.924  1.00  0.00    -0.174 N
ATOM      6  H6  UNL     1     -62.277  19.021  56.361  1.00  0.00     0.186 HD
HETATM    7  C6  UNL     1     -62.171  16.969  56.496  1.00  0.00     0.153 A
HETATM    8  N7  UNL     1     -61.421  17.000  57.632  1.00  0.00    -0.322 N
ATOM      9  H7  UNL     1     -61.139  17.878  58.068  1.00  0.00     0.169 HD
HETATM   10  C7  UNL     1     -61.071  15.802  58.146  1.00  0.00     0.166 A
HETATM   11  N8  UNL     1     -60.324  15.718  59.279  1.00  0.00    -0.281 N
ATOM     12  H8  UNL     1     -60.021  16.570  59.750  1.00  0.00     0.188 HD
HETATM   13  N9  UNL     1     -59.987  14.539  59.773  1.00  0.00    -0.294 N
ATOM     14  H9  UNL     1     -59.426  14.520  60.625  1.00  0.00     0.187 HD
HETATM   15  C8  UNL     1     -60.337  13.373  59.227  1.00  0.00     0.199 A
HETATM   16  N10 UNL     1     -61.078  13.415  58.104  1.00  0.00    -0.334 N
ATOM     17  H10 UNL     1     -61.367  12.547  57.655  1.00  0.00     0.168 HD
HETATM   18  C9  UNL     1     -61.443  14.606  57.568  1.00  0.00     0.153 A
HETATM   19  N11 UNL     1     -62.188  14.605  56.437  1.00  0.00    -0.333 N
ATOM     20  H11 UNL     1     -62.472  13.730  55.995  1.00  0.00     0.168 HD
HETATM   21  C10 UNL     1     -62.539  15.777  55.922  1.00  0.00     0.124 A
ENDROOT
BRANCH   1  22
HETATM   22  N3  UNL     1     -63.652  14.724  54.220  1.00  0.00    -0.315 N
HETATM   23  C1  UNL     1     -64.935  14.149  54.404  1.00  0.00     0.187 C
HETATM   24  N1  UNL     1     -65.736  14.200  53.370  1.00  0.00    -0.373 N
HETATM   25  N2  UNL     1     -65.341  13.550  55.629  1.00  0.00    -0.064 NA
ATOM     26  H12 UNL     1     -66.658  13.787  53.501  1.00  0.00     0.158 HD
ATOM     27  H11 UNL     1     -65.445  14.629  52.491  1.00  0.00     0.158 HD
ATOM     28  H3  UNL     1     -62.980  14.238  53.627  1.00  0.00     0.170 HD
ENDBRANCH   1  22
BRANCH   4  29
HETATM   29  N5  UNL     1     -63.659  19.282  54.270  1.00  0.00    -0.224 N
ATOM     30  H5  UNL     1     -62.955  20.014  54.181  1.00  0.00     0.177 HD
BRANCH  29  31
HETATM   31  C4  UNL     1     -64.959  19.571  53.786  1.00  0.00     0.164 C
BRANCH  31  32
HETATM   32  C5  UNL     1     -65.922  19.770  54.953  1.00  0.00     0.184 C
BRANCH  32  33
HETATM   33  O1  UNL     1     -66.703  20.885  54.775  1.00  0.00    -0.399 OA
ATOM     34  H1  UNL     1     -66.710  21.432  55.551  1.00  0.00     0.209 HD
ENDBRANCH  32  33
ENDBRANCH  31  32
ENDBRANCH  29  31
ENDBRANCH   4  29
TORSDOF 5
ENDMDL