MODEL 2
REMARK VINA RESULT: -6.600367818      1.643      4.098
REMARK  2 active torsions:
REMARK  status: ('A' for Active; 'I' for Inactive)
REMARK    1  A    between atoms: C6_14  and  N7_15
REMARK    2  A    between atoms: C6_14  and  C8_22
REMARK       I    between atoms: N7_15  and  C7_17
ROOT
HETATM    1  N1  UNL     1     -62.980  14.356  52.026  1.00  0.00    -0.195 NA
HETATM    2  C1  UNL     1     -63.834  15.011  51.661  1.00  0.00     0.097 C
HETATM    3  C2  UNL     1     -64.909  15.868  51.215  1.00  0.00     0.241 C
HETATM    4  C3  UNL     1     -64.966  17.064  52.166  1.00  0.00     0.097 C
HETATM    5  N2  UNL     1     -64.988  17.960  52.915  1.00  0.00    -0.195 NA
HETATM    6  C4  UNL     1     -66.214  15.230  51.609  1.00  0.00     0.137 C
HETATM    7  N3  UNL     1     -66.225  14.405  52.781  1.00  0.00    -0.084 NA
HETATM    8  N4  UNL     1     -67.264  15.335  50.927  1.00  0.00    -0.320 N
ATOM      9  H4  UNL     1     -68.123  14.904  51.268  1.00  0.00     0.169 HD
HETATM   10  C5  UNL     1     -67.285  16.030  49.711  1.00  0.00     0.191 C
HETATM   11  N5  UNL     1     -68.493  16.249  48.996  1.00  0.00    -0.063 NA
HETATM   12  N6  UNL     1     -66.206  16.501  49.256  1.00  0.00    -0.330 N
ATOM     13  H6  UNL     1     -66.261  17.024  48.382  1.00  0.00     0.165 HD
HETATM   14  C6  UNL     1     -64.914  16.367  49.855  1.00  0.00     0.193 C
ENDROOT
BRANCH  14  15
HETATM   15  N7  UNL     1     -64.318  15.182  49.091  1.00  0.00    -0.330 N
HETATM   16  C7  UNL     1     -65.037  14.398  48.168  1.00  0.00     0.184 C
HETATM   17  N8  UNL     1     -65.622  13.311  48.471  1.00  0.00    -0.374 N
HETATM   18  N9  UNL     1     -65.123  14.797  46.810  1.00  0.00    -0.064 NA
ATOM     19  H82 UNL     1     -65.560  13.023  49.448  1.00  0.00     0.158 HD
ATOM     20  H81 UNL     1     -66.142  12.743  47.803  1.00  0.00     0.158 HD
ATOM     21  H7  UNL     1     -63.340  14.946  49.261  1.00  0.00     0.165 HD
ENDBRANCH  14  15
BRANCH  14  22
HETATM   22  C8  UNL     1     -64.121  17.563  49.495  1.00  0.00     0.061 A
HETATM   23  C9  UNL     1     -62.972  17.561  48.738  1.00  0.00     0.029 A
HETATM   24  C10 UNL     1     -62.296  18.772  48.452  1.00  0.00     0.003 A
HETATM   25  C11 UNL     1     -62.806  19.939  48.945  1.00  0.00     0.017 A
HETATM   26  C12 UNL     1     -63.939  19.925  49.693  1.00  0.00     0.088 A
HETATM   27  N10 UNL     1     -64.551  18.759  49.935  1.00  0.00    -0.366 N
ATOM     28  H10 UNL     1     -65.404  18.779  50.493  1.00  0.00     0.165 HD
ENDBRANCH  14  22
TORSDOF 2
ENDMDL