MODEL 5
REMARK VINA RESULT: -6.630623216      1.541      1.935
REMARK  4 active torsions:
REMARK  status: ('A' for Active; 'I' for Inactive)
REMARK    1  A    between atoms: N1_1  and  C1_4
REMARK    2  A    between atoms: C4_14  and  S1_15
REMARK    3  A    between atoms: S1_15  and  N5_18
REMARK    4  A    between atoms: C6_21  and  N6_22
ROOT
HETATM    1  C1  UNL     1     -65.379  19.576  54.688  1.00  0.00     0.694 A
HETATM    2  N2  UNL     1     -64.762  19.499  55.903  1.00  0.00    -0.152 N
ATOM      3  H2  UNL     1     -64.914  20.222  56.606  1.00  0.00     0.188 HD
HETATM    4  C2  UNL     1     -63.953  18.459  56.160  1.00  0.00     0.307 A
HETATM    5  O1  UNL     1     -63.376  18.365  57.266  1.00  0.00    -0.263 OA
HETATM    6  C3  UNL     1     -63.794  17.517  55.167  1.00  0.00     0.214 A
HETATM    7  N3  UNL     1     -63.056  16.384  55.125  1.00  0.00    -0.277 N
ATOM      8  H3  UNL     1     -62.466  16.024  55.875  1.00  0.00     0.189 HD
HETATM    9  N4  UNL     1     -63.233  15.823  53.940  1.00  0.00    -0.272 N
ATOM     10  H4  UNL     1     -62.795  14.955  53.635  1.00  0.00     0.189 HD
HETATM   11  C4  UNL     1     -64.068  16.554  53.199  1.00  0.00     0.257 A
HETATM   12  N7  UNL     1     -64.418  17.604  53.954  1.00  0.00    -0.190 N
HETATM   13  N8  UNL     1     -65.205  18.646  53.741  1.00  0.00    -0.121 N
ATOM     14  H8  UNL     1     -65.686  18.741  52.845  1.00  0.00     0.206 HD
ENDROOT
BRANCH  11  15
HETATM   15  S1  UNL     1     -64.580  16.233  51.569  1.00  0.00     0.282 S
HETATM   16  O2  UNL     1     -64.252  14.771  51.229  1.00  0.00    -0.203 OA
HETATM   17  O3  UNL     1     -63.795  17.021  50.559  1.00  0.00    -0.203 OA
BRANCH  15  18
HETATM   18  N5  UNL     1     -66.233  16.542  51.345  1.00  0.00    -0.156 NA
HETATM   19  C5  UNL     1     -66.583  16.740  49.961  1.00  0.00     0.188 C
HETATM   20  S2  UNL     1     -66.483  14.953  49.672  1.00  0.00    -0.105 SA
HETATM   21  C6  UNL     1     -67.095  15.373  51.327  1.00  0.00     0.336 C
BRANCH  21  22
HETATM   22  N6  UNL     1     -66.785  14.415  52.360  1.00  0.00    -0.053 N
ATOM     23  H63 UNL     1     -67.232  13.518  52.168  1.00  0.00     0.277 HD
ATOM     24  H62 UNL     1     -65.806  14.131  52.308  1.00  0.00     0.277 HD
ATOM     25  H61 UNL     1     -67.017  14.741  53.298  1.00  0.00     0.277 HD
ENDBRANCH  21  22
ENDBRANCH  15  18
ENDBRANCH  11  15
BRANCH   1  26
HETATM   26  N1  UNL     1     -66.167  20.579  54.424  1.00  0.00    -0.233 N
ATOM     27  H12 UNL     1     -65.787  21.522  54.511  1.00  0.00     0.174 HD
ATOM     28  H11 UNL     1     -67.130  20.406  54.138  1.00  0.00     0.174 HD
ENDBRANCH   1  26
TORSDOF 4
ENDMDL