MODEL 5
REMARK VINA RESULT: -7.156418542      2.290      3.078
REMARK  6 active torsions:
REMARK  status: ('A' for Active; 'I' for Inactive)
REMARK    1  A    between atoms: S1_2  and  N1_5
REMARK    2  A    between atoms: C4_11  and  C5_12
REMARK    3  A    between atoms: C6_15  and  N5_16
REMARK    4  A    between atoms: C7_21  and  N7_22
REMARK    5  A    between atoms: N7_22  and  O3_24
REMARK    6  A    between atoms: N8_26  and  O4_27
ROOT
HETATM    1  C5  UNL     1     -64.024  17.292  54.695  1.00  0.00     0.196 A
HETATM    2  N4  UNL     1     -64.401  16.599  53.600  1.00  0.00    -0.171 N
ATOM      3  H4  UNL     1     -64.122  15.619  53.545  1.00  0.00     0.186 HD
HETATM    4  C6  UNL     1     -65.112  17.092  52.579  1.00  0.00     0.692 A
HETATM    5  N6  UNL     1     -65.476  18.381  52.657  1.00  0.00    -0.019 N
ATOM      6  H6  UNL     1     -66.018  18.812  51.908  1.00  0.00     0.203 HD
HETATM    7  C7  UNL     1     -65.117  19.096  53.733  1.00  0.00     0.744 A
HETATM    8  N8  UNL     1     -64.395  18.580  54.766  1.00  0.00    -0.030 N
ENDROOT
BRANCH   1   9
HETATM    9  C4  UNL     1     -63.343  16.589  55.761  1.00  0.00     0.119 A
HETATM   10  N1  UNL     1     -63.264  15.310  56.045  1.00  0.00    -0.176 N
HETATM   11  N2  UNL     1     -62.545  15.140  57.195  1.00  0.00    -0.271 N
HETATM   12  C2  UNL     1     -62.156  16.309  57.670  1.00  0.00     0.134 A
ATOM     13  H2  UNL     1     -62.340  14.239  57.626  1.00  0.00     0.189 HD
HETATM   14  N3  UNL     1     -61.394  16.562  58.842  1.00  0.00    -0.081 NA
HETATM   15  C3  UNL     1     -62.642  17.247  56.794  1.00  0.00     0.083 A
BRANCH  10  16
HETATM   16  S1  UNL     1     -63.961  13.936  55.288  1.00  0.00     0.246 S
HETATM   17  C1  UNL     1     -63.469  12.453  56.211  1.00  0.00     0.188 C
HETATM   18  O1  UNL     1     -63.464  13.735  53.899  1.00  0.00    -0.204 OA
HETATM   19  O2  UNL     1     -65.458  13.956  55.251  1.00  0.00    -0.204 OA
ENDBRANCH  10  16
ENDBRANCH   1   9
BRANCH   8  20
HETATM   20  O4  UNL     1     -64.158  19.378  55.890  1.00  0.00    -0.268 OA
ATOM     21  H4  UNL     1     -64.334  20.312  55.905  1.00  0.00     0.246 HD
ENDBRANCH   8  20
BRANCH   4  22
HETATM   22  N5  UNL     1     -65.440  16.354  51.551  1.00  0.00    -0.234 N
ATOM     23  H52 UNL     1     -64.730  15.965  50.930  1.00  0.00     0.174 HD
ATOM     24  H51 UNL     1     -66.413  16.142  51.332  1.00  0.00     0.174 HD
ENDBRANCH   4  22
BRANCH   7  25
HETATM   25  N7  UNL     1     -65.449  20.354  53.852  1.00  0.00    -0.096 N
ATOM     26  H7  UNL     1     -64.925  21.068  53.346  1.00  0.00     0.213 HD
BRANCH  25  27
HETATM   27  O3  UNL     1     -66.503  20.716  54.657  1.00  0.00    -0.276 OA
ATOM     28  H3  UNL     1     -66.343  21.185  55.468  1.00  0.00     0.245 HD
ENDBRANCH  25  27
ENDBRANCH   7  25
TORSDOF 6
ENDMDL