MODEL 2
REMARK VINA RESULT: -7.010237782      3.932      6.883
REMARK  15 active torsions:
REMARK  status: ('A' for Active; 'I' for Inactive)
REMARK    1  A    between atoms: C2_2  and  N2_4
REMARK    2  A    between atoms: N2_4  and  N3_5
REMARK    3  A    between atoms: N3_5  and  C3_7
REMARK    4  A    between atoms: C4_10  and  C5_11
REMARK       I    between atoms: C5_11  and  N5_13
REMARK       I    between atoms: C6_15  and  N7_17
REMARK    5  A    between atoms: N7_17  and  N8_19
REMARK    6  A    between atoms: C7_21  and  C8_22
REMARK    7  A    between atoms: C7_21  and  C11_27
REMARK    8  A    between atoms: C8_22  and  C9_23
REMARK    9  A    between atoms: C9_23  and  C10_24
REMARK       I    between atoms: C11_27  and  N9_29
REMARK   10  A    between atoms: N9_29  and  N10_31
REMARK   11  A    between atoms: N10_31  and  C12_33
REMARK   12  A    between atoms: C12_33  and  N11_35
REMARK   13  A    between atoms: N11_35  and  C13_37
REMARK   14  A    between atoms: C13_37  and  C14_38
REMARK   15  A    between atoms: C18_46  and  N13_47
ROOT
HETATM    1  N8  UNL     1      -8.612  26.347   9.851  1.00  0.00    -0.297 N
ATOM      2  H8  UNL     1      -9.464  26.908   9.865  1.00  0.00     0.187 HD
HETATM    3  C7  UNL     1      -7.915  26.853   8.989  1.00  0.00     0.095 C
ENDROOT
BRANCH   1   4
HETATM    4  N7  UNL     1      -8.798  25.415  10.783  1.00  0.00    -0.273 N
HETATM    5  C6  UNL     1      -9.760  24.439  10.875  1.00  0.00     0.210 C
HETATM    6  N5  UNL     1     -10.763  24.399  11.699  1.00  0.00    -0.294 N
HETATM    7  N6  UNL     1      -9.629  23.334   9.946  1.00  0.00    -0.062 NA
HETATM    8  C5  UNL     1     -10.635  25.714  12.567  1.00  0.00     0.275 C
ATOM      9  H5  UNL     1     -11.479  23.676  11.769  1.00  0.00     0.172 HD
HETATM   10  O1  UNL     1     -10.891  26.644  11.955  1.00  0.00    -0.266 OA
ATOM     11  H7  UNL     1      -8.121  25.427  11.546  1.00  0.00     0.189 HD
BRANCH   8  12
HETATM   12  C4  UNL     1     -10.265  25.251  13.894  1.00  0.00     0.120 A
HETATM   13  N4  UNL     1      -9.176  25.687  14.539  1.00  0.00    -0.184 N
HETATM   14  C3  UNL     1      -8.704  25.165  15.681  1.00  0.00     0.709 A
ATOM     15  H4  UNL     1      -8.668  26.472  14.132  1.00  0.00     0.184 HD
HETATM   16  N14 UNL     1      -9.352  24.121  16.291  1.00  0.00    -0.175 N
HETATM   17  C18 UNL     1     -10.446  23.683  15.679  1.00  0.00     0.117 A
ATOM     18  H14 UNL     1      -9.014  23.708  17.161  1.00  0.00     0.186 HD
HETATM   19  C17 UNL     1     -10.918  24.209  14.505  1.00  0.00     0.084 A
BRANCH  14  20
HETATM   20  N3  UNL     1      -7.567  25.670  16.134  1.00  0.00    -0.064 N
ATOM     21  H3  UNL     1      -7.528  26.100  17.059  1.00  0.00     0.221 HD
BRANCH  20  22
HETATM   22  N2  UNL     1      -6.546  25.616  15.423  1.00  0.00    -0.301 NA
BRANCH  22  23
HETATM   23  C2  UNL     1      -5.522  25.531  14.750  1.00  0.00     0.186 C
HETATM   24  C1  UNL     1      -5.543  24.803  13.430  1.00  0.00     0.104 C
HETATM   25  N1  UNL     1      -4.328  26.233  15.233  1.00  0.00    -0.070 NA
ENDBRANCH  22  23
ENDBRANCH  20  22
ENDBRANCH  14  20
BRANCH  17  26
HETATM   26  N13 UNL     1     -11.148  22.651  16.151  1.00  0.00    -0.385 N
ATOM     27 2H13 UNL     1     -12.093  22.767  16.518  1.00  0.00     0.157 HD
ATOM     28 1H13 UNL     1     -10.653  21.759  16.144  1.00  0.00     0.157 HD
ENDBRANCH  17  26
ENDBRANCH   8  12
ENDBRANCH   1   4
BRANCH   3  29
HETATM   29  C8  UNL     1      -6.496  26.245   8.658  1.00  0.00     0.075 C
BRANCH  29  30
HETATM   30  C9  UNL     1      -6.840  24.875   8.045  1.00  0.00     0.119 C
BRANCH  30  31
HETATM   31  C10 UNL     1      -6.224  23.745   8.685  1.00  0.00     0.172 C
HETATM   32  O2  UNL     1      -6.305  23.940  10.064  1.00  0.00    -0.648 OA
HETATM   33  O3  UNL     1      -5.615  22.623   8.335  1.00  0.00    -0.648 OA
ENDBRANCH  30  31
ENDBRANCH  29  30
ENDBRANCH   3  29
BRANCH   3  34
HETATM   34  C11 UNL     1      -8.001  28.233   8.480  1.00  0.00     0.283 C
HETATM   35  O4  UNL     1      -6.895  28.793   8.124  1.00  0.00    -0.265 OA
HETATM   36  N9  UNL     1      -9.216  28.921   8.344  1.00  0.00    -0.263 N
ATOM     37  H9  UNL     1      -9.983  28.465   8.837  1.00  0.00     0.190 HD
BRANCH  36  38
HETATM   38  N10 UNL     1      -9.601  30.044   7.712  1.00  0.00    -0.274 N
ATOM     39  H10 UNL     1     -10.019  29.882   6.796  1.00  0.00     0.189 HD
BRANCH  38  40
HETATM   40  C12 UNL     1      -9.535  31.394   8.074  1.00  0.00     0.186 C
HETATM   41  S1  UNL     1     -10.607  32.565   7.752  1.00  0.00    -0.040 SA
BRANCH  40  42
HETATM   42  N11 UNL     1      -8.355  31.774   8.856  1.00  0.00    -0.360 N
ATOM     43  H11 UNL     1      -7.467  31.939   8.382  1.00  0.00     0.162 HD
BRANCH  42  44
HETATM   44  C13 UNL     1      -8.434  31.912  10.253  1.00  0.00     0.179 C
BRANCH  44  45
HETATM   45  C14 UNL     1      -7.600  30.785  10.951  1.00  0.00     0.037 A
HETATM   46  C15 UNL     1      -6.247  30.847  11.052  1.00  0.00     0.081 A
HETATM   47  S2  UNL     1      -5.854  29.441  11.935  1.00  0.00    -0.039 SA
HETATM   48  C16 UNL     1      -7.460  28.838  12.120  1.00  0.00     0.288 A
HETATM   49  O5  UNL     1      -7.820  27.770  12.710  1.00  0.00    -0.260 OA
HETATM   50  N12 UNL     1      -8.212  29.756  11.495  1.00  0.00    -0.319 N
ATOM     51  H12 UNL     1      -9.226  29.660  11.443  1.00  0.00     0.169 HD
ENDBRANCH  44  45
ENDBRANCH  42  44
ENDBRANCH  40  42
ENDBRANCH  38  40
ENDBRANCH  36  38
ENDBRANCH   3  34
TORSDOF 15
ENDMDL