MODEL 3
REMARK VINA RESULT: -5.589336762      1.346      1.708
REMARK  16 active torsions:
REMARK  status: ('A' for Active; 'I' for Inactive)
REMARK       I    between atoms: C2_4  and  N2_5
REMARK       I    between atoms: C2_4  and  N5_18
REMARK    1  A    between atoms: N2_5  and  C3_7
REMARK    2  A    between atoms: C3_7  and  C4_8
REMARK    3  A    between atoms: C4_8  and  N3_9
REMARK       I    between atoms: N3_9  and  C5_11
REMARK    4  A    between atoms: C5_11  and  C6_13
REMARK    5  A    between atoms: C6_13  and  N4_14
REMARK    6  A    between atoms: N5_18  and  N6_20
REMARK       I    between atoms: N6_20  and  C9_22
REMARK    7  A    between atoms: C9_22  and  C10_24
REMARK    8  A    between atoms: C13_27  and  N7_28
REMARK    9  A    between atoms: N7_28  and  C14_30
REMARK   10  A    between atoms: C16_34  and  C17_35
REMARK   11  A    between atoms: C17_35  and  N10_39
REMARK   12  A    between atoms: N10_39  and  N11_41
REMARK       I    between atoms: N11_41  and  C18_43
REMARK   13  A    between atoms: N13_45  and  O4_47
REMARK   14  A    between atoms: O4_47  and  C19_48
REMARK   15  A    between atoms: C19_48  and  N14_49
REMARK   16  A    between atoms: C19_48  and  N15_53
ROOT
HETATM    1  N7  UNL     1      -9.416  26.989   9.067  1.00  0.00    -0.192 N
ATOM      2  H7  UNL     1     -10.411  26.822   8.920  1.00  0.00     0.184 HD
ENDROOT
BRANCH   1   3
HETATM    3  C13 UNL     1      -8.981  28.309   9.196  1.00  0.00     0.049 A
HETATM    4  C12 UNL     1      -9.219  29.296   8.258  1.00  0.00     0.031 A
HETATM    5  C11 UNL     1      -8.756  30.572   8.447  1.00  0.00     0.019 A
HETATM    6  C10 UNL     1      -8.026  30.959   9.577  1.00  0.00     0.033 A
HETATM    7  C22 UNL     1      -7.802  29.955  10.500  1.00  0.00     0.019 A
HETATM    8  C21 UNL     1      -8.263  28.661  10.325  1.00  0.00     0.031 A
BRANCH   6   9
HETATM    9  C9  UNL     1      -7.567  32.328   9.720  1.00  0.00     0.270 C
HETATM   10  N6  UNL     1      -6.461  32.650  10.523  1.00  0.00    -0.251 N
ATOM     11  H6  UNL     1      -5.981  31.897  11.016  1.00  0.00     0.191 HD
HETATM   12  O3  UNL     1      -8.179  33.230   9.110  1.00  0.00    -0.266 OA
BRANCH  10  13
HETATM   13  N5  UNL     1      -5.984  33.963  10.678  1.00  0.00    -0.130 N
HETATM   14  C2  UNL     1      -4.974  34.410   9.794  1.00  0.00     0.688 C
HETATM   15  N1  UNL     1      -5.174  34.310   8.535  1.00  0.00    -0.229 N
HETATM   16  N2  UNL     1      -3.745  34.971  10.219  1.00  0.00    -0.224 N
HETATM   17  C1  UNL     1      -4.305  34.699   7.478  1.00  0.00     0.165 C
ATOM     18  H1  UNL     1      -6.065  33.902   8.255  1.00  0.00     0.177 HD
ATOM     19  H2  UNL     1      -3.721  35.974  10.405  1.00  0.00     0.177 HD
ATOM     20  H5  UNL     1      -6.356  34.575  11.405  1.00  0.00     0.205 HD
BRANCH  16  21
HETATM   21  C3  UNL     1      -2.517  34.220  10.409  1.00  0.00     0.157 C
BRANCH  21  22
HETATM   22  C4  UNL     1      -2.525  33.632  11.782  1.00  0.00     0.143 C
BRANCH  22  23
HETATM   23  N3  UNL     1      -2.221  32.211  11.824  1.00  0.00    -0.358 N
HETATM   24  C5  UNL     1      -3.184  31.221  12.043  1.00  0.00     0.251 C
HETATM   25  O1  UNL     1      -4.391  31.665  12.206  1.00  0.00    -0.271 OA
ATOM     26  H3  UNL     1      -1.253  31.919  11.686  1.00  0.00     0.162 HD
BRANCH  24  27
HETATM   27  C6  UNL     1      -2.988  29.783  12.106  1.00  0.00     0.413 C
BRANCH  27  28
HETATM   28  N4  UNL     1      -2.210  29.251  13.171  1.00  0.00     0.014 N
HETATM   29  C7  UNL     1      -2.607  29.655  14.491  1.00  0.00     0.356 C
HETATM   30  C8  UNL     1      -0.784  29.335  13.004  1.00  0.00     0.356 C
HETATM   31  O2  UNL     1      -2.469  27.877  13.142  1.00  0.00    -0.065 OA
ENDBRANCH  27  28
ENDBRANCH  24  27
ENDBRANCH  22  23
ENDBRANCH  21  22
ENDBRANCH  16  21
ENDBRANCH  10  13
ENDBRANCH   6   9
ENDBRANCH   1   3
BRANCH   1  32
HETATM   32  C14 UNL     1      -8.628  25.972   9.122  1.00  0.00     0.682 A
HETATM   33  N8  UNL     1      -7.473  26.006   8.395  1.00  0.00    -0.201 N
HETATM   34  C15 UNL     1      -6.602  24.987   8.392  1.00  0.00     0.122 A
ATOM     35  H8  UNL     1      -7.267  26.834   7.836  1.00  0.00     0.183 HD
HETATM   36  C16 UNL     1      -6.824  23.829   9.135  1.00  0.00     0.041 A
HETATM   37  C20 UNL     1      -7.988  23.803   9.866  1.00  0.00     0.122 A
HETATM   38  N16 UNL     1      -8.847  24.864   9.839  1.00  0.00    -0.201 N
ATOM     39  H16 UNL     1      -9.700  24.810  10.394  1.00  0.00     0.183 HD
BRANCH  36  40
HETATM   40  C17 UNL     1      -5.875  22.728   9.103  1.00  0.00     0.126 C
HETATM   41  N9  UNL     1      -6.104  21.572   8.608  1.00  0.00    -0.384 N
ATOM     42  H92 UNL     1      -7.033  21.427   8.214  1.00  0.00     0.157 HD
ATOM     43  H91 UNL     1      -5.438  20.799   8.585  1.00  0.00     0.157 HD
BRANCH  40  44
HETATM   44  N10 UNL     1      -4.578  22.930   9.653  1.00  0.00    -0.283 N
ATOM     45  H10 UNL     1      -3.752  22.602   9.154  1.00  0.00     0.188 HD
BRANCH  44  46
HETATM   46  N11 UNL     1      -4.447  23.583  10.882  1.00  0.00    -0.271 N
HETATM   47  C18 UNL     1      -3.682  24.754  11.096  1.00  0.00     0.227 C
HETATM   48  N12 UNL     1      -2.668  25.227  10.207  1.00  0.00    -0.060 NA
HETATM   49  N13 UNL     1      -3.864  25.493  12.150  1.00  0.00    -0.233 N
ATOM     50  H13 UNL     1      -3.303  26.334  12.284  1.00  0.00     0.197 HD
ATOM     51  H11 UNL     1      -4.938  23.187  11.684  1.00  0.00     0.189 HD
BRANCH  49  52
HETATM   52  O4  UNL     1      -4.806  25.145  13.080  1.00  0.00    -0.217 OA
BRANCH  52  53
HETATM   53  C19 UNL     1      -4.661  25.497  14.445  1.00  0.00     0.542 C
BRANCH  53  54
HETATM   54  N14 UNL     1      -3.286  25.310  14.829  1.00  0.00    -0.025 N
ATOM     55 3H14 UNL     1      -2.888  24.452  14.447  1.00  0.00     0.279 HD
ATOM     56 2H14 UNL     1      -2.660  25.973  14.372  1.00  0.00     0.279 HD
ATOM     57 1H14 UNL     1      -3.220  25.350  15.846  1.00  0.00     0.279 HD
ENDBRANCH  53  54
BRANCH  53  58
HETATM   58  N15 UNL     1      -5.006  26.883  14.664  1.00  0.00    -0.025 N
ATOM     59 3H15 UNL     1      -4.220  27.502  14.466  1.00  0.00     0.279 HD
ATOM     60 2H15 UNL     1      -5.655  27.225  13.956  1.00  0.00     0.279 HD
ATOM     61 1H15 UNL     1      -5.369  27.025  15.607  1.00  0.00     0.279 HD
ENDBRANCH  53  58
ENDBRANCH  52  53
ENDBRANCH  49  52
ENDBRANCH  44  46
ENDBRANCH  40  44
ENDBRANCH  36  40
ENDBRANCH   1  32
TORSDOF 16
ENDMDL