MODEL 5
REMARK VINA RESULT: -6.160489766      3.676      7.935
REMARK  15 active torsions:
REMARK  status: ('A' for Active; 'I' for Inactive)
REMARK       I    between atoms: C1_4  and  N3_6
REMARK    1  A    between atoms: N3_6  and  C2_8
REMARK    2  A    between atoms: C2_8  and  C3_9
REMARK    3  A    between atoms: C3_9  and  C4_10
REMARK    4  A    between atoms: C4_10  and  C5_11
REMARK    5  A    between atoms: C5_11  and  C6_12
REMARK    6  A    between atoms: C6_12  and  N4_13
REMARK    7  A    between atoms: C6_12  and  C20_47
REMARK    8  A    between atoms: N4_13  and  C7_15
REMARK    9  A    between atoms: C8_18  and  C9_19
REMARK       I    between atoms: C9_19  and  N6_21
REMARK   10  A    between atoms: N6_21  and  C10_23
REMARK   11  A    between atoms: C10_23  and  C11_24
REMARK   12  A    between atoms: C16_30  and  N7_31
REMARK   13  A    between atoms: N7_31  and  C17_33
REMARK   14  A    between atoms: C19_39  and  N10_40
REMARK       I    between atoms: C20_47  and  N13_49
REMARK   15  A    between atoms: N13_49  and  C21_51
ROOT
HETATM    1  C7  UNL     1      -8.960  26.756   9.141  1.00  0.00     0.681 A
HETATM    2  N5  UNL     1      -7.750  26.976   9.673  1.00  0.00    -0.186 N
ATOM      3  H5  UNL     1      -7.322  26.244  10.242  1.00  0.00     0.184 HD
HETATM    4  C8  UNL     1      -7.082  28.118   9.484  1.00  0.00     0.120 A
HETATM    5  C15 UNL     1      -7.706  29.081   8.705  1.00  0.00     0.085 A
HETATM    6  C16 UNL     1      -8.957  28.897   8.136  1.00  0.00     0.139 A
HETATM    7  N12 UNL     1      -9.533  27.714   8.391  1.00  0.00    -0.176 N
ATOM      8  H12 UNL     1     -10.455  27.530   7.995  1.00  0.00     0.186 HD
ENDROOT
BRANCH   1   9
HETATM    9  N4  UNL     1      -9.615  25.691   9.303  1.00  0.00    -0.213 N
ATOM     10  H4  UNL     1     -10.436  25.540   8.716  1.00  0.00     0.178 HD
BRANCH   9  11
HETATM   11  C6  UNL     1      -9.263  24.632  10.304  1.00  0.00     0.192 C
BRANCH  11  12
HETATM   12  C5  UNL     1      -9.060  23.419   9.465  1.00  0.00     0.035 C
BRANCH  12  13
HETATM   13  C4  UNL     1      -7.737  22.821   9.304  1.00  0.00     0.004 C
BRANCH  13  14
HETATM   14  C3  UNL     1      -6.662  23.631   8.682  1.00  0.00     0.020 C
BRANCH  14  15
HETATM   15  C2  UNL     1      -5.472  23.767   9.654  1.00  0.00     0.122 C
BRANCH  15  16
HETATM   16  N3  UNL     1      -4.777  25.019   9.392  1.00  0.00    -0.365 N
HETATM   17  C1  UNL     1      -3.475  25.212   9.898  1.00  0.00     0.181 C
HETATM   18  N1  UNL     1      -3.230  25.838  10.992  1.00  0.00    -0.374 N
HETATM   19  N2  UNL     1      -2.379  24.685   9.159  1.00  0.00    -0.064 NA
ATOM     20  H12 UNL     1      -2.288  25.978  11.357  1.00  0.00     0.158 HD
ATOM     21  H11 UNL     1      -4.015  26.216  11.521  1.00  0.00     0.158 HD
ATOM     22  H3  UNL     1      -5.229  25.752   8.846  1.00  0.00     0.162 HD
ENDBRANCH  15  16
ENDBRANCH  14  15
ENDBRANCH  13  14
ENDBRANCH  12  13
ENDBRANCH  11  12
BRANCH  11  23
HETATM   23  C20 UNL     1     -10.516  24.527  11.082  1.00  0.00     0.259 C
HETATM   24  O2  UNL     1     -11.401  23.732  10.600  1.00  0.00    -0.270 OA
HETATM   25  N13 UNL     1     -10.817  25.192  12.246  1.00  0.00    -0.155 N
ATOM     26  H13 UNL     1     -11.746  24.968  12.602  1.00  0.00     0.187 HD
BRANCH  25  27
HETATM   27  C21 UNL     1     -10.200  26.019  12.970  1.00  0.00     0.716 A
HETATM   28  N14 UNL     1      -9.911  27.304  12.751  1.00  0.00    -0.115 N
HETATM   29  N15 UNL     1      -9.247  27.768  13.793  1.00  0.00    -0.213 N
ATOM     30  H14 UNL     1     -10.161  27.838  11.918  1.00  0.00     0.207 HD
HETATM   31  N16 UNL     1      -9.089  26.823  14.692  1.00  0.00    -0.213 N
ATOM     32  H15 UNL     1      -8.906  28.724  13.887  1.00  0.00     0.210 HD
HETATM   33  N17 UNL     1      -9.667  25.750  14.201  1.00  0.00    -0.115 N
ATOM     34  H16 UNL     1      -8.615  26.907  15.591  1.00  0.00     0.210 HD
ATOM     35  H17 UNL     1      -9.711  24.846  14.671  1.00  0.00     0.207 HD
ENDBRANCH  25  27
ENDBRANCH  11  23
ENDBRANCH   9  11
ENDBRANCH   1   9
BRANCH   4  36
HETATM   36  C9  UNL     1      -5.765  28.387  10.028  1.00  0.00     0.268 C
HETATM   37  O1  UNL     1      -4.796  28.135   9.236  1.00  0.00    -0.266 OA
HETATM   38  N6  UNL     1      -5.577  28.881  11.312  1.00  0.00    -0.355 N
ATOM     39  H6  UNL     1      -6.442  29.016  11.834  1.00  0.00     0.162 HD
BRANCH  38  40
HETATM   40  C10 UNL     1      -4.408  29.233  12.034  1.00  0.00     0.138 C
BRANCH  40  41
HETATM   41  C11 UNL     1      -4.288  28.715  13.391  1.00  0.00     0.065 C
HETATM   42  C12 UNL     1      -3.041  28.068  13.870  1.00  0.00     0.017 C
HETATM   43  C13 UNL     1      -3.429  27.408  15.210  1.00  0.00     0.011 C
HETATM   44  C14 UNL     1      -4.432  26.348  14.848  1.00  0.00     0.074 C
HETATM   45  S1  UNL     1      -5.443  27.265  13.624  1.00  0.00    -0.163 SA
ENDBRANCH  40  41
ENDBRANCH  38  40
ENDBRANCH   4  36
BRANCH   6  46
HETATM   46  N7  UNL     1      -9.513  29.812   7.412  1.00  0.00    -0.175 N
ATOM     47  H7  UNL     1      -9.500  29.691   6.399  1.00  0.00     0.186 HD
BRANCH  46  48
HETATM   48  C17 UNL     1     -10.133  30.962   7.924  1.00  0.00     0.699 A
HETATM   49  N8  UNL     1     -10.000  32.171   7.331  1.00  0.00    -0.186 N
HETATM   50  C18 UNL     1     -10.620  33.233   7.868  1.00  0.00     0.215 A
ATOM     51  H8  UNL     1      -9.436  32.274   6.488  1.00  0.00     0.185 HD
HETATM   52  N9  UNL     1     -11.381  33.159   8.985  1.00  0.00    -0.187 N
HETATM   53  C19 UNL     1     -11.502  31.959   9.559  1.00  0.00     0.691 A
ATOM     54  H9  UNL     1     -11.840  33.984   9.372  1.00  0.00     0.185 HD
HETATM   55  N11 UNL     1     -10.884  30.868   9.036  1.00  0.00    -0.022 N
ATOM     56  H11 UNL     1     -10.992  29.963   9.493  1.00  0.00     0.203 HD
BRANCH  53  57
HETATM   57  N10 UNL     1     -12.223  31.884  10.622  1.00  0.00    -0.234 N
ATOM     58 2H10 UNL     1     -12.004  32.424  11.460  1.00  0.00     0.174 HD
ATOM     59 1H10 UNL     1     -13.030  31.261  10.597  1.00  0.00     0.174 HD
ENDBRANCH  53  57
ENDBRANCH  46  48
ENDBRANCH   6  46
TORSDOF 15
ENDMDL