MODEL 2
REMARK VINA RESULT: -7.056544540      1.383      1.644
REMARK  14 active torsions:
REMARK  status: ('A' for Active; 'I' for Inactive)
REMARK    1  A    between atoms: C2_2  and  N1_3
REMARK    2  A    between atoms: C2_2  and  N2_7
REMARK    3  A    between atoms: N2_7  and  C3_9
REMARK    4  A    between atoms: C5_11  and  C6_12
REMARK       I    between atoms: C6_12  and  N3_14
REMARK    5  A    between atoms: N3_14  and  C7_16
REMARK    6  A    between atoms: C7_16  and  C8_17
REMARK    7  A    between atoms: C7_16  and  C12_25
REMARK    8  A    between atoms: C8_17  and  C9_18
REMARK    9  A    between atoms: C15_30  and  C16_31
REMARK       I    between atoms: C16_31  and  N7_33
REMARK   10  A    between atoms: N7_33  and  C17_35
REMARK   11  A    between atoms: C17_35  and  C18_36
REMARK       I    between atoms: C18_36  and  N8_38
REMARK   12  A    between atoms: N8_38  and  C19_40
REMARK   13  A    between atoms: C22_47  and  N11_48
REMARK   14  A    between atoms: C23_53  and  N13_54
ROOT
HETATM    1  C3  UNL     1      -9.963  25.033  11.155  1.00  0.00     0.046 A
HETATM    2  C4  UNL     1     -10.352  24.579  12.416  1.00  0.00     0.047 A
HETATM    3  C5  UNL     1     -10.988  25.357  13.342  1.00  0.00     0.034 A
HETATM    4  C13 UNL     1     -11.254  26.657  12.999  1.00  0.00     0.018 A
HETATM    5  C14 UNL     1     -10.891  27.156  11.766  1.00  0.00     0.020 A
HETATM    6  C15 UNL     1     -10.234  26.352  10.815  1.00  0.00     0.058 A
ENDROOT
BRANCH   6   7
HETATM    7  C16 UNL     1      -9.826  26.917   9.546  1.00  0.00     0.254 C
HETATM    8  O3  UNL     1     -10.195  26.429   8.464  1.00  0.00    -0.268 OA
HETATM    9  N7  UNL     1      -8.982  28.059   9.506  1.00  0.00    -0.348 N
ATOM     10  H7  UNL     1      -8.654  28.472  10.378  1.00  0.00     0.163 HD
BRANCH   9  11
HETATM   11  C17 UNL     1      -8.576  28.652   8.226  1.00  0.00     0.226 C
BRANCH  11  12
HETATM   12  C18 UNL     1      -7.076  28.628   8.181  1.00  0.00     0.240 C
HETATM   13  O4  UNL     1      -6.608  29.171   7.108  1.00  0.00    -0.271 OA
HETATM   14  N8  UNL     1      -6.339  28.097   9.152  1.00  0.00    -0.310 N
ATOM     15  H8  UNL     1      -6.241  28.849   9.833  1.00  0.00     0.170 HD
BRANCH  14  16
HETATM   16  C19 UNL     1      -5.718  27.164   9.643  1.00  0.00     0.139 A
HETATM   17  N9  UNL     1      -4.741  26.540   8.883  1.00  0.00    -0.337 N
HETATM   18  C20 UNL     1      -4.023  25.518   9.346  1.00  0.00     0.182 A
ATOM     19  H9  UNL     1      -4.566  26.874   7.937  1.00  0.00     0.168 HD
HETATM   20  N10 UNL     1      -4.188  25.011  10.579  1.00  0.00    -0.347 N
HETATM   21  C21 UNL     1      -5.118  25.561  11.382  1.00  0.00     0.109 A
ATOM     22  H10 UNL     1      -3.621  24.227  10.901  1.00  0.00     0.167 HD
HETATM   23  C22 UNL     1      -5.275  25.032  12.640  1.00  0.00     0.144 A
HETATM   24  C24 UNL     1      -5.886  26.642  10.909  1.00  0.00     0.123 A
HETATM   25  N12 UNL     1      -6.217  25.608  13.414  1.00  0.00    -0.175 N
HETATM   26  C23 UNL     1      -6.955  26.632  12.990  1.00  0.00     0.678 A
ATOM     27  H12 UNL     1      -6.369  25.249  14.356  1.00  0.00     0.186 HD
HETATM   28  N14 UNL     1      -6.793  27.148  11.747  1.00  0.00    -0.186 N
ATOM     29  H14 UNL     1      -7.372  27.932  11.448  1.00  0.00     0.184 HD
BRANCH  23  30
HETATM   30  N11 UNL     1      -4.618  24.061  13.131  1.00  0.00    -0.383 N
ATOM     31 2H11 UNL     1      -3.616  24.189  13.273  1.00  0.00     0.157 HD
ATOM     32 1H11 UNL     1      -4.998  23.154  13.402  1.00  0.00     0.157 HD
ENDBRANCH  23  30
BRANCH  26  33
HETATM   33  N13 UNL     1      -7.868  27.194  13.730  1.00  0.00    -0.234 N
ATOM     34 2H13 UNL     1      -7.584  27.455  14.674  1.00  0.00     0.174 HD
ATOM     35 1H13 UNL     1      -8.815  27.370  13.395  1.00  0.00     0.174 HD
ENDBRANCH  26  33
ENDBRANCH  14  16
ENDBRANCH  11  12
ENDBRANCH   9  11
ENDBRANCH   6   7
BRANCH   1  36
HETATM   36  N2  UNL     1      -9.358  24.119  10.267  1.00  0.00    -0.362 N
ATOM     37  H2  UNL     1      -8.397  24.271   9.963  1.00  0.00     0.161 HD
BRANCH  36  38
HETATM   38  C2  UNL     1     -10.104  22.939   9.773  1.00  0.00     0.277 C
HETATM   39  C1  UNL     1      -9.192  21.798   9.441  1.00  0.00     0.063 C
BRANCH  38  40
HETATM   40  N1  UNL     1     -10.861  23.264   8.574  1.00  0.00    -0.059 N
ATOM     41  H13 UNL     1     -10.842  24.259   8.350  1.00  0.00     0.276 HD
ATOM     42  H12 UNL     1     -10.415  22.926   7.721  1.00  0.00     0.276 HD
ATOM     43  H11 UNL     1     -11.806  22.904   8.698  1.00  0.00     0.276 HD
ENDBRANCH  38  40
ENDBRANCH  36  38
ENDBRANCH   1  36
BRANCH   3  44
HETATM   44  C6  UNL     1     -11.373  24.801  14.653  1.00  0.00     0.252 C
HETATM   45  O1  UNL     1     -11.279  23.554  14.782  1.00  0.00    -0.268 OA
HETATM   46  N3  UNL     1     -11.825  25.648  15.701  1.00  0.00    -0.344 N
ATOM     47  H3  UNL     1     -11.876  26.653  15.534  1.00  0.00     0.163 HD
BRANCH  46  48
HETATM   48  C7  UNL     1     -12.212  25.140  16.985  1.00  0.00     0.179 C
BRANCH  48  49
HETATM   49  C8  UNL     1     -11.495  25.861  18.121  1.00  0.00     0.093 C
BRANCH  49  50
HETATM   50  C9  UNL     1     -10.108  26.229  17.763  1.00  0.00     0.028 A
HETATM   51  C10 UNL     1      -9.559  27.478  17.609  1.00  0.00     0.114 A
HETATM   52  N4  UNL     1      -8.275  27.340  17.283  1.00  0.00    -0.360 N
HETATM   53  C11 UNL     1      -8.016  26.026  17.232  1.00  0.00     0.180 A
ATOM     54  H4  UNL     1      -7.612  28.094  17.104  1.00  0.00     0.166 HD
HETATM   55  N5  UNL     1      -9.127  25.349  17.523  1.00  0.00    -0.354 N
ATOM     56  H5  UNL     1      -9.215  24.333  17.558  1.00  0.00     0.166 HD
ENDBRANCH  49  50
ENDBRANCH  48  49
BRANCH  48  57
HETATM   57  C12 UNL     1     -13.680  25.185  17.194  1.00  0.00     0.254 C
HETATM   58  N6  UNL     1     -14.563  24.239  16.623  1.00  0.00    -0.060 NA
HETATM   59  O2  UNL     1     -14.201  26.097  17.907  1.00  0.00    -0.275 OA
ENDBRANCH  48  57
ENDBRANCH  46  48
ENDBRANCH   3  44
TORSDOF 14
ENDMDL