MODEL 2
REMARK VINA RESULT: -7.068441349      1.741      2.211
REMARK  12 active torsions:
REMARK  status: ('A' for Active; 'I' for Inactive)
REMARK    1  A    between atoms: N1_1  and  C1_4
REMARK    2  A    between atoms: C5_11  and  N3_12
REMARK    3  A    between atoms: N3_12  and  S1_14
REMARK    4  A    between atoms: S1_14  and  N4_17
REMARK       I    between atoms: N4_17  and  C6_19
REMARK       I    between atoms: C6_19  and  N5_21
REMARK    5  A    between atoms: N5_21  and  C7_23
REMARK    6  A    between atoms: C7_23  and  C8_24
REMARK       I    between atoms: C8_24  and  N6_26
REMARK    7  A    between atoms: N6_26  and  C9_28
REMARK    8  A    between atoms: C13_32  and  S2_33
REMARK    9  A    between atoms: S2_33  and  N7_36
REMARK   10  A    between atoms: N7_36  and  N8_38
REMARK       I    between atoms: N8_38  and  C14_40
REMARK   11  A    between atoms: C14_40  and  C15_42
REMARK   12  A    between atoms: C15_42  and  N9_43
ROOT
HETATM    1  N4  UNL     1      -3.137  25.692  11.084  1.00  0.00    -0.219 N
ATOM      2  H4  UNL     1      -2.460  26.456  11.102  1.00  0.00     0.185 HD
HETATM    3  C6  UNL     1      -3.834  25.321  12.254  1.00  0.00     0.331 C
HETATM    4  O4  UNL     1      -4.681  24.372  12.249  1.00  0.00    -0.246 OA
HETATM    5  N5  UNL     1      -3.613  25.994  13.476  1.00  0.00    -0.334 N
ATOM      6  H5  UNL     1      -2.931  26.753  13.486  1.00  0.00     0.164 HD
ENDROOT
BRANCH   5   7
HETATM    7  C7  UNL     1      -4.276  25.688  14.691  1.00  0.00     0.227 C
BRANCH   7   8
HETATM    8  C8  UNL     1      -5.603  26.354  14.876  1.00  0.00     0.239 C
HETATM    9  O5  UNL     1      -6.224  26.073  15.905  1.00  0.00    -0.271 OA
HETATM   10  N6  UNL     1      -6.064  27.233  13.912  1.00  0.00    -0.326 N
ATOM     11  H6  UNL     1      -5.463  27.382  13.101  1.00  0.00     0.169 HD
BRANCH  10  12
HETATM   12  C9  UNL     1      -7.272  27.937  13.938  1.00  0.00     0.036 A
HETATM   13  C10 UNL     1      -7.416  29.158  14.529  1.00  0.00     0.029 A
HETATM   14  C11 UNL     1      -8.649  29.829  14.558  1.00  0.00     0.004 A
HETATM   15  C12 UNL     1      -9.723  29.212  13.964  1.00  0.00     0.025 A
HETATM   16  C13 UNL     1      -9.650  27.992  13.356  1.00  0.00     0.083 A
HETATM   17  C16 UNL     1      -8.428  27.368  13.349  1.00  0.00     0.054 A
BRANCH  16  18
HETATM   18  S2  UNL     1     -11.009  27.227  12.614  1.00  0.00     0.276 S
HETATM   19  O6  UNL     1     -12.285  27.680  13.306  1.00  0.00    -0.199 OA
HETATM   20  O7  UNL     1     -11.174  27.642  11.162  1.00  0.00    -0.199 OA
BRANCH  18  21
HETATM   21  N7  UNL     1     -10.962  25.524  12.660  1.00  0.00    -0.220 N
ATOM     22  H7  UNL     1     -11.209  24.978  13.485  1.00  0.00     0.200 HD
BRANCH  21  23
HETATM   23  N8  UNL     1     -10.555  24.951  11.459  1.00  0.00    -0.259 N
HETATM   24  C14 UNL     1     -10.962  23.629  11.136  1.00  0.00     0.262 C
HETATM   25  O8  UNL     1     -11.685  22.977  11.931  1.00  0.00    -0.270 OA
ATOM     26  H8  UNL     1      -9.967  25.478  10.812  1.00  0.00     0.190 HD
BRANCH  24  27
HETATM   27  C15 UNL     1     -10.567  22.960   9.878  1.00  0.00     0.333 C
BRANCH  27  28
HETATM   28  N9  UNL     1      -9.166  23.101   9.587  1.00  0.00    -0.071 N
ATOM     29  H93 UNL     1      -8.951  24.048   9.275  1.00  0.00     0.274 HD
ATOM     30  H92 UNL     1      -8.611  23.079  10.442  1.00  0.00     0.274 HD
ATOM     31  H91 UNL     1      -8.830  22.411   8.916  1.00  0.00     0.274 HD
ENDBRANCH  27  28
ENDBRANCH  24  27
ENDBRANCH  21  23
ENDBRANCH  18  21
ENDBRANCH  16  18
ENDBRANCH  10  12
ENDBRANCH   7   8
ENDBRANCH   5   7
BRANCH   1  32
HETATM   32  S1  UNL     1      -3.449  24.830   9.624  1.00  0.00     0.327 S
HETATM   33  O2  UNL     1      -2.767  25.534   8.505  1.00  0.00    -0.182 OA
HETATM   34  O3  UNL     1      -2.831  23.451   9.702  1.00  0.00    -0.182 OA
BRANCH  32  35
HETATM   35  N3  UNL     1      -5.147  24.725   9.404  1.00  0.00    -0.266 N
ATOM     36  H3  UNL     1      -5.627  23.834   9.537  1.00  0.00     0.180 HD
BRANCH  35  37
HETATM   37  C5  UNL     1      -5.885  25.882   9.038  1.00  0.00     0.060 A
HETATM   38  C4  UNL     1      -7.253  25.903   8.920  1.00  0.00     0.052 A
HETATM   39  C3  UNL     1      -7.892  27.097   8.566  1.00  0.00     0.079 A
HETATM   40  C2  UNL     1      -9.270  27.147   8.439  1.00  0.00     0.273 A
HETATM   41  C18 UNL     1      -7.195  28.263   8.331  1.00  0.00     0.136 A
HETATM   42  N2  UNL     1      -9.872  28.295   8.100  1.00  0.00    -0.156 N
HETATM   43  O1  UNL     1      -9.907  26.091   8.652  1.00  0.00    -0.267 OA
HETATM   44  C1  UNL     1      -9.132  29.402   7.883  1.00  0.00     0.680 A
ATOM     45  H2  UNL     1     -10.888  28.332   8.007  1.00  0.00     0.187 HD
HETATM   46  N11 UNL     1      -7.790  29.419   7.990  1.00  0.00    -0.176 N
ATOM     47  H11 UNL     1      -7.252  30.269   7.821  1.00  0.00     0.186 HD
HETATM   48  N10 UNL     1      -5.861  28.191   8.460  1.00  0.00    -0.349 N
HETATM   49  C17 UNL     1      -5.210  27.077   8.793  1.00  0.00     0.119 A
ATOM     50  H10 UNL     1      -5.315  29.036   8.293  1.00  0.00     0.167 HD
BRANCH  44  51
HETATM   51  N1  UNL     1      -9.761  30.500   7.553  1.00  0.00    -0.234 N
ATOM     52  H12 UNL     1     -10.763  30.464   7.367  1.00  0.00     0.174 HD
ATOM     53  H11 UNL     1      -9.216  31.360   7.494  1.00  0.00     0.174 HD
ENDBRANCH  44  51
ENDBRANCH  35  37
ENDBRANCH  32  35
ENDBRANCH   1  32
TORSDOF 12
ENDMDL