MODEL 4
REMARK VINA RESULT: -6.816502354      2.981      7.953
REMARK  12 active torsions:
REMARK  status: ('A' for Active; 'I' for Inactive)
REMARK       I    between atoms: N1_1  and  C1_4
REMARK       I    between atoms: C1_4  and  N3_6
REMARK    1  A    between atoms: N3_6  and  C2_8
REMARK       I    between atoms: N6_15  and  C4_16
REMARK       I    between atoms: C4_16  and  N7_18
REMARK    2  A    between atoms: N7_18  and  N8_20
REMARK    3  A    between atoms: N8_20  and  C5_22
REMARK    4  A    between atoms: C8_25  and  S1_26
REMARK    5  A    between atoms: S1_26  and  N9_29
REMARK    6  A    between atoms: N9_29  and  N10_31
REMARK       I    between atoms: N10_31  and  C9_33
REMARK    7  A    between atoms: C9_33  and  C10_35
REMARK    8  A    between atoms: C10_35  and  N11_36
REMARK    9  A    between atoms: C10_35  and  C11_40
REMARK   10  A    between atoms: C11_40  and  C12_41
REMARK   11  A    between atoms: C12_41  and  C13_42
REMARK   12  A    between atoms: C13_42  and  N12_43
ROOT
HETATM    1  C5  UNL     1      -6.192  28.354  11.782  1.00  0.00     0.059 A
HETATM    2  C6  UNL     1      -5.881  28.411  10.457  1.00  0.00     0.033 A
HETATM    3  C7  UNL     1      -5.032  27.496   9.870  1.00  0.00     0.028 A
HETATM    4  C8  UNL     1      -4.440  26.459  10.594  1.00  0.00     0.092 A
HETATM    5  C15 UNL     1      -4.779  26.437  11.930  1.00  0.00    -0.000 A
HETATM    6  C16 UNL     1      -4.239  25.462  12.734  1.00  0.00     0.014 A
HETATM    7  C17 UNL     1      -4.493  25.338  14.080  1.00  0.00     0.001 A
HETATM    8  C18 UNL     1      -5.340  26.251  14.657  1.00  0.00     0.001 A
HETATM    9  C19 UNL     1      -5.907  27.259  13.868  1.00  0.00     0.014 A
HETATM   10  C20 UNL     1      -5.627  27.348  12.528  1.00  0.00     0.004 A
ENDROOT
BRANCH   4  11
HETATM   11  S1  UNL     1      -3.391  25.335   9.808  1.00  0.00     0.277 S
HETATM   12  O3  UNL     1      -2.023  25.284  10.488  1.00  0.00    -0.199 OA
HETATM   13  O4  UNL     1      -3.055  25.899   8.422  1.00  0.00    -0.199 OA
BRANCH  11  14
HETATM   14  N9  UNL     1      -4.018  23.790   9.535  1.00  0.00    -0.220 N
ATOM     15  H9  UNL     1      -3.464  22.992   9.228  1.00  0.00     0.200 HD
BRANCH  14  16
HETATM   16  N10 UNL     1      -5.371  23.747   9.779  1.00  0.00    -0.259 N
HETATM   17  C9  UNL     1      -6.354  24.078   8.827  1.00  0.00     0.267 C
HETATM   18  O5  UNL     1      -6.031  24.436   7.684  1.00  0.00    -0.269 OA
ATOM     19  H10 UNL     1      -5.681  23.456  10.705  1.00  0.00     0.190 HD
BRANCH  17  20
HETATM   20  C10 UNL     1      -7.793  24.009   9.180  1.00  0.00     0.276 C
BRANCH  20  21
HETATM   21  N11 UNL     1      -8.100  22.608   9.389  1.00  0.00    -0.066 N
ATOM     22 3H11 UNL     1      -8.186  22.079   8.521  1.00  0.00     0.275 HD
ATOM     23 2H11 UNL     1      -7.322  22.079   9.783  1.00  0.00     0.275 HD
ATOM     24 1H11 UNL     1      -8.941  22.577   9.965  1.00  0.00     0.275 HD
ENDBRANCH  20  21
BRANCH  20  25
HETATM   25  C11 UNL     1      -8.015  24.868  10.390  1.00  0.00     0.044 C
BRANCH  25  26
HETATM   26  C12 UNL     1      -8.949  26.003  10.229  1.00  0.00     0.022 C
BRANCH  26  27
HETATM   27  C13 UNL     1     -10.343  25.839  10.717  1.00  0.00     0.122 C
BRANCH  27  28
HETATM   28  N12 UNL     1     -10.491  25.727  12.119  1.00  0.00    -0.367 N
HETATM   29  C14 UNL     1     -10.883  24.802  12.868  1.00  0.00     0.196 C
HETATM   30  N13 UNL     1     -11.295  23.555  12.302  1.00  0.00    -0.067 NA
HETATM   31  N14 UNL     1     -10.959  24.901  14.287  1.00  0.00    -0.067 NA
ATOM     32  H12 UNL     1     -10.223  26.572  12.624  1.00  0.00     0.161 HD
ENDBRANCH  27  28
ENDBRANCH  26  27
ENDBRANCH  25  26
ENDBRANCH  20  25
ENDBRANCH  17  20
ENDBRANCH  14  16
ENDBRANCH  11  14
ENDBRANCH   4  11
BRANCH   1  33
HETATM   33  N8  UNL     1      -7.076  29.299  12.349  1.00  0.00    -0.296 N
ATOM     34  H8  UNL     1      -6.927  29.669  13.288  1.00  0.00     0.187 HD
BRANCH  33  35
HETATM   35  N7  UNL     1      -8.191  29.714  11.553  1.00  0.00    -0.250 N
HETATM   36  C4  UNL     1      -9.465  29.274  11.924  1.00  0.00     0.364 C
HETATM   37  N6  UNL     1     -10.654  29.606  11.217  1.00  0.00    -0.039 N
HETATM   38  O2  UNL     1      -9.550  28.533  12.952  1.00  0.00    -0.244 OA
HETATM   39  C2  UNL     1     -10.843  30.378  10.150  1.00  0.00     0.714 A
HETATM   40  C3  UNL     1     -11.870  29.096  11.572  1.00  0.00     0.364 A
HETATM   41  N4  UNL     1     -12.140  30.360   9.832  1.00  0.00    -0.127 N
HETATM   42  N5  UNL     1     -12.750  29.587  10.691  1.00  0.00    -0.236 N
ATOM     43  H4  UNL     1     -12.577  30.860   9.058  1.00  0.00     0.205 HD
ATOM     44  H5  UNL     1     -13.750  29.386  10.690  1.00  0.00     0.192 HD
HETATM   45  O1  UNL     1     -12.126  28.318  12.532  1.00  0.00    -0.244 OA
ATOM     46  H7  UNL     1      -8.059  30.314  10.738  1.00  0.00     0.192 HD
BRANCH  39  47
HETATM   47  N3  UNL     1      -9.938  31.047   9.533  1.00  0.00    -0.162 N
HETATM   48  C1  UNL     1     -10.149  31.539   8.203  1.00  0.00     0.200 C
HETATM   49  N1  UNL     1      -9.794  30.913   7.148  1.00  0.00    -0.373 N
HETATM   50  N2  UNL     1     -10.792  32.789   8.087  1.00  0.00    -0.063 NA
ATOM     51  H12 UNL     1      -9.945  31.263   6.202  1.00  0.00     0.158 HD
ATOM     52  H11 UNL     1      -9.329  30.009   7.232  1.00  0.00     0.158 HD
ATOM     53  H3  UNL     1      -9.049  31.233   9.999  1.00  0.00     0.187 HD
ENDBRANCH  39  47
ENDBRANCH  33  35
ENDBRANCH   1  33
TORSDOF 12
ENDMDL