MODEL 3
REMARK VINA RESULT: -5.486496162      1.638      2.971
REMARK  18 active torsions:
REMARK  status: ('A' for Active; 'I' for Inactive)
REMARK    1  A    between atoms: O1_2  and  C2_3
REMARK    2  A    between atoms: C2_3  and  C3_4
REMARK    3  A    between atoms: C3_4  and  N1_6
REMARK    4  A    between atoms: N1_6  and  C5_8
REMARK    5  A    between atoms: C5_8  and  C6_9
REMARK    6  A    between atoms: C5_8  and  N7_29
REMARK    7  A    between atoms: C6_9  and  C7_10
REMARK    8  A    between atoms: C7_10  and  C8_11
REMARK    9  A    between atoms: C8_11  and  C9_12
REMARK   10  A    between atoms: C9_12  and  C10_13
REMARK   11  A    between atoms: C12_17  and  N3_18
REMARK       I    between atoms: N7_29  and  C15_31
REMARK   12  A    between atoms: C15_31  and  C16_33
REMARK   13  A    between atoms: C16_33  and  C17_34
REMARK   14  A    between atoms: C16_33  and  N11_44
REMARK   15  A    between atoms: C17_34  and  C18_35
REMARK   16  A    between atoms: C18_35  and  C19_36
REMARK   17  A    between atoms: C19_36  and  N8_37
REMARK       I    between atoms: N8_37  and  C20_39
REMARK       I    between atoms: C20_39  and  N9_40
REMARK   18  A    between atoms: C24_52  and  N14_53
ROOT
HETATM    1  N7  UNL     1      -5.337  25.932  13.021  1.00  0.00    -0.328 N
ATOM      2  H7  UNL     1      -5.700  26.843  12.741  1.00  0.00     0.165 HD
HETATM    3  C15 UNL     1      -5.047  24.956  12.037  1.00  0.00     0.243 C
HETATM    4  O2  UNL     1      -4.600  23.839  12.401  1.00  0.00    -0.271 OA
ENDROOT
BRANCH   1   5
HETATM    5  C5  UNL     1      -5.118  25.638  14.437  1.00  0.00     0.263 C
BRANCH   5   6
HETATM    6  N1  UNL     1      -6.242  25.810  15.226  1.00  0.00    -0.386 N
ATOM      7  H1  UNL     1      -6.090  26.137  16.180  1.00  0.00     0.156 HD
BRANCH   6   8
HETATM    8  C3  UNL     1      -7.553  25.580  14.844  1.00  0.00     0.099 C
HETATM    9  C4  UNL     1      -8.341  24.843  15.913  1.00  0.00     0.034 C
BRANCH   8  10
HETATM   10  C2  UNL     1      -8.310  26.784  14.398  1.00  0.00     0.191 C
BRANCH  10  11
HETATM   11  O1  UNL     1      -8.183  27.143  13.125  1.00  0.00    -0.394 OA
HETATM   12  C1  UNL     1      -8.002  28.391  12.689  1.00  0.00     0.201 C
ENDBRANCH  10  11
ENDBRANCH   8  10
ENDBRANCH   6   8
ENDBRANCH   5   6
BRANCH   5  13
HETATM   13  C6  UNL     1      -3.941  26.417  14.804  1.00  0.00    -0.046 C
BRANCH  13  14
HETATM   14  C7  UNL     1      -2.938  27.076  15.069  1.00  0.00    -0.011 C
BRANCH  14  15
HETATM   15  C8  UNL     1      -1.784  27.847  15.351  1.00  0.00    -0.006 C
BRANCH  15  16
HETATM   16  C9  UNL     1      -0.806  28.519  15.576  1.00  0.00    -0.016 C
BRANCH  16  17
HETATM   17  C10 UNL     1       0.341  29.332  15.860  1.00  0.00     0.164 A
HETATM   18  N2  UNL     1       1.258  29.776  14.975  1.00  0.00    -0.329 N
HETATM   19  C11 UNL     1       2.188  30.506  15.600  1.00  0.00     0.123 A
ATOM     20  H2  UNL     1       1.244  29.582  13.974  1.00  0.00     0.168 HD
HETATM   21  C12 UNL     1       3.331  31.197  15.240  1.00  0.00     0.131 A
HETATM   22  C14 UNL     1       1.842  30.524  16.934  1.00  0.00     0.139 A
HETATM   23  N4  UNL     1       4.060  31.851  16.171  1.00  0.00    -0.337 N
HETATM   24  C13 UNL     1       3.703  31.851  17.451  1.00  0.00     0.183 A
ATOM     25  H4  UNL     1       4.900  32.355  15.885  1.00  0.00     0.168 HD
HETATM   26  N5  UNL     1       2.593  31.184  17.817  1.00  0.00    -0.337 N
ATOM     27  H5  UNL     1       2.319  31.183  18.799  1.00  0.00     0.168 HD
HETATM   28  N6  UNL     1       0.731  29.814  17.074  1.00  0.00    -0.319 N
ATOM     29  H6  UNL     1       0.243  29.653  17.955  1.00  0.00     0.169 HD
BRANCH  21  30
HETATM   30  N3  UNL     1       3.708  31.219  14.013  1.00  0.00    -0.383 N
ATOM     31  H32 UNL     1       3.278  30.580  13.345  1.00  0.00     0.157 HD
ATOM     32  H31 UNL     1       4.431  31.874  13.713  1.00  0.00     0.157 HD
ENDBRANCH  21  30
ENDBRANCH  16  17
ENDBRANCH  15  16
ENDBRANCH  14  15
ENDBRANCH  13  14
ENDBRANCH   5  13
ENDBRANCH   1   5
BRANCH   3  33
HETATM   33  C16 UNL     1      -5.246  25.186  10.589  1.00  0.00     0.184 C
BRANCH  33  34
HETATM   34  C17 UNL     1      -5.599  26.642  10.338  1.00  0.00     0.037 C
BRANCH  34  35
HETATM   35  C18 UNL     1      -5.480  27.028   8.893  1.00  0.00     0.022 C
BRANCH  35  36
HETATM   36  C19 UNL     1      -6.584  27.963   8.455  1.00  0.00     0.122 C
BRANCH  36  37
HETATM   37  N8  UNL     1      -7.849  27.264   8.442  1.00  0.00    -0.365 N
HETATM   38  C20 UNL     1      -9.087  27.965   8.544  1.00  0.00     0.181 C
HETATM   39  N9  UNL     1      -9.484  28.818   7.665  1.00  0.00    -0.374 N
HETATM   40  N10 UNL     1      -9.946  27.728   9.663  1.00  0.00    -0.064 NA
ATOM     41  H92 UNL     1      -8.872  28.987   6.867  1.00  0.00     0.158 HD
ATOM     42  H91 UNL     1     -10.369  29.319   7.739  1.00  0.00     0.158 HD
ATOM     43  H8  UNL     1      -7.856  26.248   8.357  1.00  0.00     0.162 HD
ENDBRANCH  36  37
ENDBRANCH  35  36
ENDBRANCH  34  35
ENDBRANCH  33  34
BRANCH  33  44
HETATM   44  N11 UNL     1      -6.196  24.290  10.005  1.00  0.00    -0.313 N
HETATM   45  C21 UNL     1      -5.932  23.311   9.131  1.00  0.00     0.186 A
HETATM   46  N12 UNL     1      -7.088  22.686   8.816  1.00  0.00    -0.348 N
HETATM   47  C22 UNL     1      -8.101  23.252   9.479  1.00  0.00     0.094 A
ATOM     48  H12 UNL     1      -7.175  21.902   8.170  1.00  0.00     0.167 HD
HETATM   49  C23 UNL     1      -9.454  23.007   9.521  1.00  0.00     0.139 A
HETATM   50  C25 UNL     1      -7.529  24.266  10.229  1.00  0.00     0.153 A
HETATM   51  N13 UNL     1     -10.250  23.776  10.317  1.00  0.00    -0.200 N
HETATM   52  C24 UNL     1      -9.688  24.762  11.045  1.00  0.00     0.677 A
ATOM     53  H13 UNL     1     -11.255  23.609  10.361  1.00  0.00     0.183 HD
HETATM   54  N15 UNL     1      -8.352  25.000  11.000  1.00  0.00    -0.174 N
ATOM     55  H15 UNL     1      -7.962  25.753  11.565  1.00  0.00     0.186 HD
BRANCH  52  56
HETATM   56  N14 UNL     1     -10.480  25.458  11.778  1.00  0.00    -0.234 N
ATOM     57 2H14 UNL     1     -11.321  25.896  11.402  1.00  0.00     0.174 HD
ATOM     58 1H14 UNL     1     -10.227  25.553  12.762  1.00  0.00     0.174 HD
ENDBRANCH  52  56
ENDBRANCH  33  44
ENDBRANCH   3  33
TORSDOF 18
ENDMDL