MODEL 1
REMARK VINA RESULT: -6.113399319      0.000      0.000
REMARK  18 active torsions:
REMARK  status: ('A' for Active; 'I' for Inactive)
REMARK    1  A    between atoms: C1_4  and  C2_6
REMARK       I    between atoms: C2_6  and  N3_8
REMARK    2  A    between atoms: N3_8  and  C3_10
REMARK    3  A    between atoms: C3_10  and  C4_11
REMARK    4  A    between atoms: C4_11  and  O2_12
REMARK    5  A    between atoms: O2_12  and  C5_13
REMARK    6  A    between atoms: C7_17  and  N5_18
REMARK    7  A    between atoms: C8_23  and  N7_24
REMARK    8  A    between atoms: N7_24  and  C9_26
REMARK    9  A    between atoms: C9_26  and  N8_28
REMARK   10  A    between atoms: N8_28  and  N9_30
REMARK       I    between atoms: N9_30  and  C10_32
REMARK   11  A    between atoms: C10_32  and  C11_34
REMARK   12  A    between atoms: C11_34  and  C12_35
REMARK   13  A    between atoms: C12_35  and  C13_36
REMARK   14  A    between atoms: C16_39  and  N10_40
REMARK       I    between atoms: N10_40  and  C17_42
REMARK   15  A    between atoms: C17_42  and  C18_44
REMARK   16  A    between atoms: C18_44  and  N11_45
REMARK   17  A    between atoms: N12_51  and  C21_52
REMARK   18  A    between atoms: C21_52  and  O5_53
ROOT
HETATM    1  C5  UNL     1      -6.802  30.386  10.336  1.00  0.00     0.225 A
HETATM    2  N4  UNL     1      -7.491  30.399   9.174  1.00  0.00    -0.316 N
ATOM      3  H4  UNL     1      -7.410  31.127   8.462  1.00  0.00     0.169 HD
HETATM    4  C6  UNL     1      -8.294  29.332   9.078  1.00  0.00     0.125 A
HETATM    5  C7  UNL     1      -9.186  28.857   8.145  1.00  0.00     0.145 A
HETATM    6  N6  UNL     1      -9.873  27.694   8.353  1.00  0.00    -0.174 N
ATOM      7  H6  UNL     1     -10.532  27.355   7.651  1.00  0.00     0.186 HD
HETATM    8  C8  UNL     1      -9.678  27.001   9.485  1.00  0.00     0.691 A
HETATM    9  N12 UNL     1      -8.812  27.445  10.410  1.00  0.00    -0.144 N
HETATM   10  C22 UNL     1      -8.115  28.587  10.243  1.00  0.00     0.159 A
HETATM   11  N13 UNL     1      -7.210  29.253  10.976  1.00  0.00    -0.305 N
ATOM     12  H13 UNL     1      -6.872  28.952  11.891  1.00  0.00     0.171 HD
ENDROOT
BRANCH   8  13
HETATM   13  N7  UNL     1     -10.295  25.904   9.732  1.00  0.00    -0.164 N
ATOM     14  H7  UNL     1     -11.116  25.902  10.337  1.00  0.00     0.186 HD
BRANCH  13  15
HETATM   15  C9  UNL     1      -9.833  24.703   9.164  1.00  0.00     0.205 C
HETATM   16  S1  UNL     1     -10.868  23.468   8.974  1.00  0.00    -0.039 SA
BRANCH  15  17
HETATM   17  N8  UNL     1      -8.481  24.584   8.770  1.00  0.00    -0.273 N
ATOM     18  H8  UNL     1      -8.154  25.121   7.967  1.00  0.00     0.189 HD
BRANCH  17  19
HETATM   19  N9  UNL     1      -7.571  23.749   9.445  1.00  0.00    -0.268 N
HETATM   20  C10 UNL     1      -6.237  23.722   8.970  1.00  0.00     0.236 C
HETATM   21  O3  UNL     1      -5.864  24.403   7.993  1.00  0.00    -0.272 OA
ATOM     22  H9  UNL     1      -7.860  23.187  10.245  1.00  0.00     0.190 HD
BRANCH  20  23
HETATM   23  C11 UNL     1      -5.281  22.823   9.707  1.00  0.00     0.109 C
BRANCH  23  24
HETATM   24  C12 UNL     1      -3.928  23.489   9.870  1.00  0.00     0.048 C
BRANCH  24  25
HETATM   25  C13 UNL     1      -4.037  24.442  10.990  1.00  0.00    -0.058 A
HETATM   26  C14 UNL     1      -4.457  24.026  12.208  1.00  0.00     0.009 A
HETATM   27  C15 UNL     1      -4.567  24.915  13.279  1.00  0.00     0.030 A
HETATM   28  C16 UNL     1      -4.240  26.229  13.076  1.00  0.00     0.034 A
HETATM   29  C19 UNL     1      -3.809  26.637  11.807  1.00  0.00     0.030 A
HETATM   30  C20 UNL     1      -3.710  25.758  10.788  1.00  0.00     0.009 A
BRANCH  28  31
HETATM   31  N10 UNL     1      -4.303  27.212  14.089  1.00  0.00    -0.326 N
HETATM   32  C17 UNL     1      -5.333  28.120  14.347  1.00  0.00     0.247 C
HETATM   33  O4  UNL     1      -6.395  28.215  13.709  1.00  0.00    -0.271 OA
ATOM     34  H10 UNL     1      -3.496  27.265  14.710  1.00  0.00     0.169 HD
BRANCH  32  35
HETATM   35  C18 UNL     1      -5.199  29.099  15.489  1.00  0.00     0.332 C
BRANCH  35  36
HETATM   36  N11 UNL     1      -3.809  29.246  15.788  1.00  0.00    -0.071 N
ATOM     37 3H11 UNL     1      -3.360  28.359  16.022  1.00  0.00     0.274 HD
ATOM     38 2H11 UNL     1      -3.250  29.470  14.964  1.00  0.00     0.274 HD
ATOM     39 1H11 UNL     1      -3.715  29.942  16.528  1.00  0.00     0.274 HD
ENDBRANCH  35  36
ENDBRANCH  32  35
ENDBRANCH  28  31
ENDBRANCH  24  25
ENDBRANCH  23  24
ENDBRANCH  20  23
ENDBRANCH  17  19
ENDBRANCH  15  17
ENDBRANCH  13  15
ENDBRANCH   8  13
BRANCH   9  40
HETATM   40  C21 UNL     1      -8.617  26.682  11.620  1.00  0.00     0.316 C
BRANCH  40  41
HETATM   41  O5  UNL     1      -7.447  25.929  11.596  1.00  0.00    -0.381 OA
ATOM     42  H5  UNL     1      -6.668  26.457  11.725  1.00  0.00     0.211 HD
ENDBRANCH  40  41
ENDBRANCH   9  40
BRANCH   5  43
HETATM   43  N5  UNL     1      -9.398  29.492   7.056  1.00  0.00    -0.383 N
ATOM     44  H52 UNL     1      -8.785  30.277   6.833  1.00  0.00     0.157 HD
ATOM     45  H51 UNL     1     -10.157  29.222   6.430  1.00  0.00     0.157 HD
ENDBRANCH   5  43
BRANCH   1  46
HETATM   46  O2  UNL     1      -5.883  31.256  10.855  1.00  0.00    -0.320 OA
BRANCH  46  47
HETATM   47  C4  UNL     1      -5.031  31.008  11.945  1.00  0.00     0.198 C
BRANCH  47  48
HETATM   48  C3  UNL     1      -3.642  30.597  11.557  1.00  0.00     0.149 C
BRANCH  48  49
HETATM   49  N3  UNL     1      -2.861  30.076  12.639  1.00  0.00    -0.353 N
HETATM   50  C2  UNL     1      -1.498  29.698  12.546  1.00  0.00     0.282 C
HETATM   51  O1  UNL     1      -0.934  29.831  11.408  1.00  0.00    -0.265 OA
ATOM     52  H3  UNL     1      -3.321  29.969  13.543  1.00  0.00     0.162 HD
BRANCH  50  53
HETATM   53  C1  UNL     1      -0.772  29.183  13.687  1.00  0.00     0.178 C
HETATM   54  N1  UNL     1       0.345  29.703  14.025  1.00  0.00    -0.383 N
ATOM     55  H12 UNL     1       0.857  29.341  14.829  1.00  0.00     0.157 HD
ATOM     56  H11 UNL     1       0.730  30.483  13.493  1.00  0.00     0.157 HD
HETATM   57  N2  UNL     1      -1.304  28.105  14.424  1.00  0.00    -0.077 NA
ENDBRANCH  50  53
ENDBRANCH  48  49
ENDBRANCH  47  48
ENDBRANCH  46  47
ENDBRANCH   1  46
TORSDOF 18
ENDMDL