MODEL 5
REMARK VINA RESULT: -6.809986676      2.852      6.059
REMARK  15 active torsions:
REMARK  status: ('A' for Active; 'I' for Inactive)
REMARK       I    between atoms: C1_4  and  N2_5
REMARK       I    between atoms: C1_4  and  N11_38
REMARK    1  A    between atoms: N2_5  and  C2_7
REMARK    2  A    between atoms: C3_10  and  N4_11
REMARK    3  A    between atoms: C5_18  and  N8_19
REMARK    4  A    between atoms: N8_19  and  C6_21
REMARK    5  A    between atoms: C6_21  and  C7_22
REMARK    6  A    between atoms: C7_22  and  O1_23
REMARK    7  A    between atoms: C7_22  and  C8_25
REMARK    8  A    between atoms: C11_28  and  N9_29
REMARK    9  A    between atoms: N9_29  and  C12_31
REMARK   10  A    between atoms: C12_31  and  O2_32
REMARK   11  A    between atoms: N11_38  and  C15_40
REMARK   12  A    between atoms: C15_40  and  C16_41
REMARK   13  A    between atoms: C16_41  and  N12_42
REMARK   14  A    between atoms: N12_42  and  S1_44
REMARK   15  A    between atoms: S1_44  and  C17_47
ROOT
HETATM    1  C2  UNL     1      -8.869  26.048   9.207  1.00  0.00     0.725 A
HETATM    2  N3  UNL     1      -9.033  27.226   8.628  1.00  0.00    -0.020 N
ATOM      3  H3  UNL     1      -8.536  27.411   7.757  1.00  0.00     0.203 HD
HETATM    4  C3  UNL     1      -9.850  28.224   9.148  1.00  0.00     0.713 A
HETATM    5  N7  UNL     1     -10.462  27.912  10.279  1.00  0.00    -0.021 N
ATOM      6  H7  UNL     1     -11.075  28.604  10.710  1.00  0.00     0.203 HD
HETATM    7  C5  UNL     1     -10.306  26.694  10.896  1.00  0.00     0.707 A
HETATM    8  N10 UNL     1      -9.510  25.763  10.362  1.00  0.00    -0.021 N
ATOM      9  H10 UNL     1      -9.389  24.858  10.816  1.00  0.00     0.203 HD
ENDROOT
BRANCH   1  10
HETATM   10  N2  UNL     1      -8.112  25.127   8.694  1.00  0.00    -0.022 N
HETATM   11  C1  UNL     1      -8.016  23.882   9.356  1.00  0.00     0.686 C
HETATM   12  N1  UNL     1      -9.039  23.138   9.470  1.00  0.00    -0.234 N
HETATM   13  N11 UNL     1      -6.761  23.507   9.888  1.00  0.00    -0.224 N
ATOM     14  H12 UNL     1      -9.944  23.408   9.087  1.00  0.00     0.174 HD
ATOM     15  H11 UNL     1      -8.969  22.239   9.948  1.00  0.00     0.174 HD
ATOM     16  H11 UNL     1      -6.506  23.764  10.841  1.00  0.00     0.177 HD
ATOM     17  H2  UNL     1      -7.596  25.298   7.831  1.00  0.00     0.203 HD
BRANCH  13  18
HETATM   18  C15 UNL     1      -5.842  22.755   9.062  1.00  0.00     0.158 C
BRANCH  18  19
HETATM   19  C16 UNL     1      -4.444  22.989   9.580  1.00  0.00     0.152 C
BRANCH  19  20
HETATM   20  N12 UNL     1      -4.434  23.943  10.678  1.00  0.00    -0.314 N
ATOM     21  H12 UNL     1      -4.922  23.839  11.569  1.00  0.00     0.172 HD
BRANCH  20  22
HETATM   22  S1  UNL     1      -3.451  25.282  10.208  1.00  0.00     0.260 S
HETATM   23  O3  UNL     1      -2.397  24.872   9.225  1.00  0.00    -0.200 OA
HETATM   24  O4  UNL     1      -2.735  25.879  11.391  1.00  0.00    -0.200 OA
BRANCH  22  25
HETATM   25  C17 UNL     1      -4.488  26.466   9.456  1.00  0.00     0.095 A
HETATM   26  C18 UNL     1      -5.083  27.473  10.182  1.00  0.00     0.032 A
HETATM   27  C19 UNL     1      -5.906  28.409   9.570  1.00  0.00     0.076 A
HETATM   28  C20 UNL     1      -6.105  28.291   8.207  1.00  0.00     0.245 A
HETATM   29  O5  UNL     1      -6.837  29.103   7.590  1.00  0.00    -0.268 OA
HETATM   30  N13 UNL     1      -5.518  27.305   7.519  1.00  0.00    -0.332 N
HETATM   31  C21 UNL     1      -4.716  26.389   8.100  1.00  0.00     0.116 A
ATOM     32  H13 UNL     1      -5.684  27.243   6.514  1.00  0.00     0.168 HD
ENDBRANCH  22  25
ENDBRANCH  20  22
ENDBRANCH  19  20
ENDBRANCH  18  19
ENDBRANCH  13  18
ENDBRANCH   1  10
BRANCH   4  33
HETATM   33  N4  UNL     1      -9.910  29.405   8.419  1.00  0.00    -0.165 N
HETATM   34  C4  UNL     1      -9.769  30.589   8.736  1.00  0.00     0.215 C
HETATM   35  N5  UNL     1      -9.486  31.032  10.052  1.00  0.00    -0.066 NA
HETATM   36  N6  UNL     1      -9.895  31.627   7.707  1.00  0.00    -0.066 NA
ATOM     37  H4  UNL     1     -10.109  29.266   7.429  1.00  0.00     0.186 HD
ENDBRANCH   4  33
BRANCH   7  38
HETATM   38  N8  UNL     1     -10.958  26.496  11.990  1.00  0.00    -0.222 N
ATOM     39  H8  UNL     1     -11.865  26.955  12.072  1.00  0.00     0.177 HD
BRANCH  38  40
HETATM   40  C6  UNL     1     -10.541  25.704  13.095  1.00  0.00     0.174 C
BRANCH  40  41
HETATM   41  C7  UNL     1      -9.810  26.521  14.152  1.00  0.00     0.169 C
BRANCH  41  42
HETATM   42  O1  UNL     1     -10.037  27.885  13.944  1.00  0.00    -0.389 OA
ATOM     43  H1  UNL     1     -10.463  28.264  14.704  1.00  0.00     0.210 HD
ENDBRANCH  41  42
BRANCH  41  44
HETATM   44  C8  UNL     1      -8.391  26.147  14.129  1.00  0.00    -0.028 A
HETATM   45  C9  UNL     1      -7.924  25.184  14.984  1.00  0.00     0.012 A
HETATM   46  C10 UNL     1      -6.610  24.793  15.014  1.00  0.00     0.030 A
HETATM   47  C11 UNL     1      -5.693  25.385  14.154  1.00  0.00     0.029 A
HETATM   48  C13 UNL     1      -6.168  26.355  13.294  1.00  0.00     0.030 A
HETATM   49  C14 UNL     1      -7.500  26.742  13.272  1.00  0.00     0.012 A
BRANCH  47  50
HETATM   50  N9  UNL     1      -4.324  25.017  14.152  1.00  0.00    -0.369 N
ATOM     51  H9  UNL     1      -4.044  24.193  13.621  1.00  0.00     0.161 HD
BRANCH  50  52
HETATM   52  C12 UNL     1      -3.315  25.750  14.860  1.00  0.00     0.287 C
BRANCH  52  53
HETATM   53  O2  UNL     1      -2.473  24.956  15.631  1.00  0.00    -0.382 OA
ATOM     54  H2  UNL     1      -1.632  25.355  15.823  1.00  0.00     0.211 HD
ENDBRANCH  52  53
ENDBRANCH  50  52
ENDBRANCH  47  50
ENDBRANCH  41  44
ENDBRANCH  40  41
ENDBRANCH  38  40
ENDBRANCH   7  38
TORSDOF 15
ENDMDL