MODEL 1
REMARK VINA RESULT: -6.916050293      0.000      0.000
REMARK  16 active torsions:
REMARK  status: ('A' for Active; 'I' for Inactive)
REMARK    1  A    between atoms: N1_1  and  C1_4
REMARK    2  A    between atoms: C2_7  and  N3_8
REMARK    3  A    between atoms: N4_11  and  C5_12
REMARK    4  A    between atoms: C5_12  and  C6_13
REMARK    5  A    between atoms: C6_13  and  O1_14
REMARK    6  A    between atoms: C9_19  and  C10_20
REMARK    7  A    between atoms: C10_20  and  O3_21
REMARK    8  A    between atoms: C10_20  and  N5_23
REMARK    9  A    between atoms: N5_23  and  C11_25
REMARK   10  A    between atoms: C14_28  and  C15_29
REMARK       I    between atoms: N8_35  and  C17_37
REMARK   11  A    between atoms: C17_37  and  C18_39
REMARK   12  A    between atoms: C18_39  and  N9_40
REMARK   13  A    between atoms: C18_39  and  C19_44
REMARK   14  A    between atoms: C19_44  and  C20_45
REMARK   15  A    between atoms: C20_45  and  C21_46
REMARK   16  A    between atoms: C22_52  and  N12_53
ROOT
HETATM    1  N5  UNL     1      -3.668  25.523  11.580  1.00  0.00    -0.322 N
ATOM      2  H5  UNL     1      -2.666  25.339  11.629  1.00  0.00     0.169 HD
ENDROOT
BRANCH   1   3
HETATM    3  C10 UNL     1      -4.246  25.326  10.324  1.00  0.00     0.159 C
BRANCH   3   4
HETATM    4  C9  UNL     1      -5.509  24.752   9.976  1.00  0.00     0.103 A
HETATM    5  C2  UNL     1      -6.630  25.572   9.865  1.00  0.00     0.138 A
HETATM    6  N2  UNL     1      -7.809  24.961   9.593  1.00  0.00    -0.176 N
HETATM    7  C1  UNL     1      -7.906  23.629   9.435  1.00  0.00     0.679 A
ATOM      8  H2  UNL     1      -8.650  25.530   9.505  1.00  0.00     0.186 HD
HETATM    9  N13 UNL     1      -6.820  22.820   9.542  1.00  0.00    -0.176 N
HETATM   10  C22 UNL     1      -5.620  23.362   9.811  1.00  0.00     0.133 A
ATOM     11  H13 UNL     1      -6.915  21.812   9.419  1.00  0.00     0.186 HD
BRANCH   5  12
HETATM   12  N3  UNL     1      -6.534  26.978  10.040  1.00  0.00    -0.356 N
HETATM   13  C3  UNL     1      -6.944  27.678  11.232  1.00  0.00     0.145 C
HETATM   14  C4  UNL     1      -7.869  28.830  10.947  1.00  0.00     0.145 C
HETATM   15  N4  UNL     1      -8.144  28.968   9.523  1.00  0.00    -0.347 N
HETATM   16  C7  UNL     1      -7.134  28.710   8.559  1.00  0.00     0.237 C
HETATM   17  O2  UNL     1      -7.209  29.232   7.430  1.00  0.00    -0.272 OA
HETATM   18  C8  UNL     1      -5.996  27.802   8.956  1.00  0.00     0.227 C
BRANCH  15  19
HETATM   19  C5  UNL     1      -9.483  29.377   9.163  1.00  0.00     0.151 C
BRANCH  19  20
HETATM   20  C6  UNL     1      -9.560  30.778   8.611  1.00  0.00     0.183 C
BRANCH  20  21
HETATM   21  O1  UNL     1      -9.830  30.837   7.264  1.00  0.00    -0.399 OA
ATOM     22  H1  UNL     1     -10.012  31.713   6.943  1.00  0.00     0.209 HD
ENDBRANCH  20  21
ENDBRANCH  19  20
ENDBRANCH  15  19
ENDBRANCH   5  12
BRANCH   7  23
HETATM   23  N1  UNL     1      -9.036  23.085   9.177  1.00  0.00    -0.234 N
ATOM     24  H12 UNL     1      -9.878  23.548   9.519  1.00  0.00     0.174 HD
ATOM     25  H11 UNL     1      -9.084  22.216   8.645  1.00  0.00     0.174 HD
ENDBRANCH   7  23
BRANCH  10  26
HETATM   26  N12 UNL     1      -4.541  22.667   9.932  1.00  0.00    -0.384 N
ATOM     27 2H12 UNL     1      -3.619  23.013   9.666  1.00  0.00     0.157 HD
ATOM     28 1H12 UNL     1      -4.634  21.725  10.313  1.00  0.00     0.157 HD
ENDBRANCH  10  26
ENDBRANCH   3   4
BRANCH   3  29
HETATM   29  O3  UNL     1      -3.484  25.746   9.337  1.00  0.00    -0.345 OA
ATOM     30  H3  UNL     1      -2.845  26.420   9.538  1.00  0.00     0.219 HD
ENDBRANCH   3  29
ENDBRANCH   1   3
BRANCH   1  31
HETATM   31  C11 UNL     1      -4.264  25.941  12.801  1.00  0.00     0.107 A
HETATM   32  C12 UNL     1      -3.783  26.852  13.704  1.00  0.00     0.051 A
HETATM   33  C13 UNL     1      -4.700  26.911  14.755  1.00  0.00     0.036 A
HETATM   34  C14 UNL     1      -5.691  26.042  14.445  1.00  0.00     0.069 A
HETATM   35  N11 UNL     1      -5.425  25.471  13.287  1.00  0.00    -0.340 N
ATOM     36  H11 UNL     1      -6.014  24.775  12.828  1.00  0.00     0.167 HD
BRANCH  34  37
HETATM   37  C15 UNL     1      -6.882  25.756  15.261  1.00  0.00     0.119 A
HETATM   38  N6  UNL     1      -7.178  26.140  16.489  1.00  0.00    -0.290 N
HETATM   39  N7  UNL     1      -8.268  25.797  17.034  1.00  0.00    -0.279 N
ATOM     40  H6  UNL     1      -6.519  26.720  17.007  1.00  0.00     0.188 HD
HETATM   41  C16 UNL     1      -9.124  25.035  16.347  1.00  0.00     0.168 A
ATOM     42  H7  UNL     1      -8.489  26.098  17.983  1.00  0.00     0.189 HD
HETATM   43  N8  UNL     1     -10.285  24.584  16.732  1.00  0.00    -0.304 N
HETATM   44  S1  UNL     1      -8.275  24.833  14.861  1.00  0.00    -0.031 SA
HETATM   45  C17 UNL     1     -11.019  23.788  15.820  1.00  0.00     0.254 C
ATOM     46  H8  UNL     1     -10.652  24.798  17.659  1.00  0.00     0.171 HD
HETATM   47  O4  UNL     1     -10.773  23.898  14.594  1.00  0.00    -0.271 OA
BRANCH  45  48
HETATM   48  C18 UNL     1     -12.066  22.832  16.232  1.00  0.00     0.275 C
BRANCH  48  49
HETATM   49  N9  UNL     1     -12.409  22.968  17.631  1.00  0.00    -0.066 N
ATOM     50  H93 UNL     1     -11.960  22.244  18.193  1.00  0.00     0.275 HD
ATOM     51  H92 UNL     1     -11.966  23.790  18.042  1.00  0.00     0.275 HD
ATOM     52  H91 UNL     1     -13.418  22.978  17.781  1.00  0.00     0.275 HD
ENDBRANCH  48  49
BRANCH  48  53
HETATM   53  C19 UNL     1     -11.686  21.406  15.971  1.00  0.00     0.051 C
BRANCH  53  54
HETATM   54  C20 UNL     1     -12.925  20.586  15.680  1.00  0.00     0.102 C
BRANCH  54  55
HETATM   55  C21 UNL     1     -13.030  20.404  14.219  1.00  0.00     0.231 C
HETATM   56  N10 UNL     1     -13.870  19.368  13.736  1.00  0.00    -0.062 NA
HETATM   57  O5  UNL     1     -12.394  21.143  13.432  1.00  0.00    -0.277 OA
ENDBRANCH  54  55
ENDBRANCH  53  54
ENDBRANCH  48  53
ENDBRANCH  45  48
ENDBRANCH  34  37
ENDBRANCH   1  31
TORSDOF 16
ENDMDL