MODEL 5
REMARK VINA RESULT: -6.161801360      4.830      8.378
REMARK  12 active torsions:
REMARK  status: ('A' for Active; 'I' for Inactive)
REMARK    1  A    between atoms: C2_2  and  N1_3
REMARK    2  A    between atoms: C2_2  and  C3_7
REMARK    3  A    between atoms: C6_12  and  N3_13
REMARK    4  A    between atoms: C11_27  and  N7_28
REMARK    5  A    between atoms: N9_37  and  C15_39
REMARK    6  A    between atoms: C15_39  and  C16_40
REMARK       I    between atoms: C16_40  and  N10_42
REMARK    7  A    between atoms: N10_42  and  C17_44
REMARK    8  A    between atoms: C17_44  and  C18_45
REMARK    9  A    between atoms: C17_44  and  C19_47
REMARK   10  A    between atoms: C19_47  and  C20_48
REMARK   11  A    between atoms: C20_48  and  C21_49
REMARK   12  A    between atoms: C21_49  and  N11_50
ROOT
HETATM    1  C3  UNL     1      54.835   1.526  12.488  1.00  0.00     0.114 A
HETATM    2  N2  UNL     1      55.429   1.644  13.679  1.00  0.00    -0.341 N
ATOM      3  H2  UNL     1      56.310   1.174  13.890  1.00  0.00     0.167 HD
HETATM    4  C4  UNL     1      54.791   2.431  14.601  1.00  0.00     0.081 A
HETATM    5  C5  UNL     1      53.614   3.070  14.339  1.00  0.00     0.080 A
HETATM    6  C6  UNL     1      52.966   3.868  15.274  1.00  0.00     0.115 A
HETATM    7  N4  UNL     1      53.578   3.993  16.513  1.00  0.00    -0.339 N
ATOM      8  H4  UNL     1      53.133   4.571  17.226  1.00  0.00     0.167 HD
HETATM    9  C7  UNL     1      54.709   3.392  16.798  1.00  0.00     0.081 A
HETATM   10  C8  UNL     1      55.365   2.586  15.855  1.00  0.00     0.091 A
HETATM   11  N5  UNL     1      56.518   1.959  16.113  1.00  0.00    -0.318 N
ATOM     12  H5  UNL     1      56.962   1.382  15.398  1.00  0.00     0.169 HD
HETATM   13  C9  UNL     1      57.082   2.097  17.315  1.00  0.00     0.274 A
HETATM   14  O1  UNL     1      58.181   1.513  17.591  1.00  0.00    -0.266 OA
HETATM   15  C10 UNL     1      56.501   2.870  18.293  1.00  0.00     0.135 A
HETATM   16  N6  UNL     1      57.066   3.008  19.500  1.00  0.00    -0.185 N
ATOM     17  H6  UNL     1      57.946   2.532  19.703  1.00  0.00     0.184 HD
HETATM   18  C11 UNL     1      56.490   3.763  20.445  1.00  0.00     0.679 A
HETATM   19  N8  UNL     1      55.331   4.407  20.222  1.00  0.00    -0.156 N
ATOM     20  H8  UNL     1      54.915   4.976  20.960  1.00  0.00     0.187 HD
HETATM   21  C12 UNL     1      54.709   4.304  19.008  1.00  0.00     0.274 A
HETATM   22  O2  UNL     1      53.658   4.926  18.899  1.00  0.00    -0.267 OA
HETATM   23  C13 UNL     1      55.294   3.536  18.048  1.00  0.00     0.094 A
HETATM   24  C14 UNL     1      53.018   2.923  13.071  1.00  0.00     0.119 A
HETATM   25  N9  UNL     1      51.920   3.540  12.833  1.00  0.00    -0.367 N
ATOM     26  H9  UNL     1      51.554   4.104  13.600  1.00  0.00     0.161 HD
HETATM   27  N12 UNL     1      53.664   2.152  12.201  1.00  0.00    -0.330 N
ATOM     28  H12 UNL     1      53.261   2.025  11.273  1.00  0.00     0.168 HD
ENDROOT
BRANCH  25  29
HETATM   29  C15 UNL     1      51.140   3.542  11.641  1.00  0.00     0.224 C
BRANCH  29  30
HETATM   30  C16 UNL     1      51.085   4.851  10.951  1.00  0.00     0.235 C
HETATM   31  O3  UNL     1      51.553   4.836   9.757  1.00  0.00    -0.272 OA
HETATM   32  N10 UNL     1      50.571   6.015  11.531  1.00  0.00    -0.349 N
ATOM     33  H10 UNL     1      50.217   5.972  12.487  1.00  0.00     0.163 HD
BRANCH  32  34
HETATM   34  C17 UNL     1      50.522   7.309  10.808  1.00  0.00     0.146 C
BRANCH  34  35
HETATM   35  C18 UNL     1      49.213   7.426  10.210  1.00  0.00     0.256 C
HETATM   36  O4  UNL     1      48.265   7.851  10.901  1.00  0.00    -0.305 OA
ENDBRANCH  34  35
BRANCH  34  37
HETATM   37  C19 UNL     1      51.147   8.355  11.618  1.00  0.00     0.034 C
BRANCH  37  38
HETATM   38  C20 UNL     1      51.228   9.716  11.083  1.00  0.00     0.029 C
BRANCH  38  39
HETATM   39  C21 UNL     1      50.562  10.769  11.862  1.00  0.00     0.230 C
BRANCH  39  40
HETATM   40  N11 UNL     1      49.100  10.740  11.645  1.00  0.00    -0.079 N
ATOM     41 3H11 UNL     1      48.782  11.554  11.119  1.00  0.00     0.274 HD
ATOM     42 2H11 UNL     1      48.831  10.013  10.983  1.00  0.00     0.274 HD
ATOM     43 1H11 UNL     1      48.603  10.645  12.531  1.00  0.00     0.274 HD
ENDBRANCH  39  40
ENDBRANCH  38  39
ENDBRANCH  37  38
ENDBRANCH  34  37
ENDBRANCH  32  34
ENDBRANCH  29  30
ENDBRANCH  25  29
BRANCH   6  44
HETATM   44  N3  UNL     1      51.920   4.409  15.035  1.00  0.00    -0.385 N
ATOM     45  H32 UNL     1      51.073   3.871  14.855  1.00  0.00     0.157 HD
ATOM     46  H31 UNL     1      51.835   5.424  14.985  1.00  0.00     0.157 HD
ENDBRANCH   6  44
BRANCH   1  47
HETATM   47  C2  UNL     1      55.429   0.691  11.393  1.00  0.00     0.246 C
HETATM   48  C1  UNL     1      55.703  -0.710  11.840  1.00  0.00     0.048 C
BRANCH  47  49
HETATM   49  N1  UNL     1      56.598   1.344  10.839  1.00  0.00    -0.069 N
ATOM     50  H13 UNL     1      57.454   0.967  11.247  1.00  0.00     0.275 HD
ATOM     51  H12 UNL     1      56.743   1.070   9.867  1.00  0.00     0.275 HD
ATOM     52  H11 UNL     1      56.565   2.359  10.932  1.00  0.00     0.275 HD
ENDBRANCH  47  49
ENDBRANCH   1  47
BRANCH  18  53
HETATM   53  N7  UNL     1      57.026   3.901  21.613  1.00  0.00    -0.234 N
ATOM     54  H72 UNL     1      58.027   4.094  21.647  1.00  0.00     0.174 HD
ATOM     55  H71 UNL     1      56.469   3.819  22.464  1.00  0.00     0.174 HD
ENDBRANCH  18  53
TORSDOF 12
ENDMDL