MODEL 2
REMARK VINA RESULT: -6.691473356      0.731      1.852
REMARK  12 active torsions:
REMARK  status: ('A' for Active; 'I' for Inactive)
REMARK    1  A    between atoms: N1_1  and  C1_4
REMARK    2  A    between atoms: N3_8  and  C3_10
REMARK    3  A    between atoms: C3_10  and  C4_11
REMARK    4  A    between atoms: C7_14  and  C8_15
REMARK       I    between atoms: C8_15  and  N4_17
REMARK    5  A    between atoms: N4_17  and  C9_19
REMARK    6  A    between atoms: C9_19  and  C10_20
REMARK       I    between atoms: C10_20  and  N5_22
REMARK    7  A    between atoms: N5_22  and  C11_24
REMARK    8  A    between atoms: C12_25  and  O3_26
REMARK    9  A    between atoms: C12_25  and  N6_28
REMARK   10  A    between atoms: N6_28  and  C13_30
REMARK   11  A    between atoms: C15_32  and  C16_33
REMARK   12  A    between atoms: C16_33  and  N7_34
ROOT
HETATM    1  C4  UNL     1      56.528  -2.816  16.981  1.00  0.00     0.030 A
HETATM    2  C5  UNL     1      55.324  -2.188  16.841  1.00  0.00     0.028 A
HETATM    3  C6  UNL     1      55.143  -0.849  16.859  1.00  0.00     0.025 A
HETATM    4  C7  UNL     1      56.268  -0.012  17.034  1.00  0.00     0.100 A
HETATM    5  C17 UNL     1      57.465  -0.667  17.172  1.00  0.00     0.261 A
HETATM    6  O4  UNL     1      58.528   0.019  17.332  1.00  0.00    -0.267 OA
HETATM    7  N10 UNL     1      57.598  -2.029  17.146  1.00  0.00    -0.325 N
ATOM      8  H10 UNL     1      58.521  -2.448  17.255  1.00  0.00     0.169 HD
ENDROOT
BRANCH   4   9
HETATM    9  C8  UNL     1      56.077   1.420  17.068  1.00  0.00     0.257 C
HETATM   10  O1  UNL     1      55.558   1.959  16.031  1.00  0.00    -0.267 OA
HETATM   11  N4  UNL     1      56.396   2.294  18.115  1.00  0.00    -0.348 N
ATOM     12  H4  UNL     1      56.816   1.912  18.963  1.00  0.00     0.163 HD
BRANCH  11  13
HETATM   13  C9  UNL     1      56.150   3.732  18.039  1.00  0.00     0.226 C
BRANCH  13  14
HETATM   14  C10 UNL     1      55.255   4.244  19.072  1.00  0.00     0.239 C
HETATM   15  O2  UNL     1      55.646   4.538  20.229  1.00  0.00    -0.271 OA
HETATM   16  N5  UNL     1      53.874   4.441  18.824  1.00  0.00    -0.332 N
ATOM     17  H5  UNL     1      53.297   4.834  19.568  1.00  0.00     0.168 HD
BRANCH  16  18
HETATM   18  C11 UNL     1      53.300   4.141  17.673  1.00  0.00     0.146 C
HETATM   19  C12 UNL     1      52.536   2.949  17.608  1.00  0.00     0.157 C
BRANCH  19  20
HETATM   20  O3  UNL     1      52.484   2.264  18.727  1.00  0.00    -0.345 OA
ATOM     21  H3  UNL     1      53.320   1.933  19.032  1.00  0.00     0.219 HD
ENDBRANCH  19  20
BRANCH  19  22
HETATM   22  N6  UNL     1      51.837   2.389  16.566  1.00  0.00    -0.321 N
ATOM     23  H6  UNL     1      51.199   3.017  16.078  1.00  0.00     0.169 HD
BRANCH  22  24
HETATM   24  C13 UNL     1      51.878   1.074  16.080  1.00  0.00     0.123 A
HETATM   25  C14 UNL     1      52.290   0.524  14.910  1.00  0.00     0.078 A
HETATM   26  C15 UNL     1      52.096  -0.873  14.951  1.00  0.00     0.054 A
HETATM   27  N8  UNL     1      51.576  -1.100  16.142  1.00  0.00    -0.302 N
HETATM   28  N9  UNL     1      51.432  -0.001  16.831  1.00  0.00    -0.285 N
ATOM     29  H8  UNL     1      51.317  -2.026  16.483  1.00  0.00     0.186 HD
ATOM     30  H9  UNL     1      51.050   0.057  17.776  1.00  0.00     0.188 HD
BRANCH  26  31
HETATM   31  C16 UNL     1      52.441  -1.781  13.840  1.00  0.00     0.288 C
BRANCH  31  32
HETATM   32  N7  UNL     1      53.842  -1.682  13.503  1.00  0.00    -0.074 N
ATOM     33  H73 UNL     1      54.228  -0.775  13.764  1.00  0.00     0.274 HD
ATOM     34  H72 UNL     1      54.415  -2.274  14.104  1.00  0.00     0.274 HD
ATOM     35  H71 UNL     1      53.998  -1.886  12.516  1.00  0.00     0.274 HD
ENDBRANCH  31  32
ENDBRANCH  26  31
ENDBRANCH  22  24
ENDBRANCH  19  22
ENDBRANCH  16  18
ENDBRANCH  13  14
ENDBRANCH  11  13
ENDBRANCH   4   9
BRANCH   1  36
HETATM   36  C3  UNL     1      56.709  -4.284  16.959  1.00  0.00     0.178 C
BRANCH  36  37
HETATM   37  N3  UNL     1      55.490  -5.003  17.112  1.00  0.00    -0.368 N
HETATM   38  C2  UNL     1      55.050  -5.525  18.211  1.00  0.00     0.148 A
HETATM   39  N2  UNL     1      55.710  -5.450  19.378  1.00  0.00    -0.175 N
HETATM   40  C18 UNL     1      53.834  -6.208  18.233  1.00  0.00     0.123 A
HETATM   41  C1  UNL     1      55.203  -6.014  20.509  1.00  0.00     0.679 A
ATOM     42  H2  UNL     1      56.605  -4.962  19.418  1.00  0.00     0.186 HD
HETATM   43  N13 UNL     1      54.024  -6.673  20.519  1.00  0.00    -0.174 N
HETATM   44  C20 UNL     1      53.324  -6.778  19.376  1.00  0.00     0.152 A
ATOM     45  H13 UNL     1      53.670  -7.086  21.383  1.00  0.00     0.186 HD
HETATM   46  N12 UNL     1      52.151  -7.369  19.129  1.00  0.00    -0.336 N
HETATM   47  C19 UNL     1      51.899  -7.178  17.804  1.00  0.00     0.182 A
ATOM     48  H12 UNL     1      51.563  -7.864  19.799  1.00  0.00     0.168 HD
HETATM   49  N11 UNL     1      52.928  -6.473  17.273  1.00  0.00    -0.346 N
ATOM     50  H11 UNL     1      53.004  -6.187  16.296  1.00  0.00     0.167 HD
ATOM     51  H3  UNL     1      54.911  -5.118  16.279  1.00  0.00     0.161 HD
BRANCH  41  52
HETATM   52  N1  UNL     1      55.866  -5.920  21.608  1.00  0.00    -0.234 N
ATOM     53  H12 UNL     1      55.448  -5.413  22.389  1.00  0.00     0.174 HD
ATOM     54  H11 UNL     1      56.787  -6.355  21.672  1.00  0.00     0.174 HD
ENDBRANCH  41  52
ENDBRANCH  36  37
ENDBRANCH   1  36
TORSDOF 12
ENDMDL