MODEL 1
REMARK VINA RESULT: -6.749863938      0.000      0.000
REMARK  14 active torsions:
REMARK  status: ('A' for Active; 'I' for Inactive)
REMARK    1  A    between atoms: N1_5  and  C5_7
REMARK    2  A    between atoms: C5_7  and  O1_8
REMARK    3  A    between atoms: C5_7  and  C6_10
REMARK       I    between atoms: C6_10  and  N2_12
REMARK    4  A    between atoms: N2_12  and  C7_14
REMARK    5  A    between atoms: C7_14  and  C8_15
REMARK    6  A    between atoms: C7_14  and  C9_24
REMARK    7  A    between atoms: C8_15  and  N3_16
REMARK    8  A    between atoms: C8_15  and  N4_20
REMARK    9  A    between atoms: C9_24  and  N5_26
REMARK   10  A    between atoms: N5_26  and  C11_28
REMARK   11  A    between atoms: C12_33  and  C13_34
REMARK   12  A    between atoms: N9_37  and  N10_38
REMARK   13  A    between atoms: C14_43  and  N12_44
REMARK   14  A    between atoms: N12_44  and  C15_46
ROOT
HETATM    1  C7  UNL     1      54.398   0.870  15.871  1.00  0.00     0.165 C
ENDROOT
BRANCH   1   2
HETATM    2  N2  UNL     1      55.555   0.049  16.181  1.00  0.00    -0.347 N
HETATM    3  C6  UNL     1      56.460   0.390  17.214  1.00  0.00     0.267 C
HETATM    4  O2  UNL     1      56.333   1.405  17.923  1.00  0.00    -0.269 OA
ATOM      5  H2  UNL     1      55.721  -0.798  15.639  1.00  0.00     0.163 HD
BRANCH   3   6
HETATM    6  C5  UNL     1      57.622  -0.491  17.478  1.00  0.00     0.313 C
BRANCH   6   7
HETATM    7  N1  UNL     1      57.562  -1.773  16.874  1.00  0.00    -0.342 N
HETATM    8  C4  UNL     1      56.979  -2.782  17.380  1.00  0.00     0.121 A
HETATM    9  C3  UNL     1      56.317  -2.801  18.582  1.00  0.00     0.074 A
HETATM   10  N11 UNL     1      56.983  -3.981  16.704  1.00  0.00    -0.177 N
HETATM   11  C2  UNL     1      55.689  -3.946  19.094  1.00  0.00     0.026 A
HETATM   12  C1  UNL     1      54.984  -3.922  20.400  1.00  0.00     0.069 C
HETATM   13  N13 UNL     1      55.757  -5.061  18.347  1.00  0.00    -0.196 N
HETATM   14  C14 UNL     1      56.395  -5.089  17.162  1.00  0.00     0.684 A
ATOM     15  H13 UNL     1      55.311  -5.912  18.688  1.00  0.00     0.184 HD
ATOM     16  H11 UNL     1      57.460  -4.025  15.804  1.00  0.00     0.186 HD
ATOM     17  H1  UNL     1      58.019  -1.894  15.970  1.00  0.00     0.164 HD
BRANCH  14  18
HETATM   18  N12 UNL     1      56.449  -6.177  16.458  1.00  0.00    -0.192 N
ATOM     19  H12 UNL     1      55.826  -6.944  16.711  1.00  0.00     0.184 HD
BRANCH  18  20
HETATM   20  C15 UNL     1      57.312  -6.358  15.369  1.00  0.00     0.049 A
HETATM   21  C16 UNL     1      56.789  -6.125  14.094  1.00  0.00     0.030 A
HETATM   22  C17 UNL     1      57.624  -6.298  13.021  1.00  0.00     0.002 A
HETATM   23  C18 UNL     1      58.939  -6.690  13.211  1.00  0.00     0.000 A
HETATM   24  C19 UNL     1      59.440  -6.916  14.483  1.00  0.00     0.002 A
HETATM   25  C20 UNL     1      58.614  -6.746  15.571  1.00  0.00     0.030 A
ENDBRANCH  18  20
ENDBRANCH  14  18
ENDBRANCH   6   7
BRANCH   6  26
HETATM   26  O1  UNL     1      58.842   0.104  17.262  1.00  0.00    -0.368 OA
ATOM     27  H1  UNL     1      58.750   0.908  16.765  1.00  0.00     0.212 HD
ENDBRANCH   6  26
ENDBRANCH   3   6
ENDBRANCH   1   2
BRANCH   1  28
HETATM   28  C8  UNL     1      53.178   0.049  16.134  1.00  0.00     0.402 C
BRANCH  28  29
HETATM   29  N3  UNL     1      53.465  -1.291  16.592  1.00  0.00    -0.048 N
ATOM     30  H33 UNL     1      52.819  -1.960  16.174  1.00  0.00     0.276 HD
ATOM     31  H32 UNL     1      54.341  -1.627  16.194  1.00  0.00     0.276 HD
ATOM     32  H31 UNL     1      53.473  -1.385  17.608  1.00  0.00     0.276 HD
ENDBRANCH  28  29
BRANCH  28  33
HETATM   33  N4  UNL     1      52.247   0.711  17.029  1.00  0.00    -0.048 N
ATOM     34  H43 UNL     1      51.553   1.247  16.507  1.00  0.00     0.276 HD
ATOM     35  H42 UNL     1      51.627   0.037  17.478  1.00  0.00     0.276 HD
ATOM     36  H41 UNL     1      52.718   1.295  17.720  1.00  0.00     0.276 HD
ENDBRANCH  28  33
ENDBRANCH   1  28
BRANCH   1  37
HETATM   37  C9  UNL     1      54.451   1.349  14.416  1.00  0.00     0.121 C
HETATM   38  C10 UNL     1      55.674   0.778  13.735  1.00  0.00     0.035 C
BRANCH  37  39
HETATM   39  N5  UNL     1      54.552   2.772  14.442  1.00  0.00    -0.217 N
ATOM     40  H5  UNL     1      54.274   3.292  13.609  1.00  0.00     0.178 HD
BRANCH  39  41
HETATM   41  C11 UNL     1      54.977   3.434  15.464  1.00  0.00     0.716 A
HETATM   42  N6  UNL     1      56.243   3.667  15.856  1.00  0.00    -0.129 N
HETATM   43  N7  UNL     1      56.245   4.392  16.962  1.00  0.00    -0.265 N
ATOM     44  H6  UNL     1      57.078   3.335  15.372  1.00  0.00     0.205 HD
HETATM   45  C12 UNL     1      54.967   4.657  17.327  1.00  0.00     0.225 A
ATOM     46  H7  UNL     1      57.078   4.704  17.462  1.00  0.00     0.189 HD
HETATM   47  N9  UNL     1      54.202   4.046  16.374  1.00  0.00    -0.069 N
BRANCH  45  48
HETATM   48  C13 UNL     1      54.506   5.417  18.473  1.00  0.00     0.302 C
HETATM   49  N8  UNL     1      54.940   5.067  19.762  1.00  0.00    -0.054 NA
HETATM   50  O3  UNL     1      53.729   6.374  18.311  1.00  0.00    -0.268 OA
ENDBRANCH  45  48
BRANCH  47  51
HETATM   51  N10 UNL     1      52.816   4.062  16.359  1.00  0.00    -0.322 N
ATOM     52 2H10 UNL     1      52.256   4.798  15.927  1.00  0.00     0.178 HD
ATOM     53 1H10 UNL     1      52.217   3.349  16.774  1.00  0.00     0.178 HD
ENDBRANCH  47  51
ENDBRANCH  39  41
ENDBRANCH  37  39
ENDBRANCH   1  37
TORSDOF 14
ENDMDL