MODEL 4
REMARK VINA RESULT: -6.891779341      4.115      7.955
REMARK  12 active torsions:
REMARK  status: ('A' for Active; 'I' for Inactive)
REMARK    1  A    between atoms: N1_1  and  C1_4
REMARK    2  A    between atoms: C4_9  and  N3_10
REMARK    3  A    between atoms: C5_12  and  C6_13
REMARK    4  A    between atoms: C6_13  and  N4_14
REMARK       I    between atoms: N4_14  and  C7_16
REMARK    5  A    between atoms: C7_16  and  C8_18
REMARK    6  A    between atoms: C9_23  and  C10_24
REMARK    7  A    between atoms: C13_34  and  N10_35
REMARK    8  A    between atoms: N10_35  and  C14_36
REMARK    9  A    between atoms: C14_36  and  C15_37
REMARK   10  A    between atoms: C14_36  and  C17_41
REMARK   11  A    between atoms: C15_37  and  C16_38
REMARK   12  A    between atoms: C17_41  and  O3_42
ROOT
HETATM    1  C8  UNL     1      55.329  -1.955  17.671  1.00  0.00     0.191 A
HETATM    2  N5  UNL     1      56.061  -2.158  16.569  1.00  0.00    -0.279 N
ATOM      3  H5  UNL     1      56.855  -2.793  16.480  1.00  0.00     0.189 HD
HETATM    4  N6  UNL     1      55.569  -1.388  15.624  1.00  0.00    -0.283 N
ATOM      5  H6  UNL     1      55.945  -1.348  14.677  1.00  0.00     0.188 HD
HETATM    6  C9  UNL     1      54.531  -0.668  16.033  1.00  0.00     0.138 A
HETATM    7  N12 UNL     1      54.393  -1.045  17.344  1.00  0.00    -0.321 N
ATOM      8  H12 UNL     1      53.682  -0.686  17.982  1.00  0.00     0.169 HD
ENDROOT
BRANCH   6   9
HETATM    9  C10 UNL     1      53.693   0.288  15.330  1.00  0.00     0.084 A
HETATM   10  C11 UNL     1      52.854  -0.167  14.307  1.00  0.00     0.126 A
HETATM   11  N7  UNL     1      52.063   0.640  13.623  1.00  0.00    -0.201 N
HETATM   12  C12 UNL     1      52.065   1.938  13.918  1.00  0.00     0.678 A
ATOM     13  H7  UNL     1      51.462   0.276  12.883  1.00  0.00     0.183 HD
HETATM   14  N8  UNL     1      51.290   2.728  13.249  1.00  0.00    -0.234 N
HETATM   15  N9  UNL     1      52.835   2.436  14.877  1.00  0.00    -0.164 N
ATOM     16  H82 UNL     1      50.698   2.346  12.512  1.00  0.00     0.174 HD
ATOM     17  H81 UNL     1      51.292   3.722  13.475  1.00  0.00     0.174 HD
HETATM   18  C13 UNL     1      53.701   1.630  15.642  1.00  0.00     0.203 A
ATOM     19  H9  UNL     1      52.799   3.437  15.066  1.00  0.00     0.187 HD
BRANCH  18  20
HETATM   20  N10 UNL     1      54.354   2.161  16.492  1.00  0.00    -0.420 NA
BRANCH  20  21
HETATM   21  C14 UNL     1      55.088   2.758  17.446  1.00  0.00     0.208 C
BRANCH  21  22
HETATM   22  C15 UNL     1      54.559   4.181  17.724  1.00  0.00     0.142 C
BRANCH  22  23
HETATM   23  C16 UNL     1      54.116   4.271  19.149  1.00  0.00     0.234 C
HETATM   24  N11 UNL     1      55.115   4.698  20.080  1.00  0.00    -0.062 NA
HETATM   25  O2  UNL     1      52.945   3.990  19.514  1.00  0.00    -0.277 OA
ENDBRANCH  22  23
ENDBRANCH  21  22
BRANCH  21  26
HETATM   26  C17 UNL     1      56.589   2.820  17.197  1.00  0.00     0.090 C
HETATM   27  C18 UNL     1      57.281   1.519  17.039  1.00  0.00     0.041 C
HETATM   28  C19 UNL     1      57.409   1.801  15.565  1.00  0.00     0.006 C
HETATM   29  C20 UNL     1      56.964   3.226  15.809  1.00  0.00     0.041 C
BRANCH  26  30
HETATM   30  O3  UNL     1      57.215   3.658  18.118  1.00  0.00    -0.387 OA
ATOM     31  H3  UNL     1      57.924   4.143  17.711  1.00  0.00     0.210 HD
ENDBRANCH  26  30
ENDBRANCH  21  26
ENDBRANCH  20  21
ENDBRANCH  18  20
ENDBRANCH   6   9
BRANCH   1  32
HETATM   32  C7  UNL     1      55.480  -2.587  19.014  1.00  0.00     0.287 C
HETATM   33  N4  UNL     1      54.699  -3.694  19.372  1.00  0.00    -0.350 N
ATOM     34  H4  UNL     1      54.020  -4.053  18.699  1.00  0.00     0.163 HD
HETATM   35  O1  UNL     1      56.316  -2.110  19.812  1.00  0.00    -0.264 OA
BRANCH  33  36
HETATM   36  C6  UNL     1      54.814  -4.337  20.641  1.00  0.00     0.168 C
BRANCH  36  37
HETATM   37  C5  UNL     1      55.320  -5.742  20.584  1.00  0.00     0.098 C
HETATM   38  N3  UNL     1      55.630  -6.363  21.744  1.00  0.00    -0.204 N
ATOM     39  H3  UNL     1      56.409  -6.967  21.481  1.00  0.00     0.183 HD
BRANCH  38  40
HETATM   40  C4  UNL     1      55.489  -6.598  22.942  1.00  0.00     0.683 A
HETATM   41  N2  UNL     1      54.564  -7.459  23.405  1.00  0.00    -0.202 N
HETATM   42  C3  UNL     1      54.448  -7.678  24.726  1.00  0.00     0.110 A
ATOM     43  H2  UNL     1      53.951  -7.947  22.752  1.00  0.00     0.183 HD
HETATM   44  C2  UNL     1      55.260  -7.031  25.602  1.00  0.00     0.066 A
HETATM   45  C1  UNL     1      56.217  -6.141  25.151  1.00  0.00     0.116 A
HETATM   46  N13 UNL     1      56.315  -5.942  23.848  1.00  0.00    -0.177 N
ATOM     47  H13 UNL     1      57.016  -5.289  23.498  1.00  0.00     0.185 HD
BRANCH  45  48
HETATM   48  N1  UNL     1      56.967  -5.549  26.026  1.00  0.00    -0.385 N
ATOM     49  H12 UNL     1      57.967  -5.721  26.123  1.00  0.00     0.157 HD
ATOM     50  H11 UNL     1      56.535  -4.870  26.654  1.00  0.00     0.157 HD
ENDBRANCH  45  48
ENDBRANCH  38  40
ENDBRANCH  36  37
ENDBRANCH  33  36
ENDBRANCH   1  32
TORSDOF 12
ENDMDL