MODEL 4
REMARK VINA RESULT: -6.587366628      1.482      2.678
REMARK  14 active torsions:
REMARK  status: ('A' for Active; 'I' for Inactive)
REMARK    1  A    between atoms: N1_1  and  C1_4
REMARK    2  A    between atoms: C2_7  and  N3_8
REMARK    3  A    between atoms: C5_16  and  N5_17
REMARK    4  A    between atoms: N6_20  and  C6_21
REMARK    5  A    between atoms: C6_21  and  C7_22
REMARK    6  A    between atoms: C7_22  and  N7_23
REMARK       I    between atoms: N7_23  and  C8_25
REMARK    7  A    between atoms: C8_25  and  C9_27
REMARK    8  A    between atoms: C9_27  and  C10_28
REMARK    9  A    between atoms: C9_27  and  N9_34
REMARK   10  A    between atoms: C10_28  and  C11_29
REMARK   11  A    between atoms: C11_29  and  N8_30
REMARK   12  A    between atoms: N9_34  and  C12_36
REMARK   13  A    between atoms: C14_42  and  N12_43
REMARK   14  A    between atoms: N12_43  and  C15_45
ROOT
HETATM    1  N7  UNL     1      52.920   2.828  17.815  1.00  0.00    -0.358 N
ATOM      2  H7  UNL     1      53.571   2.332  18.424  1.00  0.00     0.162 HD
HETATM    3  C8  UNL     1      53.222   4.179  17.497  1.00  0.00     0.241 C
HETATM    4  O2  UNL     1      52.473   4.856  16.766  1.00  0.00    -0.271 OA
ENDROOT
BRANCH   3   5
HETATM    5  C9  UNL     1      54.464   4.843  18.033  1.00  0.00     0.193 C
BRANCH   5   6
HETATM    6  C10 UNL     1      54.077   5.469  19.360  1.00  0.00     0.062 C
BRANCH   6   7
HETATM    7  C11 UNL     1      54.159   4.522  20.516  1.00  0.00     0.232 C
BRANCH   7   8
HETATM    8  N8  UNL     1      52.885   4.222  21.100  1.00  0.00    -0.079 N
ATOM      9  H83 UNL     1      53.000   3.730  21.986  1.00  0.00     0.274 HD
ATOM     10  H82 UNL     1      52.432   5.071  21.436  1.00  0.00     0.274 HD
ATOM     11  H81 UNL     1      52.265   3.703  20.478  1.00  0.00     0.274 HD
ENDBRANCH   7   8
ENDBRANCH   6   7
ENDBRANCH   5   6
BRANCH   5  12
HETATM   12  N9  UNL     1      55.478   3.827  18.220  1.00  0.00    -0.212 N
ATOM     13  H9  UNL     1      55.589   3.419  19.148  1.00  0.00     0.178 HD
BRANCH  12  14
HETATM   14  C12 UNL     1      56.246   3.416  17.275  1.00  0.00     0.694 A
HETATM   15  N10 UNL     1      56.506   4.120  16.163  1.00  0.00    -0.187 N
HETATM   16  C13 UNL     1      57.317   3.639  15.207  1.00  0.00     0.215 A
ATOM     17  H10 UNL     1      56.080   5.039  16.042  1.00  0.00     0.185 HD
HETATM   18  N11 UNL     1      57.888   2.429  15.348  1.00  0.00    -0.187 N
HETATM   19  C14 UNL     1      57.645   1.701  16.450  1.00  0.00     0.698 A
ATOM     20  H11 UNL     1      58.503   2.065  14.621  1.00  0.00     0.185 HD
HETATM   21  N13 UNL     1      56.830   2.210  17.389  1.00  0.00    -0.022 N
ATOM     22  H13 UNL     1      56.646   1.656  18.226  1.00  0.00     0.203 HD
BRANCH  19  23
HETATM   23  N12 UNL     1      58.196   0.539  16.582  1.00  0.00    -0.191 N
ATOM     24  H12 UNL     1      59.106   0.391  16.146  1.00  0.00     0.184 HD
BRANCH  23  25
HETATM   25  C15 UNL     1      57.621  -0.538  17.291  1.00  0.00     0.049 A
HETATM   26  C16 UNL     1      58.039  -0.797  18.582  1.00  0.00     0.030 A
HETATM   27  C17 UNL     1      57.462  -1.854  19.252  1.00  0.00     0.002 A
HETATM   28  C18 UNL     1      56.497  -2.656  18.696  1.00  0.00     0.000 A
HETATM   29  C19 UNL     1      56.077  -2.408  17.417  1.00  0.00     0.002 A
HETATM   30  C20 UNL     1      56.654  -1.340  16.728  1.00  0.00     0.030 A
ENDBRANCH  23  25
ENDBRANCH  19  23
ENDBRANCH  12  14
ENDBRANCH   5  12
ENDBRANCH   3   5
BRANCH   1  31
HETATM   31  C7  UNL     1      51.764   2.102  17.345  1.00  0.00     0.143 C
BRANCH  31  32
HETATM   32  C6  UNL     1      51.715   2.172  15.845  1.00  0.00     0.169 C
BRANCH  32  33
HETATM   33  N6  UNL     1      52.706   1.359  15.200  1.00  0.00    -0.165 N
HETATM   34  C5  UNL     1      53.693   1.991  14.516  1.00  0.00     0.682 A
HETATM   35  N4  UNL     1      54.611   1.252  13.915  1.00  0.00    -0.155 N
HETATM   36  C4  UNL     1      54.643  -0.096  13.931  1.00  0.00     0.277 A
ATOM     37  H4  UNL     1      55.348   1.738  13.403  1.00  0.00     0.187 HD
HETATM   38  C3  UNL     1      53.638  -0.749  14.625  1.00  0.00     0.122 A
HETATM   39  O1  UNL     1      55.529  -0.743  13.349  1.00  0.00    -0.266 OA
HETATM   40  C2  UNL     1      53.630  -2.123  14.658  1.00  0.00     0.134 A
HETATM   41  C21 UNL     1      52.648   0.019  15.273  1.00  0.00     0.158 A
HETATM   42  N2  UNL     1      52.603  -2.711  15.357  1.00  0.00    -0.176 N
HETATM   43  C1  UNL     1      51.673  -1.976  15.964  1.00  0.00     0.679 A
ATOM     44  H2  UNL     1      52.552  -3.729  15.412  1.00  0.00     0.186 HD
HETATM   45  N14 UNL     1      51.674  -0.633  15.937  1.00  0.00    -0.175 N
ATOM     46  H14 UNL     1      50.942  -0.110  16.418  1.00  0.00     0.186 HD
BRANCH  34  47
HETATM   47  N5  UNL     1      53.745   3.278  14.447  1.00  0.00    -0.234 N
ATOM     48  H52 UNL     1      54.340   3.750  13.766  1.00  0.00     0.174 HD
ATOM     49  H51 UNL     1      53.185   3.851  15.078  1.00  0.00     0.174 HD
ENDBRANCH  34  47
BRANCH  40  50
HETATM   50  N3  UNL     1      54.443  -2.908  14.130  1.00  0.00    -0.384 N
ATOM     51  H32 UNL     1      55.135  -2.703  13.411  1.00  0.00     0.157 HD
ATOM     52  H31 UNL     1      54.406  -3.872  14.463  1.00  0.00     0.157 HD
ENDBRANCH  40  50
BRANCH  43  53
HETATM   53  N1  UNL     1      50.691  -2.523  16.631  1.00  0.00    -0.234 N
ATOM     54  H12 UNL     1      50.968  -3.205  17.338  1.00  0.00     0.174 HD
ATOM     55  H11 UNL     1      49.717  -2.279  16.451  1.00  0.00     0.174 HD
ENDBRANCH  43  53
ENDBRANCH  32  33
ENDBRANCH  31  32
ENDBRANCH   1  31
TORSDOF 14
ENDMDL