MODEL 2
REMARK VINA RESULT: -6.967790693      2.961      9.775
REMARK  14 active torsions:
REMARK  status: ('A' for Active; 'I' for Inactive)
REMARK    1  A    between atoms: O1_2  and  C2_3
REMARK    2  A    between atoms: C4_5  and  N1_6
REMARK    3  A    between atoms: N1_6  and  C5_8
REMARK    4  A    between atoms: C6_11  and  N3_12
REMARK    5  A    between atoms: N3_12  and  N4_14
REMARK       I    between atoms: N4_14  and  C7_15
REMARK    6  A    between atoms: C7_15  and  C8_17
REMARK    7  A    between atoms: C8_17  and  C9_18
REMARK    8  A    between atoms: C9_18  and  N5_19
REMARK    9  A    between atoms: C10_25  and  N7_26
REMARK       I    between atoms: N7_26  and  C11_28
REMARK   10  A    between atoms: C14_37  and  C15_38
REMARK   11  A    between atoms: C15_38  and  N11_39
REMARK   12  A    between atoms: N11_39  and  N12_40
REMARK       I    between atoms: N12_40  and  C16_42
REMARK   13  A    between atoms: C16_42  and  C17_44
REMARK   14  A    between atoms: C18_50  and  N15_51
ROOT
HETATM    1  C5  UNL     1      57.586   0.225  17.236  1.00  0.00     0.712 A
HETATM    2  N2  UNL     1      57.428   1.178  18.159  1.00  0.00    -0.019 N
ATOM      3  H2  UNL     1      57.616   0.970  19.140  1.00  0.00     0.203 HD
HETATM    4  C6  UNL     1      57.017   2.422  17.799  1.00  0.00     0.736 A
HETATM    5  N6  UNL     1      56.780   2.663  16.514  1.00  0.00    -0.019 N
ATOM      6  H6  UNL     1      56.470   3.598  16.248  1.00  0.00     0.203 HD
HETATM    7  C10 UNL     1      56.929   1.718  15.518  1.00  0.00     0.713 A
HETATM    8  N10 UNL     1      57.331   0.517  15.905  1.00  0.00    -0.021 N
ATOM      9  H10 UNL     1      57.456  -0.215  15.205  1.00  0.00     0.203 HD
ENDROOT
BRANCH   1  10
HETATM   10  N1  UNL     1      57.913  -0.964  17.460  1.00  0.00    -0.191 N
ATOM     11  H1  UNL     1      58.908  -1.134  17.319  1.00  0.00     0.184 HD
BRANCH  10  12
HETATM   12  C4  UNL     1      57.224  -2.101  17.856  1.00  0.00     0.051 A
HETATM   13  C3  UNL     1      57.137  -3.208  16.987  1.00  0.00     0.067 A
HETATM   14  C2  UNL     1      56.473  -4.359  17.258  1.00  0.00     0.083 A
HETATM   15  C14 UNL     1      55.821  -4.481  18.482  1.00  0.00     0.028 A
HETATM   16  C13 UNL     1      55.896  -3.404  19.351  1.00  0.00     0.019 A
HETATM   17  C12 UNL     1      56.573  -2.243  19.058  1.00  0.00     0.031 A
BRANCH  14  18
HETATM   18  O1  UNL     1      56.416  -5.424  16.362  1.00  0.00    -0.355 OA
HETATM   19  C1  UNL     1      57.498  -5.937  15.663  1.00  0.00     0.210 C
ENDBRANCH  14  18
BRANCH  15  20
HETATM   20  C15 UNL     1      55.044  -5.679  18.831  1.00  0.00     0.223 C
BRANCH  20  21
HETATM   21  N11 UNL     1      54.435  -5.990  19.798  1.00  0.00    -0.335 NA
BRANCH  21  22
HETATM   22  N12 UNL     1      54.119  -6.427  21.003  1.00  0.00    -0.198 N
HETATM   23  C16 UNL     1      55.072  -6.401  22.056  1.00  0.00     0.302 C
HETATM   24  O3  UNL     1      56.234  -5.928  21.768  1.00  0.00    -0.263 OA
ATOM     25  H12 UNL     1      53.181  -6.786  21.180  1.00  0.00     0.205 HD
BRANCH  23  26
HETATM   26  C17 UNL     1      54.876  -6.844  23.412  1.00  0.00     0.171 A
HETATM   27  N13 UNL     1      53.665  -7.324  23.895  1.00  0.00    -0.232 N
HETATM   28  O4  UNL     1      53.796  -7.630  25.128  1.00  0.00    -0.155 OA
ATOM     29  H13 UNL     1      52.807  -7.417  23.351  1.00  0.00     0.197 HD
HETATM   30  N14 UNL     1      54.972  -7.413  25.561  1.00  0.00    -0.224 N
HETATM   31  C18 UNL     1      55.717  -6.906  24.503  1.00  0.00     0.155 A
ATOM     32  H14 UNL     1      55.307  -7.580  26.509  1.00  0.00     0.198 HD
BRANCH  31  33
HETATM   33  N15 UNL     1      56.909  -6.590  24.631  1.00  0.00    -0.382 N
ATOM     34 2H15 UNL     1      57.659  -7.280  24.580  1.00  0.00     0.157 HD
ATOM     35 1H15 UNL     1      57.346  -5.686  24.805  1.00  0.00     0.157 HD
ENDBRANCH  31  33
ENDBRANCH  23  26
ENDBRANCH  21  22
ENDBRANCH  20  21
ENDBRANCH  15  20
ENDBRANCH  10  12
ENDBRANCH   1  10
BRANCH   4  36
HETATM   36  N3  UNL     1      56.855   3.285  18.733  1.00  0.00    -0.061 N
ATOM     37  H3  UNL     1      57.714   3.507  19.235  1.00  0.00     0.221 HD
BRANCH  36  38
HETATM   38  N4  UNL     1      55.821   3.931  19.165  1.00  0.00    -0.272 NA
HETATM   39  C7  UNL     1      54.739   4.607  19.619  1.00  0.00     0.314 C
HETATM   40  O2  UNL     1      54.208   4.573  20.760  1.00  0.00    -0.255 OA
BRANCH  39  41
HETATM   41  C8  UNL     1      54.048   5.548  18.633  1.00  0.00     0.148 C
BRANCH  41  42
HETATM   42  C9  UNL     1      53.365   4.686  17.606  1.00  0.00     0.240 C
BRANCH  42  43
HETATM   43  N5  UNL     1      52.968   3.392  18.086  1.00  0.00    -0.079 N
ATOM     44  H53 UNL     1      52.613   3.460  19.040  1.00  0.00     0.274 HD
ATOM     45  H52 UNL     1      52.123   3.079  17.607  1.00  0.00     0.274 HD
ATOM     46  H51 UNL     1      53.695   2.679  18.027  1.00  0.00     0.274 HD
ENDBRANCH  42  43
ENDBRANCH  41  42
ENDBRANCH  39  41
ENDBRANCH  36  38
ENDBRANCH   4  36
BRANCH   7  47
HETATM   47  N7  UNL     1      56.680   2.043  14.345  1.00  0.00    -0.163 N
HETATM   48  C11 UNL     1      55.570   2.319  13.618  1.00  0.00     0.200 C
HETATM   49  N8  UNL     1      55.615   2.293  12.294  1.00  0.00    -0.373 N
HETATM   50  N9  UNL     1      54.311   2.643  14.190  1.00  0.00    -0.063 NA
ATOM     51  H82 UNL     1      56.519   2.060  11.883  1.00  0.00     0.158 HD
ATOM     52  H81 UNL     1      54.780   2.500  11.747  1.00  0.00     0.158 HD
ATOM     53  H7  UNL     1      57.529   2.124  13.786  1.00  0.00     0.187 HD
ENDBRANCH   7  47
TORSDOF 14
ENDMDL