MODEL 3
REMARK VINA RESULT: -6.120045705      2.917      3.919
REMARK  15 active torsions:
REMARK  status: ('A' for Active; 'I' for Inactive)
REMARK    1  A    between atoms: C2_2  and  C4_4
REMARK    2  A    between atoms: C4_4  and  C5_5
REMARK    3  A    between atoms: C5_5  and  N1_6
REMARK    4  A    between atoms: C5_5  and  C19_43
REMARK    5  A    between atoms: N1_6  and  C6_8
REMARK    6  A    between atoms: C7_11  and  N3_12
REMARK    7  A    between atoms: N3_12  and  C8_14
REMARK    8  A    between atoms: C10_18  and  C11_19
REMARK    9  A    between atoms: C11_19  and  N5_20
REMARK   10  A    between atoms: C11_19  and  O1_23
REMARK   11  A    between atoms: C12_25  and  N6_26
REMARK   12  A    between atoms: C18_37  and  N9_38
REMARK   13  A    between atoms: C19_43  and  O2_44
REMARK   14  A    between atoms: C19_43  and  N11_46
REMARK       I    between atoms: N11_46  and  C20_47
REMARK       I    between atoms: C20_47  and  N12_48
REMARK       I    between atoms: C20_47  and  N13_52
REMARK   15  A    between atoms: N13_52  and  N14_53
ROOT
HETATM    1  C6  UNL     1      56.243   2.140  15.566  1.00  0.00     0.681 A
HETATM    2  N2  UNL     1      55.807   0.879  15.712  1.00  0.00    -0.177 N
ATOM      3  H2  UNL     1      55.782   0.528  16.670  1.00  0.00     0.186 HD
HETATM    4  C7  UNL     1      55.398   0.017  14.763  1.00  0.00     0.126 A
HETATM    5  C17 UNL     1      55.440   0.538  13.487  1.00  0.00     0.097 A
HETATM    6  C18 UNL     1      55.898   1.872  13.273  1.00  0.00     0.118 A
HETATM    7  N10 UNL     1      56.289   2.631  14.279  1.00  0.00    -0.177 N
ATOM      8  H10 UNL     1      56.624   3.578  14.104  1.00  0.00     0.185 HD
ENDROOT
BRANCH   4   9
HETATM    9  N3  UNL     1      54.951  -1.256  15.064  1.00  0.00    -0.327 N
ATOM     10  H3  UNL     1      54.631  -1.717  14.213  1.00  0.00     0.169 HD
BRANCH   9  11
HETATM   11  C8  UNL     1      54.812  -2.020  16.028  1.00  0.00     0.123 A
HETATM   12  C9  UNL     1      54.417  -1.717  17.291  1.00  0.00     0.137 A
HETATM   13  N4  UNL     1      54.410  -2.641  18.283  1.00  0.00    -0.356 N
HETATM   14  C10 UNL     1      54.795  -3.892  18.079  1.00  0.00     0.127 A
ATOM     15  H4  UNL     1      54.099  -2.365  19.214  1.00  0.00     0.165 HD
HETATM   16  C12 UNL     1      55.203  -4.251  16.781  1.00  0.00     0.136 A
HETATM   17  N8  UNL     1      55.216  -3.372  15.771  1.00  0.00    -0.326 N
ATOM     18  H8  UNL     1      55.508  -3.659  14.836  1.00  0.00     0.169 HD
BRANCH  14  19
HETATM   19  C11 UNL     1      54.902  -4.800  19.127  1.00  0.00     0.165 C
BRANCH  19  20
HETATM   20  N5  UNL     1      54.183  -5.808  19.712  1.00  0.00    -0.378 N
ATOM     21  H52 UNL     1      53.279  -5.799  19.241  1.00  0.00     0.158 HD
ATOM     22  H51 UNL     1      54.290  -6.522  20.433  1.00  0.00     0.158 HD
ENDBRANCH  19  20
BRANCH  19  23
HETATM   23  O1  UNL     1      56.083  -4.713  19.871  1.00  0.00    -0.345 OA
ATOM     24  H1  UNL     1      56.738  -5.369  19.666  1.00  0.00     0.219 HD
ENDBRANCH  19  23
ENDBRANCH  14  19
BRANCH  16  25
HETATM   25  N6  UNL     1      55.643  -5.597  16.533  1.00  0.00    -0.362 N
HETATM   26  C13 UNL     1      54.710  -6.655  16.194  1.00  0.00     0.152 C
HETATM   27  C14 UNL     1      55.503  -7.864  15.709  1.00  0.00     0.252 C
HETATM   28  N7  UNL     1      56.428  -7.455  14.697  1.00  0.00    -0.072 N
HETATM   29  C15 UNL     1      57.464  -6.578  15.247  1.00  0.00     0.252 C
ATOM     30  H72 UNL     1      56.833  -8.256  14.214  1.00  0.00     0.277 HD
ATOM     31  H71 UNL     1      55.951  -7.021  13.907  1.00  0.00     0.277 HD
HETATM   32  C16 UNL     1      57.042  -5.990  16.586  1.00  0.00     0.152 C
ENDBRANCH  16  25
ENDBRANCH   9  11
ENDBRANCH   4   9
BRANCH   1  33
HETATM   33  N1  UNL     1      56.434   2.751  16.617  1.00  0.00    -0.213 N
ATOM     34  H1  UNL     1      57.252   3.342  16.469  1.00  0.00     0.178 HD
BRANCH  33  35
HETATM   35  C5  UNL     1      55.998   2.980  17.943  1.00  0.00     0.189 C
BRANCH  35  36
HETATM   36  C4  UNL     1      55.437   4.323  18.056  1.00  0.00     0.039 C
BRANCH  36  37
HETATM   37  C2  UNL     1      54.463   4.835  19.007  1.00  0.00    -0.020 C
HETATM   38  C1  UNL     1      53.290   4.009  19.340  1.00  0.00     0.009 C
HETATM   39  C3  UNL     1      54.029   6.261  18.772  1.00  0.00     0.009 C
ENDBRANCH  36  37
ENDBRANCH  35  36
BRANCH  35  40
HETATM   40  C19 UNL     1      57.220   2.670  18.796  1.00  0.00     0.211 C
BRANCH  40  41
HETATM   41  O2  UNL     1      57.784   3.764  19.236  1.00  0.00    -0.338 OA
ATOM     42  H2  UNL     1      57.754   3.811  20.185  1.00  0.00     0.220 HD
ENDBRANCH  40  41
BRANCH  40  43
HETATM   43  N11 UNL     1      57.683   1.411  19.059  1.00  0.00    -0.375 NA
HETATM   44  C20 UNL     1      58.154   0.154  19.324  1.00  0.00     0.474 C
HETATM   45  N12 UNL     1      58.228  -0.145  20.788  1.00  0.00    -0.031 N
HETATM   46  N13 UNL     1      57.289  -0.872  18.768  1.00  0.00    -0.081 NA
ATOM     47 3H12 UNL     1      58.779   0.561  21.277  1.00  0.00     0.279 HD
ATOM     48 2H12 UNL     1      57.325   0.008  21.237  1.00  0.00     0.279 HD
ATOM     49 1H12 UNL     1      58.579  -1.082  20.985  1.00  0.00     0.279 HD
BRANCH  46  50
HETATM   50  N14 UNL     1      57.716  -2.155  19.180  1.00  0.00    -0.344 N
ATOM     51 2H14 UNL     1      58.629  -2.346  19.594  1.00  0.00     0.172 HD
ATOM     52 1H14 UNL     1      56.987  -2.847  19.004  1.00  0.00     0.172 HD
ENDBRANCH  46  50
ENDBRANCH  40  43
ENDBRANCH  35  40
ENDBRANCH  33  35
ENDBRANCH   1  33
BRANCH   6  53
HETATM   53  N9  UNL     1      55.911   2.255  12.035  1.00  0.00    -0.385 N
ATOM     54  H92 UNL     1      56.598   1.938  11.351  1.00  0.00     0.157 HD
ATOM     55  H91 UNL     1      55.166   2.901  11.775  1.00  0.00     0.157 HD
ENDBRANCH   6  53
TORSDOF 15
ENDMDL