MODEL 5
REMARK VINA RESULT: -6.574889027      7.055      9.210
REMARK  11 active torsions:
REMARK  status: ('A' for Active; 'I' for Inactive)
REMARK    1  A    between atoms: N1_1  and  C1_4
REMARK    2  A    between atoms: C2_7  and  C3_8
REMARK    3  A    between atoms: C3_8  and  C4_9
REMARK    4  A    between atoms: C4_9  and  C5_10
REMARK    5  A    between atoms: C5_10  and  O1_11
REMARK    6  A    between atoms: C5_10  and  N3_13
REMARK    7  A    between atoms: N3_13  and  C6_15
REMARK    8  A    between atoms: C8_21  and  N6_22
REMARK       I    between atoms: N7_25  and  C11_26
REMARK    9  A    between atoms: C11_26  and  C12_28
REMARK   10  A    between atoms: C12_28  and  N8_29
REMARK       I    between atoms: N8_29  and  C13_31
REMARK       I    between atoms: C13_31  and  N9_33
REMARK   11  A    between atoms: N9_33  and  N10_35
ROOT
HETATM    1  C6  UNL     1      55.546   0.570  15.811  1.00  0.00     0.682 A
HETATM    2  N4  UNL     1      55.320   1.354  14.722  1.00  0.00    -0.174 N
ATOM      3  H4  UNL     1      56.033   1.691  14.076  1.00  0.00     0.186 HD
HETATM    4  C7  UNL     1      54.016   1.610  14.640  1.00  0.00     0.167 A
HETATM    5  N5  UNL     1      53.237   2.304  13.804  1.00  0.00    -0.173 N
ATOM      6  H5  UNL     1      53.668   2.785  13.015  1.00  0.00     0.186 HD
HETATM    7  C8  UNL     1      51.901   2.393  13.969  1.00  0.00     0.684 A
HETATM    8  N11 UNL     1      51.333   1.745  15.034  1.00  0.00    -0.175 N
ATOM      9  H11 UNL     1      50.325   1.797  15.181  1.00  0.00     0.186 HD
HETATM   10  C15 UNL     1      52.084   1.054  15.871  1.00  0.00     0.146 A
HETATM   11  N12 UNL     1      51.537   0.442  16.871  1.00  0.00    -0.383 N
ATOM     12 1H12 UNL     1      52.117  -0.092  17.518  1.00  0.00     0.157 HD
ATOM     13 2H12 UNL     1      50.527   0.512  16.993  1.00  0.00     0.157 HD
HETATM   14  C16 UNL     1      53.443   0.961  15.707  1.00  0.00     0.138 A
HETATM   15  N13 UNL     1      54.394   0.324  16.421  1.00  0.00    -0.184 N
ATOM     16  H13 UNL     1      54.255  -0.236  17.261  1.00  0.00     0.184 HD
ENDROOT
BRANCH   7  17
HETATM   17  N6  UNL     1      51.031   3.085  13.115  1.00  0.00    -0.200 N
HETATM   18  C9  UNL     1      49.735   3.619  13.467  1.00  0.00     0.163 C
HETATM   19  C10 UNL     1      49.807   4.969  12.744  1.00  0.00     0.148 C
HETATM   20  N7  UNL     1      50.695   4.751  11.630  1.00  0.00    -0.332 N
HETATM   21  C11 UNL     1      50.992   5.691  10.618  1.00  0.00     0.238 C
HETATM   22  C14 UNL     1      51.231   3.413  11.738  1.00  0.00     0.270 C
HETATM   23  O2  UNL     1      51.758   5.384   9.682  1.00  0.00    -0.271 OA
BRANCH  21  24
HETATM   24  C12 UNL     1      50.389   7.031  10.682  1.00  0.00     0.227 C
BRANCH  24  25
HETATM   25  N8  UNL     1      51.309   8.058  10.324  1.00  0.00    -0.333 N
HETATM   26  C13 UNL     1      52.099   8.708  11.299  1.00  0.00     0.334 C
HETATM   27  O3  UNL     1      51.987   8.371  12.519  1.00  0.00    -0.246 OA
HETATM   28  N9  UNL     1      53.021   9.731  10.980  1.00  0.00    -0.258 N
ATOM     29  H9  UNL     1      53.121  10.028  10.009  1.00  0.00     0.191 HD
ATOM     30  H8  UNL     1      51.399   8.330   9.345  1.00  0.00     0.164 HD
BRANCH  28  31
HETATM   31  N10 UNL     1      53.794  10.343  11.956  1.00  0.00    -0.341 N
ATOM     32 2H10 UNL     1      54.807  10.357  11.829  1.00  0.00     0.177 HD
ATOM     33 1H10 UNL     1      53.374  10.769  12.781  1.00  0.00     0.177 HD
ENDBRANCH  28  31
ENDBRANCH  24  25
ENDBRANCH  21  24
ENDBRANCH   7  17
BRANCH   1  34
HETATM   34  N3  UNL     1      56.728   0.169  16.132  1.00  0.00    -0.200 N
ATOM     35  H3  UNL     1      56.967  -0.804  15.937  1.00  0.00     0.180 HD
BRANCH  34  36
HETATM   36  C5  UNL     1      57.723   0.982  16.739  1.00  0.00     0.235 C
BRANCH  36  37
HETATM   37  C4  UNL     1      57.133   1.802  17.832  1.00  0.00     0.060 C
BRANCH  37  38
HETATM   38  C3  UNL     1      56.970   3.248  17.595  1.00  0.00     0.062 C
BRANCH  38  39
HETATM   39  C2  UNL     1      55.658   3.838  18.026  1.00  0.00     0.018 A
HETATM   40  N2  UNL     1      55.331   3.981  19.297  1.00  0.00    -0.340 N
HETATM   41  C1  UNL     1      54.152   4.519  19.591  1.00  0.00     0.142 A
ATOM     42  H2  UNL     1      55.968   3.686  20.036  1.00  0.00     0.167 HD
HETATM   43  S1  UNL     1      53.471   4.840  18.068  1.00  0.00    -0.064 SA
HETATM   44  C17 UNL     1      54.749   4.259  17.096  1.00  0.00     0.078 A
BRANCH  41  45
HETATM   45  N1  UNL     1      53.668   4.738  20.799  1.00  0.00    -0.380 N
ATOM     46  H12 UNL     1      54.155   4.926  21.677  1.00  0.00     0.158 HD
ATOM     47  H11 UNL     1      52.683   4.752  21.066  1.00  0.00     0.158 HD
ENDBRANCH  41  45
ENDBRANCH  38  39
ENDBRANCH  37  38
ENDBRANCH  36  37
BRANCH  36  48
HETATM   48  O1  UNL     1      58.904   0.344  17.042  1.00  0.00    -0.376 OA
ATOM     49  H1  UNL     1      59.303   0.587  17.868  1.00  0.00     0.212 HD
ENDBRANCH  36  48
ENDBRANCH  34  36
ENDBRANCH   1  34
TORSDOF 11
ENDMDL