MODEL 2
REMARK VINA RESULT: -7.473263760      1.963      5.290
REMARK  9 active torsions:
REMARK  status: ('A' for Active; 'I' for Inactive)
REMARK    1  A    between atoms: C2_2  and  O1_3
REMARK    2  A    between atoms: C2_2  and  C4_7
REMARK    3  A    between atoms: O1_3  and  C3_4
REMARK    4  A    between atoms: C4_7  and  C5_8
REMARK    5  A    between atoms: C4_7  and  N3_11
REMARK    6  A    between atoms: N4_14  and  C8_15
REMARK    7  A    between atoms: C9_18  and  N6_19
REMARK    8  A    between atoms: C16_38  and  C17_39
REMARK    9  A    between atoms: C17_39  and  N11_40
REMARK       I    between atoms: N11_40  and  C18_42
ROOT
HETATM    1  N3  UNL     1      53.982   3.492  16.655  1.00  0.00    -0.385 N
HETATM    2  C6  UNL     1      53.426   2.500  17.526  1.00  0.00     0.139 C
HETATM    3  C7  UNL     1      53.511   1.067  17.074  1.00  0.00     0.151 C
HETATM    4  N4  UNL     1      54.649   0.745  16.265  1.00  0.00    -0.323 N
HETATM    5  C15 UNL     1      55.069   1.752  15.362  1.00  0.00     0.105 C
HETATM    6  S1  UNL     1      56.300   1.496  14.341  1.00  0.00    -0.063 SA
HETATM    7  C16 UNL     1      54.325   3.074  15.370  1.00  0.00     0.159 C
ENDROOT
BRANCH   4   8
HETATM    8  C8  UNL     1      55.259  -0.519  16.388  1.00  0.00     0.140 A
HETATM    9  N5  UNL     1      56.237  -0.731  17.334  1.00  0.00    -0.176 N
HETATM   10  C9  UNL     1      56.828  -1.926  17.469  1.00  0.00     0.679 A
ATOM     11  H5  UNL     1      56.517   0.037  17.943  1.00  0.00     0.186 HD
HETATM   12  N7  UNL     1      56.486  -2.961  16.687  1.00  0.00    -0.176 N
HETATM   13  C10 UNL     1      55.536  -2.794  15.753  1.00  0.00     0.131 A
ATOM     14  H7  UNL     1      56.944  -3.865  16.799  1.00  0.00     0.186 HD
HETATM   15  N8  UNL     1      55.198  -3.783  14.994  1.00  0.00    -0.384 N
HETATM   16  C11 UNL     1      54.901  -1.555  15.587  1.00  0.00     0.081 A
ATOM     17  H82 UNL     1      55.660  -4.685  15.115  1.00  0.00     0.157 HD
ATOM     18  H81 UNL     1      54.476  -3.657  14.284  1.00  0.00     0.157 HD
HETATM   19  C12 UNL     1      53.902  -1.427  14.571  1.00  0.00     0.066 A
HETATM   20  C13 UNL     1      52.549  -1.635  14.780  1.00  0.00     0.119 A
HETATM   21  N10 UNL     1      53.994  -1.112  13.268  1.00  0.00    -0.350 N
HETATM   22  N9  UNL     1      51.857  -1.456  13.666  1.00  0.00    -0.360 N
HETATM   23  C14 UNL     1      52.770  -1.128  12.722  1.00  0.00     0.180 A
ATOM     24  H9  UNL     1      50.848  -1.547  13.544  1.00  0.00     0.166 HD
ATOM     25  H10 UNL     1      54.859  -0.894  12.772  1.00  0.00     0.166 HD
BRANCH  10  26
HETATM   26  N6  UNL     1      57.737  -2.100  18.359  1.00  0.00    -0.234 N
ATOM     27  H62 UNL     1      57.480  -2.547  19.240  1.00  0.00     0.174 HD
ATOM     28  H61 UNL     1      58.694  -1.795  18.182  1.00  0.00     0.174 HD
ENDBRANCH  10  26
ENDBRANCH   4   8
BRANCH   7  29
HETATM   29  C17 UNL     1      53.141   2.831  14.445  1.00  0.00     0.154 C
BRANCH  29  30
HETATM   30  N11 UNL     1      52.183   3.872  14.392  1.00  0.00    -0.362 N
HETATM   31  C18 UNL     1      51.749   4.458  13.182  1.00  0.00     0.181 C
HETATM   32  N12 UNL     1      51.279   5.675  13.187  1.00  0.00    -0.374 N
HETATM   33  N13 UNL     1      51.809   3.766  11.940  1.00  0.00    -0.064 NA
ATOM     34 2H12 UNL     1      51.235   6.172  14.077  1.00  0.00     0.158 HD
ATOM     35 1H12 UNL     1      50.966   6.098  12.313  1.00  0.00     0.158 HD
ATOM     36  H11 UNL     1      51.787   4.214  15.267  1.00  0.00     0.162 HD
ENDBRANCH  29  30
ENDBRANCH   7  29
BRANCH   1  37
HETATM   37  C4  UNL     1      54.853   4.357  17.369  1.00  0.00     0.199 C
BRANCH  37  38
HETATM   38  C2  UNL     1      55.446   3.777  18.639  1.00  0.00     0.160 C
HETATM   39  C1  UNL     1      54.853   4.477  19.865  1.00  0.00     0.043 C
BRANCH  38  40
HETATM   40  O1  UNL     1      56.803   3.610  18.733  1.00  0.00    -0.299 OA
BRANCH  40  41
HETATM   41  C3  UNL     1      57.430   2.362  18.749  1.00  0.00     0.373 C
HETATM   42  N1  UNL     1      57.771   1.674  19.933  1.00  0.00    -0.032 NA
HETATM   43  O2  UNL     1      57.680   1.867  17.642  1.00  0.00    -0.242 OA
ENDBRANCH  40  41
ENDBRANCH  38  40
ENDBRANCH  37  38
BRANCH  37  44
HETATM   44  C5  UNL     1      54.388   5.737  17.634  1.00  0.00     0.256 C
HETATM   45  N2  UNL     1      52.997   5.974  17.969  1.00  0.00    -0.060 NA
HETATM   46  O3  UNL     1      55.065   6.785  17.609  1.00  0.00    -0.274 OA
ENDBRANCH  37  44
ENDBRANCH   1  37
TORSDOF 9
ENDMDL