MODEL 1
REMARK VINA RESULT: -6.792833934      0.000      0.000
REMARK  9 active torsions:
REMARK  status: ('A' for Active; 'I' for Inactive)
REMARK    1  A    between atoms: C3_3  and  C4_4
REMARK       I    between atoms: C4_4  and  N1_6
REMARK    2  A    between atoms: N1_6  and  C5_8
REMARK    3  A    between atoms: C6_9  and  C7_10
REMARK    4  A    between atoms: C7_10  and  N2_11
REMARK       I    between atoms: N2_11  and  C8_13
REMARK    5  A    between atoms: N4_15  and  C9_17
REMARK    6  A    between atoms: C12_23  and  N6_24
REMARK    7  A    between atoms: N10_33  and  C13_34
REMARK       I    between atoms: N12_38  and  C15_40
REMARK    8  A    between atoms: C15_40  and  C16_42
REMARK    9  A    between atoms: C16_42  and  N13_44
ROOT
HETATM    1  C1  UNL     1      54.682  -0.772  14.368  1.00  0.00     0.073 C
HETATM    2  C2  UNL     1      55.632   0.315  14.694  1.00  0.00     0.067 A
HETATM    3  C3  UNL     1      55.957   1.381  13.915  1.00  0.00     0.142 A
HETATM    4  N8  UNL     1      56.904   2.058  14.654  1.00  0.00    -0.279 N
ATOM      5  H8  UNL     1      57.373   2.917  14.366  1.00  0.00     0.189 HD
HETATM    6  N9  UNL     1      57.107   1.419  15.788  1.00  0.00    -0.234 N
ATOM      7  H9  UNL     1      57.761   1.715  16.514  1.00  0.00     0.209 HD
HETATM    8  N10 UNL     1      56.346   0.344  15.852  1.00  0.00    -0.224 N
ENDROOT
BRANCH   3   9
HETATM    9  C4  UNL     1      55.504   1.883  12.646  1.00  0.00     0.275 C
HETATM   10  O1  UNL     1      54.324   2.329  12.614  1.00  0.00    -0.266 OA
HETATM   11  N1  UNL     1      56.316   1.879  11.507  1.00  0.00    -0.332 N
ATOM     12  H1  UNL     1      57.253   1.488  11.604  1.00  0.00     0.168 HD
BRANCH  11  13
HETATM   13  C5  UNL     1      55.948   2.371  10.235  1.00  0.00     0.089 C
HETATM   14  C6  UNL     1      56.277   1.890   9.075  1.00  0.00     0.010 C
BRANCH  14  15
HETATM   15  C7  UNL     1      55.768   2.583   7.826  1.00  0.00     0.151 C
BRANCH  15  16
HETATM   16  N2  UNL     1      56.862   3.366   7.318  1.00  0.00    -0.361 N
HETATM   17  C8  UNL     1      57.093   4.686   7.766  1.00  0.00     0.190 C
HETATM   18  N3  UNL     1      56.259   5.353   8.704  1.00  0.00    -0.063 NA
HETATM   19  N4  UNL     1      58.117   5.287   7.283  1.00  0.00    -0.316 N
ATOM     20  H4  UNL     1      58.669   4.748   6.617  1.00  0.00     0.170 HD
ATOM     21  H2  UNL     1      57.486   2.959   6.620  1.00  0.00     0.162 HD
BRANCH  19  22
HETATM   22  C9  UNL     1      58.579   6.573   7.540  1.00  0.00     0.128 A
HETATM   23  C10 UNL     1      59.654   6.803   8.362  1.00  0.00     0.123 A
HETATM   24  C11 UNL     1      60.082   8.114   8.626  1.00  0.00     0.263 A
HETATM   25  O2  UNL     1      61.054   8.383   9.367  1.00  0.00    -0.268 OA
HETATM   26  N5  UNL     1      59.399   9.118   8.042  1.00  0.00    -0.156 N
HETATM   27  C12 UNL     1      58.362   8.901   7.247  1.00  0.00     0.680 A
ATOM     28  H5  UNL     1      59.692  10.079   8.219  1.00  0.00     0.187 HD
HETATM   29  N7  UNL     1      57.962   7.635   7.003  1.00  0.00    -0.177 N
ATOM     30  H7  UNL     1      57.162   7.481   6.389  1.00  0.00     0.185 HD
BRANCH  27  31
HETATM   31  N6  UNL     1      57.710   9.911   6.727  1.00  0.00    -0.234 N
ATOM     32  H62 UNL     1      58.212  10.745   6.423  1.00  0.00     0.174 HD
ATOM     33  H61 UNL     1      56.699   9.857   6.601  1.00  0.00     0.174 HD
ENDBRANCH  27  31
ENDBRANCH  19  22
ENDBRANCH  15  16
ENDBRANCH  14  15
ENDBRANCH  11  13
ENDBRANCH   3   9
BRANCH   8  34
HETATM   34  C13 UNL     1      56.243  -0.628  16.881  1.00  0.00     0.185 A
HETATM   35  N11 UNL     1      55.169  -1.336  17.272  1.00  0.00    -0.171 N
HETATM   36  C14 UNL     1      55.488  -2.159  18.286  1.00  0.00     0.688 A
ATOM     37  H11 UNL     1      54.241  -1.260  16.856  1.00  0.00     0.186 HD
HETATM   38  N12 UNL     1      54.712  -2.979  18.904  1.00  0.00    -0.158 N
HETATM   39  N14 UNL     1      56.789  -2.000  18.579  1.00  0.00    -0.175 N
HETATM   40  C15 UNL     1      55.098  -3.827  19.969  1.00  0.00     0.266 C
ATOM     41  H12 UNL     1      53.739  -3.022  18.600  1.00  0.00     0.187 HD
HETATM   42  O3  UNL     1      54.851  -3.428  21.134  1.00  0.00    -0.270 OA
HETATM   43  C18 UNL     1      57.253  -1.070  17.726  1.00  0.00     0.178 A
ATOM     44  H14 UNL     1      57.318  -2.487  19.302  1.00  0.00     0.185 HD
HETATM   45  N15 UNL     1      58.604  -0.581  17.675  1.00  0.00    -0.078 NA
BRANCH  40  46
HETATM   46  C16 UNL     1      55.766  -5.138  19.765  1.00  0.00     0.271 C
HETATM   47  C17 UNL     1      55.428  -5.777  18.447  1.00  0.00     0.050 C
BRANCH  46  48
HETATM   48  N13 UNL     1      55.591  -6.034  20.870  1.00  0.00    -0.067 N
ATOM     49 3H13 UNL     1      56.247  -5.820  21.620  1.00  0.00     0.275 HD
ATOM     50 2H13 UNL     1      54.714  -5.845  21.356  1.00  0.00     0.275 HD
ATOM     51 1H13 UNL     1      55.654  -7.015  20.600  1.00  0.00     0.275 HD
ENDBRANCH  46  48
ENDBRANCH  40  46
ENDBRANCH   8  34
TORSDOF 9
ENDMDL