MODEL 3
REMARK VINA RESULT: -7.550026587      1.217      2.362
REMARK  13 active torsions:
REMARK  status: ('A' for Active; 'I' for Inactive)
REMARK    1  A    between atoms: C2_2  and  C3_3
REMARK    2  A    between atoms: C3_3  and  C4_4
REMARK    3  A    between atoms: C4_4  and  C5_5
REMARK    4  A    between atoms: C4_4  and  N1_8
REMARK    5  A    between atoms: C5_5  and  O1_6
REMARK    6  A    between atoms: N1_8  and  C7_10
REMARK    7  A    between atoms: N3_13  and  C8_14
REMARK    8  A    between atoms: C8_14  and  C9_15
REMARK    9  A    between atoms: C9_15  and  C10_16
REMARK   10  A    between atoms: C10_16  and  O2_17
REMARK   11  A    between atoms: C13_22  and  N4_23
REMARK   12  A    between atoms: N4_23  and  S1_25
REMARK   13  A    between atoms: S1_25  and  C14_28
ROOT
HETATM    1  C7  UNL     1       7.690   9.636  22.579  1.00  0.00     0.146 A
HETATM    2  N2  UNL     1       7.798  10.769  21.864  1.00  0.00    -0.279 N
ATOM      3  H2  UNL     1       8.089  11.623  22.339  1.00  0.00     0.189 HD
HETATM    4  N3  UNL     1       7.538  10.818  20.555  1.00  0.00    -0.255 N
HETATM    5  C11 UNL     1       7.153   9.712  19.897  1.00  0.00     0.278 A
HETATM    6  O3  UNL     1       6.921   9.809  18.668  1.00  0.00    -0.265 OA
HETATM    7  C12 UNL     1       7.014   8.495  20.550  1.00  0.00     0.111 A
HETATM    8  C13 UNL     1       6.647   7.224  20.158  1.00  0.00     0.148 A
HETATM    9  N5  UNL     1       6.712   6.481  21.276  1.00  0.00    -0.283 N
ATOM     10  H5  UNL     1       6.498   5.485  21.326  1.00  0.00     0.188 HD
HETATM   11  N6  UNL     1       7.093   7.231  22.308  1.00  0.00    -0.294 N
ATOM     12  H6  UNL     1       7.215   6.896  23.264  1.00  0.00     0.187 HD
HETATM   13  C18 UNL     1       7.293   8.495  21.900  1.00  0.00     0.113 A
ENDROOT
BRANCH   8  14
HETATM   14  N4  UNL     1       6.324   6.888  18.958  1.00  0.00    -0.263 N
ATOM     15  H4  UNL     1       6.630   7.428  18.149  1.00  0.00     0.180 HD
BRANCH  14  16
HETATM   16  S1  UNL     1       5.337   5.462  18.787  1.00  0.00     0.271 S
HETATM   17  O4  UNL     1       4.561   5.232  20.032  1.00  0.00    -0.200 OA
HETATM   18  O5  UNL     1       4.470   5.674  17.591  1.00  0.00    -0.200 OA
BRANCH  16  19
HETATM   19  C14 UNL     1       6.378   4.054  18.534  1.00  0.00     0.123 A
HETATM   20  C15 UNL     1       6.182   3.011  17.666  1.00  0.00     0.059 A
HETATM   21  C16 UNL     1       7.114   2.045  17.646  1.00  0.00     0.064 A
HETATM   22 CL1  UNL     1       7.037   0.603  16.586  1.00  0.00    -0.082 Cl
HETATM   23  C17 UNL     1       8.181   2.188  18.495  1.00  0.00     0.097 A
HETATM   24 CL2  UNL     1       9.568   1.099  18.707  1.00  0.00    -0.074 Cl
HETATM   25  S2  UNL     1       7.848   3.660  19.289  1.00  0.00    -0.063 SA
ENDBRANCH  16  19
ENDBRANCH  14  16
ENDBRANCH   8  14
BRANCH   4  26
HETATM   26  C8  UNL     1       7.666  12.061  19.819  1.00  0.00     0.154 C
BRANCH  26  27
HETATM   27  C9  UNL     1       6.608  12.995  20.328  1.00  0.00     0.048 C
BRANCH  27  28
HETATM   28  C10 UNL     1       7.176  14.278  20.876  1.00  0.00     0.165 C
BRANCH  28  29
HETATM   29  O2  UNL     1       8.225  13.916  21.740  1.00  0.00    -0.401 OA
ATOM     30  H2  UNL     1       8.397  14.671  22.291  1.00  0.00     0.209 HD
ENDBRANCH  28  29
ENDBRANCH  27  28
ENDBRANCH  26  27
ENDBRANCH   4  26
BRANCH   1  31
HETATM   31  N1  UNL     1       7.939   9.570  23.842  1.00  0.00    -0.367 N
ATOM     32  H1  UNL     1       8.667  10.187  24.203  1.00  0.00     0.161 HD
BRANCH  31  33
HETATM   33  C4  UNL     1       7.291   8.715  24.783  1.00  0.00     0.107 C
BRANCH  33  34
HETATM   34  C3  UNL     1       5.950   9.373  25.122  1.00  0.00     0.027 C
BRANCH  34  35
HETATM   35  C2  UNL     1       4.786   8.509  24.708  1.00  0.00    -0.002 C
HETATM   36  C1  UNL     1       4.010   9.185  23.618  1.00  0.00     0.005 C
ENDBRANCH  34  35
ENDBRANCH  33  34
BRANCH  33  37
HETATM   37  C5  UNL     1       8.087   8.546  26.062  1.00  0.00     0.192 C
BRANCH  37  38
HETATM   38  O1  UNL     1       9.427   8.503  25.709  1.00  0.00    -0.394 OA
HETATM   39  C6  UNL     1      10.278   8.473  26.812  1.00  0.00     0.201 C
ENDBRANCH  37  38
ENDBRANCH  33  37
ENDBRANCH  31  33
ENDBRANCH   1  31
TORSDOF 13
ENDMDL