MODEL 2
REMARK VINA RESULT: -7.418922046      2.952      6.979
REMARK  13 active torsions:
REMARK  status: ('A' for Active; 'I' for Inactive)
REMARK       I    between atoms: N1_2  and  C2_4
REMARK       I    between atoms: C2_4  and  N2_5
REMARK    1  A    between atoms: C3_7  and  C4_8
REMARK    2  A    between atoms: C3_7  and  N6_24
REMARK    3  A    between atoms: C4_8  and  O1_9
REMARK    4  A    between atoms: O1_9  and  C5_10
REMARK    5  A    between atoms: C5_10  and  C6_12
REMARK    6  A    between atoms: C6_12  and  C7_13
REMARK    7  A    between atoms: C7_13  and  N3_14
REMARK    8  A    between atoms: C8_16  and  N4_17
REMARK    9  A    between atoms: C8_16  and  O5_22
REMARK   10  A    between atoms: N4_17  and  N5_19
REMARK   11  A    between atoms: N6_24  and  C10_26
REMARK   12  A    between atoms: C12_28  and  C13_29
REMARK   13  A    between atoms: C13_29  and  N7_31
REMARK       I    between atoms: N7_31  and  C15_33
ROOT
HETATM    1  C1  UNL     1       5.322  12.970  19.320  1.00  0.00     0.165 C
HETATM    2  N1  UNL     1       5.781  12.045  20.354  1.00  0.00    -0.230 N
ATOM      3  H1  UNL     1       5.119  11.700  21.051  1.00  0.00     0.177 HD
HETATM    4  C2  UNL     1       7.129  11.624  20.402  1.00  0.00     0.689 C
HETATM    5  N2  UNL     1       7.465  10.301  20.089  1.00  0.00    -0.178 N
ATOM      6  H2  UNL     1       7.132   9.948  19.191  1.00  0.00     0.185 HD
HETATM    7  C3  UNL     1       8.135   9.495  20.800  1.00  0.00     0.122 C
HETATM    8  N8  UNL     1       8.054  12.449  20.729  1.00  0.00    -0.131 N
ATOM      9  H8  UNL     1       9.012  12.100  20.749  1.00  0.00     0.199 HD
HETATM   10 CL2  UNL     1       7.802  14.098  21.137  1.00  0.00     0.026 Cl
ENDROOT
BRANCH   7  11
HETATM   11  C4  UNL     1       8.387   8.123  20.290  1.00  0.00     0.255 C
BRANCH  11  12
HETATM   12  O1  UNL     1       7.224   7.569  19.699  1.00  0.00    -0.314 OA
BRANCH  12  13
HETATM   13  C5  UNL     1       6.199   7.012  20.420  1.00  0.00     0.260 C
HETATM   14  O2  UNL     1       5.023   7.187  20.048  1.00  0.00    -0.265 OA
BRANCH  13  15
HETATM   15  C6  UNL     1       6.517   6.220  21.617  1.00  0.00     0.131 C
BRANCH  15  16
HETATM   16  C7  UNL     1       7.066   4.838  21.240  1.00  0.00     0.133 C
BRANCH  16  17
HETATM   17  N3  UNL     1       6.762   4.569  19.895  1.00  0.00    -0.355 N
HETATM   18  C8  UNL     1       7.297   3.951  18.967  1.00  0.00     0.238 C
ATOM     19  H3  UNL     1       5.876   4.988  19.613  1.00  0.00     0.163 HD
BRANCH  18  20
HETATM   20  N4  UNL     1       6.629   3.917  17.691  1.00  0.00    -0.205 N
ATOM     21  H4  UNL     1       7.001   3.325  16.949  1.00  0.00     0.197 HD
BRANCH  20  22
HETATM   22  N5  UNL     1       5.483   4.675  17.449  1.00  0.00    -0.036 N
HETATM   23  O3  UNL     1       4.376   4.146  17.670  1.00  0.00    -0.516 OA
HETATM   24  O4  UNL     1       5.581   5.951  16.989  1.00  0.00    -0.516 OA
ENDBRANCH  20  22
ENDBRANCH  18  20
BRANCH  18  25
HETATM   25  O5  UNL     1       8.485   3.290  19.052  1.00  0.00    -0.326 OA
HETATM   26  C9  UNL     1       8.534   1.886  19.043  1.00  0.00     0.213 C
ENDBRANCH  18  25
ENDBRANCH  16  17
ENDBRANCH  15  16
ENDBRANCH  13  15
ENDBRANCH  12  13
ENDBRANCH  11  12
ENDBRANCH   7  11
BRANCH   7  27
HETATM   27  N6  UNL     1       8.660   9.849  22.073  1.00  0.00    -0.342 N
ATOM     28  H6  UNL     1       9.527  10.384  22.128  1.00  0.00     0.167 HD
BRANCH  27  29
HETATM   29  C10 UNL     1       7.998   9.468  23.272  1.00  0.00     0.056 A
HETATM   30  C11 UNL     1       6.629   9.266  23.322  1.00  0.00     0.040 A
HETATM   31  C12 UNL     1       5.989   8.900  24.473  1.00  0.00    -0.034 A
HETATM   32  C17 UNL     1       6.705   8.719  25.640  1.00  0.00     0.011 A
HETATM   33  C18 UNL     1       8.064   8.912  25.626  1.00  0.00     0.027 A
HETATM   34  C19 UNL     1       8.690   9.283  24.446  1.00  0.00     0.060 A
HETATM   35 CL1  UNL     1      10.431   9.508  24.511  1.00  0.00    -0.082 Cl
BRANCH  31  36
HETATM   36  C13 UNL     1       4.520   8.702  24.445  1.00  0.00     0.113 C
HETATM   37  C14 UNL     1       3.860   9.330  25.654  1.00  0.00     0.037 C
BRANCH  36  38
HETATM   38  N7  UNL     1       4.163   7.300  24.451  1.00  0.00    -0.353 N
HETATM   39  C15 UNL     1       3.313   6.808  23.427  1.00  0.00     0.214 C
HETATM   40  C16 UNL     1       2.918   5.389  23.388  1.00  0.00     0.117 C
HETATM   41  O6  UNL     1       2.867   7.577  22.516  1.00  0.00    -0.274 OA
ATOM     42  H7  UNL     1       4.517   6.677  25.177  1.00  0.00     0.163 HD
ENDBRANCH  36  38
ENDBRANCH  31  36
ENDBRANCH  27  29
ENDBRANCH   7  27
TORSDOF 13
ENDMDL