MODEL 2
REMARK VINA RESULT: -8.793026281      1.213      1.537
REMARK  12 active torsions:
REMARK  status: ('A' for Active; 'I' for Inactive)
REMARK    1  A    between atoms: C2_2  and  O1_3
REMARK    2  A    between atoms: O1_3  and  C3_4
REMARK    3  A    between atoms: C3_4  and  C4_6
REMARK    4  A    between atoms: C6_10  and  C7_11
REMARK    5  A    between atoms: C7_11  and  C8_12
REMARK    6  A    between atoms: C7_11  and  N4_31
REMARK    7  A    between atoms: C8_12  and  C9_13
REMARK    8  A    between atoms: C9_13  and  O3_14
REMARK    9  A    between atoms: C9_13  and  C10_16
REMARK       I    between atoms: C10_16  and  N2_18
REMARK   10  A    between atoms: N2_18  and  C11_20
REMARK   11  A    between atoms: N4_31  and  C20_33
REMARK   12  A    between atoms: C23_37  and  C24_38
ROOT
HETATM    1  C7  UNL     1       6.140   9.605  23.343  1.00  0.00     0.151 C
ENDROOT
BRANCH   1   2
HETATM    2  C6  UNL     1       7.409   9.548  24.137  1.00  0.00     0.105 A
HETATM    3  N1  UNL     1       8.571  10.101  23.816  1.00  0.00    -0.352 N
HETATM    4  C5  UNL     1       9.512   9.786  24.749  1.00  0.00     0.125 A
ATOM      5  H1  UNL     1       8.737  10.677  22.991  1.00  0.00     0.166 HD
HETATM    6  C4  UNL     1       8.849   9.000  25.667  1.00  0.00     0.125 A
HETATM    7  N5  UNL     1       7.563   8.873  25.268  1.00  0.00    -0.338 N
ATOM      8  H5  UNL     1       6.836   8.347  25.754  1.00  0.00     0.167 HD
BRANCH   6   9
HETATM    9  C3  UNL     1       9.469   8.403  26.857  1.00  0.00     0.311 C
HETATM   10  O2  UNL     1       8.798   7.612  27.558  1.00  0.00    -0.258 OA
BRANCH   9  11
HETATM   11  O1  UNL     1      10.763   8.677  27.233  1.00  0.00    -0.317 OA
BRANCH  11  12
HETATM   12  C2  UNL     1      11.698   7.674  27.594  1.00  0.00     0.175 C
HETATM   13  C1  UNL     1      13.022   7.861  26.899  1.00  0.00     0.034 C
ENDBRANCH  11  12
ENDBRANCH   9  11
ENDBRANCH   6   9
ENDBRANCH   1   2
BRANCH   1  14
HETATM   14  C8  UNL     1       6.229   9.128  21.957  1.00  0.00     0.103 C
BRANCH  14  15
HETATM   15  C9  UNL     1       7.098   7.917  21.702  1.00  0.00     0.113 C
BRANCH  15  16
HETATM   16  O3  UNL     1       7.372   7.146  22.793  1.00  0.00    -0.359 OA
ATOM     17  H3  UNL     1       8.154   6.610  22.733  1.00  0.00     0.217 HD
ENDBRANCH  15  16
BRANCH  15  18
HETATM   18  C10 UNL     1       6.858   7.227  20.439  1.00  0.00     0.271 C
HETATM   19  O4  UNL     1       6.753   7.884  19.372  1.00  0.00    -0.266 OA
HETATM   20  N2  UNL     1       6.733   5.812  20.314  1.00  0.00    -0.344 N
ATOM     21  H2  UNL     1       6.804   5.242  21.156  1.00  0.00     0.163 HD
BRANCH  20  22
HETATM   22  C11 UNL     1       6.510   5.147  19.050  1.00  0.00     0.157 C
HETATM   23  C12 UNL     1       5.080   4.708  18.839  1.00  0.00     0.035 C
HETATM   24  C13 UNL     1       4.993   4.306  17.360  1.00  0.00     0.033 C
HETATM   25  C14 UNL     1       5.055   2.832  17.185  1.00  0.00     0.273 C
HETATM   26  N3  UNL     1       6.225   2.171  17.630  1.00  0.00     0.100 N
HETATM   27  C15 UNL     1       6.707   1.202  16.625  1.00  0.00     0.273 C
HETATM   28  C18 UNL     1       7.391   2.953  17.842  1.00  0.00     0.294 C
HETATM   29  C16 UNL     1       8.111   0.859  17.044  1.00  0.00     0.033 C
HETATM   30  C17 UNL     1       8.426   1.849  18.143  1.00  0.00     0.045 C
HETATM   31  C19 UNL     1       7.338   3.923  18.937  1.00  0.00     0.182 C
HETATM   32  O5  UNL     1       8.062   3.710  19.881  1.00  0.00    -0.293 OA
ENDBRANCH  20  22
ENDBRANCH  15  18
ENDBRANCH  14  15
ENDBRANCH   1  14
BRANCH   1  33
HETATM   33  N4  UNL     1       5.184   8.877  24.117  1.00  0.00    -0.403 N
ATOM     34  H4  UNL     1       5.409   8.687  25.093  1.00  0.00     0.154 HD
BRANCH  33  35
HETATM   35  C20 UNL     1       3.971   8.412  23.629  1.00  0.00     0.113 C
HETATM   36  C21 UNL     1       3.676   6.947  23.631  1.00  0.00     0.053 C
HETATM   37  C22 UNL     1       2.235   6.883  24.101  1.00  0.00     0.170 C
HETATM   38  O6  UNL     1       1.741   8.166  23.987  1.00  0.00    -0.378 OA
HETATM   39  C23 UNL     1       2.756   9.033  24.265  1.00  0.00     0.208 C
BRANCH  39  40
HETATM   40  C24 UNL     1       2.857   9.307  25.726  1.00  0.00     0.383 C
HETATM   41  F1  UNL     1       3.292  10.574  26.024  1.00  0.00    -0.212 F
HETATM   42  F2  UNL     1       1.789   8.958  26.487  1.00  0.00    -0.212 F
ENDBRANCH  39  40
ENDBRANCH  33  35
ENDBRANCH   1  33
TORSDOF 12
ENDMDL