MODEL 4
REMARK VINA RESULT: -7.185290708      4.082      5.417
REMARK  11 active torsions:
REMARK  status: ('A' for Active; 'I' for Inactive)
REMARK    1  A    between atoms: O1_2  and  C2_3
REMARK    2  A    between atoms: C2_3  and  C3_5
REMARK       I    between atoms: N1_9  and  C7_10
REMARK    3  A    between atoms: C7_10  and  C8_12
REMARK    4  A    between atoms: C10_18  and  C11_19
REMARK    5  A    between atoms: C11_19  and  N4_20
REMARK    6  A    between atoms: C11_19  and  C20_37
REMARK    7  A    between atoms: C12_22  and  C13_23
REMARK    8  A    between atoms: C13_23  and  C14_25
REMARK       I    between atoms: C14_25  and  N5_27
REMARK    9  A    between atoms: N5_27  and  C15_29
REMARK   10  A    between atoms: C15_29  and  C16_32
REMARK   11  A    between atoms: C16_32  and  C17_34
ROOT
HETATM    1  C11 UNL     1       5.872   4.954  19.565  1.00  0.00     0.141 C
ENDROOT
BRANCH   1   2
HETATM    2  C10 UNL     1       4.990   5.071  20.804  1.00  0.00     0.066 A
HETATM    3  C8  UNL     1       5.158   6.058  21.790  1.00  0.00     0.126 A
HETATM    4  N2  UNL     1       4.142   5.825  22.661  1.00  0.00    -0.346 N
HETATM    5  C9  UNL     1       3.403   4.792  22.273  1.00  0.00     0.181 A
ATOM      6  H2  UNL     1       3.969   6.373  23.503  1.00  0.00     0.167 HD
HETATM    7  N3  UNL     1       3.949   4.324  21.104  1.00  0.00    -0.352 N
ATOM      8  H3  UNL     1       3.606   3.533  20.560  1.00  0.00     0.166 HD
BRANCH   3   9
HETATM    9  C7  UNL     1       6.178   7.062  21.889  1.00  0.00     0.273 C
HETATM   10  N1  UNL     1       5.858   8.471  21.693  1.00  0.00    -0.333 N
HETATM   11  C3  UNL     1       6.780   9.555  21.786  1.00  0.00     0.187 C
HETATM   12  C6  UNL     1       4.553   8.930  21.366  1.00  0.00     0.127 C
HETATM   13  C4  UNL     1       6.104  10.714  21.120  1.00  0.00     0.037 C
HETATM   14  C5  UNL     1       4.658  10.398  21.082  1.00  0.00     0.022 C
HETATM   15  O3  UNL     1       7.364   6.835  22.138  1.00  0.00    -0.266 OA
BRANCH  11  16
HETATM   16  C2  UNL     1       7.216   9.853  23.162  1.00  0.00     0.281 C
HETATM   17  O2  UNL     1       8.374  10.286  23.346  1.00  0.00    -0.263 OA
BRANCH  16  18
HETATM   18  O1  UNL     1       6.400   9.673  24.262  1.00  0.00    -0.325 OA
HETATM   19  C1  UNL     1       6.597   8.686  25.257  1.00  0.00     0.213 C
ENDBRANCH  16  18
ENDBRANCH  11  16
ENDBRANCH   3   9
ENDBRANCH   1   2
BRANCH   1  20
HETATM   20  N4  UNL     1       5.010   5.200  18.493  1.00  0.00    -0.385 N
HETATM   21  C12 UNL     1       4.270   6.243  18.082  1.00  0.00     0.145 C
ATOM     22  H4  UNL     1       4.920   4.395  17.874  1.00  0.00     0.159 HD
BRANCH  21  23
HETATM   23  C13 UNL     1       4.720   7.422  17.344  1.00  0.00     0.254 C
HETATM   24  O4  UNL     1       5.098   8.459  17.914  1.00  0.00    -0.281 OA
BRANCH  23  25
HETATM   25  C14 UNL     1       4.751   7.445  15.874  1.00  0.00     0.296 C
HETATM   26  O5  UNL     1       3.886   6.808  15.240  1.00  0.00    -0.264 OA
HETATM   27  N5  UNL     1       5.734   8.165  15.185  1.00  0.00    -0.299 N
ATOM     28  H5  UNL     1       6.419   8.681  15.738  1.00  0.00     0.167 HD
BRANCH  27  29
HETATM   29  C15 UNL     1       5.845   8.229  13.749  1.00  0.00     0.318 C
HETATM   30  F1  UNL     1       4.687   8.698  13.161  1.00  0.00    -0.192 F
HETATM   31 CL1  UNL     1       6.292   6.605  13.162  1.00  0.00    -0.051 Cl
BRANCH  29  32
HETATM   32  C16 UNL     1       6.948   9.155  13.340  1.00  0.00     0.206 C
HETATM   33  O6  UNL     1       7.075  10.210  13.934  1.00  0.00    -0.290 OA
BRANCH  32  34
HETATM   34  C17 UNL     1       7.878   8.826  12.248  1.00  0.00     0.054 C
HETATM   35  C18 UNL     1       9.290   9.280  12.617  1.00  0.00     0.018 C
HETATM   36  C19 UNL     1       7.511   9.494  10.953  1.00  0.00     0.018 C
ENDBRANCH  32  34
ENDBRANCH  29  32
ENDBRANCH  27  29
ENDBRANCH  23  25
ENDBRANCH  21  23
ENDBRANCH   1  20
BRANCH   1  37
HETATM   37  C20 UNL     1       6.664   3.701  19.593  1.00  0.00    -0.025 C
HETATM   38  C21 UNL     1       6.166   2.683  18.558  1.00  0.00     0.017 C
HETATM   39  C22 UNL     1       8.133   3.973  19.255  1.00  0.00     0.017 C
HETATM   40  C23 UNL     1       6.646   2.974  20.941  1.00  0.00     0.017 C
ENDBRANCH   1  37
TORSDOF 11
ENDMDL