MODEL 1
REMARK VINA RESULT: -7.345155663      0.000      0.000
REMARK  12 active torsions:
REMARK  status: ('A' for Active; 'I' for Inactive)
REMARK    1  A    between atoms: O1_2  and  C2_3
REMARK    2  A    between atoms: C3_4  and  C4_5
REMARK    3  A    between atoms: C4_5  and  C5_6
REMARK    4  A    between atoms: C8_15  and  C9_16
REMARK    5  A    between atoms: N3_17  and  N4_19
REMARK    6  A    between atoms: N4_19  and  C10_20
REMARK    7  A    between atoms: C10_20  and  O4_21
REMARK    8  A    between atoms: C10_20  and  C11_23
REMARK       I    between atoms: C11_23  and  N5_25
REMARK    9  A    between atoms: N5_25  and  C12_27
REMARK   10  A    between atoms: C12_27  and  C13_28
REMARK   11  A    between atoms: C13_28  and  C14_29
REMARK   12  A    between atoms: C14_29  and  N6_30
ROOT
HETATM    1  C5  UNL     1       6.241   8.217  22.098  1.00  0.00     0.035 A
HETATM    2  N1  UNL     1       6.836   7.973  23.312  1.00  0.00    -0.311 N
ATOM      3  H1  UNL     1       6.440   7.282  23.949  1.00  0.00     0.170 HD
HETATM    4  C6  UNL     1       7.927   8.644  23.647  1.00  0.00     0.327 A
HETATM    5  O2  UNL     1       8.507   8.433  24.779  1.00  0.00    -0.247 OA
HETATM    6  N2  UNL     1       8.463   9.565  22.814  1.00  0.00    -0.275 N
ATOM      7  H2  UNL     1       9.307  10.067  23.093  1.00  0.00     0.173 HD
HETATM    8  C7  UNL     1       7.905   9.824  21.637  1.00  0.00     0.263 A
HETATM    9  O3  UNL     1       8.436  10.703  20.869  1.00  0.00    -0.267 OA
HETATM   10  C8  UNL     1       6.732   9.138  21.229  1.00  0.00     0.073 A
ENDROOT
BRANCH  10  11
HETATM   11  C9  UNL     1       6.097   9.666  20.062  1.00  0.00     0.140 C
HETATM   12  N3  UNL     1       6.418   9.428  18.867  1.00  0.00    -0.243 N
ATOM     13  H3  UNL     1       7.219   8.804  18.773  1.00  0.00     0.201 HD
BRANCH  12  14
HETATM   14  N4  UNL     1       5.916   9.833  17.711  1.00  0.00    -0.294 NA
BRANCH  14  15
HETATM   15  C10 UNL     1       5.421  10.236  16.567  1.00  0.00     0.306 C
BRANCH  15  16
HETATM   16  O4  UNL     1       4.995  11.535  16.403  1.00  0.00    -0.330 OA
ATOM     17  H4  UNL     1       4.095  11.778  16.586  1.00  0.00     0.220 HD
ENDBRANCH  15  16
BRANCH  15  18
HETATM   18  C11 UNL     1       5.186   9.553  15.297  1.00  0.00     0.309 C
HETATM   19  O5  UNL     1       5.640   8.417  15.073  1.00  0.00    -0.262 OA
HETATM   20  N5  UNL     1       4.409  10.202  14.311  1.00  0.00    -0.353 N
ATOM     21  H5  UNL     1       4.025  11.129  14.495  1.00  0.00     0.162 HD
BRANCH  20  22
HETATM   22  C12 UNL     1       4.160   9.556  13.044  1.00  0.00     0.128 C
BRANCH  22  23
HETATM   23  C13 UNL     1       4.626  10.454  11.917  1.00  0.00     0.064 C
BRANCH  23  24
HETATM   24  C14 UNL     1       6.049  10.887  12.015  1.00  0.00     0.059 C
BRANCH  24  25
HETATM   25  N6  UNL     1       7.061   9.954  12.052  1.00  0.00    -0.393 N
HETATM   26  C15 UNL     1       7.375   9.019  11.078  1.00  0.00     0.122 C
HETATM   27  C16 UNL     1       8.922   9.062  11.069  1.00  0.00     0.021 C
HETATM   28  C17 UNL     1       9.220   9.139  12.551  1.00  0.00     0.021 C
HETATM   29  C18 UNL     1       8.096  10.072  13.025  1.00  0.00     0.122 C
ENDBRANCH  24  25
ENDBRANCH  23  24
ENDBRANCH  22  23
ENDBRANCH  20  22
ENDBRANCH  15  18
ENDBRANCH  14  15
ENDBRANCH  12  14
ENDBRANCH  10  11
BRANCH   1  30
HETATM   30  C4  UNL     1       5.174   7.267  21.771  1.00  0.00     0.107 C
BRANCH  30  31
HETATM   31  C3  UNL     1       5.863   6.271  20.818  1.00  0.00     0.025 A
HETATM   32  C2  UNL     1       5.563   6.035  19.503  1.00  0.00     0.105 A
HETATM   33  C20 UNL     1       6.258   5.062  18.889  1.00  0.00     0.097 A
HETATM   34  C19 UNL     1       7.200   4.399  19.634  1.00  0.00     0.099 A
HETATM   35 CL2  UNL     1       6.010   4.591  17.175  1.00  0.00    -0.079 Cl
HETATM   36  S1  UNL     1       7.087   5.156  21.160  1.00  0.00    -0.077 SA
HETATM   37 CL1  UNL     1       8.276   3.070  19.159  1.00  0.00    -0.074 Cl
BRANCH  32  38
HETATM   38  O1  UNL     1       4.557   6.816  18.874  1.00  0.00    -0.353 OA
HETATM   39  C1  UNL     1       3.235   6.385  18.708  1.00  0.00     0.210 C
ENDBRANCH  32  38
ENDBRANCH  30  31
ENDBRANCH   1  30
TORSDOF 12
ENDMDL