MODEL 4
REMARK VINA RESULT: -7.619597871      0.888      1.240
REMARK  14 active torsions:
REMARK  status: ('A' for Active; 'I' for Inactive)
REMARK    1  A    between atoms: C2_2  and  C3_3
REMARK    2  A    between atoms: C3_3  and  C4_4
REMARK    3  A    between atoms: C4_4  and  N1_5
REMARK    4  A    between atoms: C4_4  and  C20_38
REMARK       I    between atoms: N1_5  and  C5_7
REMARK    5  A    between atoms: C5_7  and  C6_9
REMARK    6  A    between atoms: N2_16  and  C11_17
REMARK    7  A    between atoms: C11_17  and  O2_18
REMARK    8  A    between atoms: C11_17  and  C12_20
REMARK    9  A    between atoms: C12_20  and  N3_22
REMARK   10  A    between atoms: N3_22  and  N4_24
REMARK       I    between atoms: N4_24  and  C14_26
REMARK   11  A    between atoms: C14_26  and  C15_28
REMARK       I    between atoms: C15_28  and  N5_30
REMARK   12  A    between atoms: N5_30  and  N6_32
REMARK   13  A    between atoms: N6_32  and  C16_34
REMARK   14  A    between atoms: C16_34  and  C17_35
ROOT
HETATM    1  C6  UNL     1       7.471   8.454  20.308  1.00  0.00     0.178 C
HETATM    2  C7  UNL     1       7.447   9.703  19.486  1.00  0.00     0.041 C
HETATM    3  C8  UNL     1       7.805  10.936  20.268  1.00  0.00     0.083 C
HETATM    4  C9  UNL     1       6.738  11.191  21.312  1.00  0.00     0.259 C
HETATM    5  F1  UNL     1       7.379  11.644  22.423  1.00  0.00    -0.205 F
HETATM    6  F2  UNL     1       5.817  12.098  20.856  1.00  0.00    -0.205 F
HETATM    7  C10 UNL     1       5.969   9.886  21.581  1.00  0.00     0.204 C
HETATM    8  N2  UNL     1       6.911   8.813  21.660  1.00  0.00    -0.341 N
ENDROOT
BRANCH   8   9
HETATM    9  C11 UNL     1       7.341   8.151  22.784  1.00  0.00     0.163 C
BRANCH   9  10
HETATM   10  O2  UNL     1       7.304   6.845  22.700  1.00  0.00    -0.345 OA
ATOM     11  H2  UNL     1       6.431   6.472  22.682  1.00  0.00     0.219 HD
ENDBRANCH   9  10
BRANCH   9  12
HETATM   12  C12 UNL     1       7.828   8.647  24.040  1.00  0.00     0.072 C
HETATM   13  C13 UNL     1       9.083   9.375  24.288  1.00  0.00     0.074 C
BRANCH  12  14
HETATM   14  N3  UNL     1       7.068   8.467  25.109  1.00  0.00    -0.298 N
ATOM     15  H3  UNL     1       7.381   8.801  26.021  1.00  0.00     0.187 HD
BRANCH  14  16
HETATM   16  N4  UNL     1       5.856   7.830  24.987  1.00  0.00    -0.262 N
HETATM   17  C14 UNL     1       4.597   8.488  25.087  1.00  0.00     0.329 C
HETATM   18  O3  UNL     1       4.638   9.746  25.302  1.00  0.00    -0.261 OA
ATOM     19  H4  UNL     1       5.858   6.825  24.814  1.00  0.00     0.190 HD
BRANCH  17  20
HETATM   20  C15 UNL     1       3.341   7.781  24.955  1.00  0.00     0.329 C
HETATM   21  O4  UNL     1       3.316   6.752  24.241  1.00  0.00    -0.261 OA
HETATM   22  N5  UNL     1       2.141   8.184  25.587  1.00  0.00    -0.266 N
ATOM     23  H5  UNL     1       2.149   9.022  26.169  1.00  0.00     0.190 HD
BRANCH  22  24
HETATM   24  N6  UNL     1       0.955   7.485  25.446  1.00  0.00    -0.333 N
ATOM     25  H6  UNL     1       0.836   6.530  25.785  1.00  0.00     0.180 HD
BRANCH  24  26
HETATM   26  C16 UNL     1      -0.097   8.209  24.784  1.00  0.00     0.143 C
BRANCH  26  27
HETATM   27  C17 UNL     1       0.131   9.682  25.047  1.00  0.00    -0.003 C
HETATM   28  C18 UNL     1      -0.872  10.248  26.012  1.00  0.00     0.011 C
HETATM   29  C19 UNL     1       0.035  10.511  23.776  1.00  0.00     0.011 C
ENDBRANCH  26  27
ENDBRANCH  24  26
ENDBRANCH  22  24
ENDBRANCH  17  20
ENDBRANCH  14  16
ENDBRANCH  12  14
ENDBRANCH   9  12
ENDBRANCH   8   9
BRANCH   1  30
HETATM   30  C5  UNL     1       6.643   7.408  19.703  1.00  0.00     0.241 C
HETATM   31  N1  UNL     1       6.845   6.032  19.963  1.00  0.00    -0.349 N
ATOM     32  H1  UNL     1       7.595   5.754  20.595  1.00  0.00     0.163 HD
HETATM   33  O1  UNL     1       5.696   7.717  18.907  1.00  0.00    -0.271 OA
BRANCH  31  34
HETATM   34  C4  UNL     1       6.014   4.998  19.355  1.00  0.00     0.142 C
BRANCH  34  35
HETATM   35  C3  UNL     1       6.845   4.023  18.566  1.00  0.00     0.032 C
BRANCH  35  36
HETATM   36  C2  UNL     1       8.170   3.831  19.302  1.00  0.00    -0.002 C
HETATM   37  C1  UNL     1       8.762   2.492  18.937  1.00  0.00     0.005 C
ENDBRANCH  35  36
ENDBRANCH  34  35
BRANCH  34  38
HETATM   38  C20 UNL     1       5.279   4.229  20.405  1.00  0.00     0.073 A
HETATM   39  N7  UNL     1       5.469   4.254  21.711  1.00  0.00    -0.361 N
HETATM   40  C21 UNL     1       4.734   3.514  22.491  1.00  0.00     0.096 A
ATOM     41  H7  UNL     1       6.193   4.853  22.109  1.00  0.00     0.165 HD
HETATM   42  C22 UNL     1       3.778   2.732  21.888  1.00  0.00     0.068 A
HETATM   43  S1  UNL     1       4.004   3.114  20.239  1.00  0.00    -0.085 SA
ENDBRANCH  34  38
ENDBRANCH  31  34
ENDBRANCH   1  30
TORSDOF 14
ENDMDL