MODEL 3
REMARK VINA RESULT: -7.245294592      1.660      2.319
REMARK  16 active torsions:
REMARK  status: ('A' for Active; 'I' for Inactive)
REMARK    1  A    between atoms: C2_2  and  C3_3
REMARK    2  A    between atoms: C3_3  and  N1_4
REMARK    3  A    between atoms: N1_4  and  C4_5
REMARK    4  A    between atoms: N1_4  and  C6_8
REMARK    5  A    between atoms: C4_5  and  C5_6
REMARK    6  A    between atoms: C6_8  and  O1_9
REMARK    7  A    between atoms: C6_8  and  C7_11
REMARK    8  A    between atoms: C8_12  and  C9_13
REMARK    9  A    between atoms: C11_18  and  N3_19
REMARK   10  A    between atoms: N3_19  and  C12_21
REMARK   11  A    between atoms: C12_21  and  O4_22
REMARK   12  A    between atoms: C12_21  and  C13_24
REMARK   13  A    between atoms: C13_24  and  N4_25
REMARK   14  A    between atoms: C13_24  and  C15_29
REMARK   15  A    between atoms: N4_25  and  O5_27
REMARK   16  A    between atoms: C17_32  and  N5_33
ROOT
HETATM    1  C7  UNL     1       6.562   4.708  18.908  1.00  0.00     0.035 C
HETATM    2  C8  UNL     1       5.915   5.800  18.782  1.00  0.00     0.120 C
HETATM    3  N2  UNL     1       6.002   6.974  19.629  1.00  0.00    -0.357 N
HETATM    4  C10 UNL     1       5.755   8.362  19.884  1.00  0.00     0.152 C
HETATM    5  C11 UNL     1       5.371   7.838  21.313  1.00  0.00     0.134 C
HETATM    6  C18 UNL     1       6.540   7.015  20.987  1.00  0.00     0.171 C
HETATM    7  S2  UNL     1       6.694   5.307  21.496  1.00  0.00    -0.137 SA
HETATM    8  C19 UNL     1       7.642   4.711  20.036  1.00  0.00     0.121 C
ENDROOT
BRANCH   5   9
HETATM    9  N3  UNL     1       5.544   8.886  22.331  1.00  0.00    -0.360 N
ATOM     10  H3  UNL     1       5.056   9.773  22.206  1.00  0.00     0.162 HD
BRANCH   9  11
HETATM   11  C12 UNL     1       6.337   8.721  23.448  1.00  0.00     0.168 C
BRANCH  11  12
HETATM   12  O4  UNL     1       5.918   7.790  24.260  1.00  0.00    -0.344 OA
ATOM     13  H4  UNL     1       6.608   7.225  24.586  1.00  0.00     0.219 HD
ENDBRANCH  11  12
BRANCH  11  14
HETATM   14  C13 UNL     1       7.507   9.390  23.850  1.00  0.00     0.132 C
BRANCH  14  15
HETATM   15  N4  UNL     1       7.912  10.446  23.134  1.00  0.00    -0.261 N
ATOM     16  H4  UNL     1       8.133  11.311  23.628  1.00  0.00     0.194 HD
BRANCH  15  17
HETATM   17  O5  UNL     1       8.041  10.424  21.790  1.00  0.00    -0.285 OA
HETATM   18  C14 UNL     1       7.475  11.496  21.040  1.00  0.00     0.237 C
ENDBRANCH  15  17
ENDBRANCH  14  15
BRANCH  14  19
HETATM   19  C15 UNL     1       8.389   9.107  25.021  1.00  0.00     0.074 A
HETATM   20  C16 UNL     1       9.705   9.466  25.027  1.00  0.00     0.085 A
HETATM   21  S1  UNL     1      10.260   8.816  26.527  1.00  0.00    -0.064 SA
HETATM   22  C17 UNL     1       8.796   8.139  27.046  1.00  0.00     0.142 A
HETATM   23  N6  UNL     1       7.954   8.431  26.066  1.00  0.00    -0.335 N
ATOM     24  H6  UNL     1       6.979   8.135  26.120  1.00  0.00     0.168 HD
BRANCH  22  25
HETATM   25  N5  UNL     1       8.527   7.474  28.154  1.00  0.00    -0.380 N
ATOM     26  H52 UNL     1       9.003   7.559  29.052  1.00  0.00     0.158 HD
ATOM     27  H51 UNL     1       7.813   6.766  28.327  1.00  0.00     0.158 HD
ENDBRANCH  22  25
ENDBRANCH  14  19
ENDBRANCH  11  14
ENDBRANCH   9  11
ENDBRANCH   5   9
BRANCH   2  28
HETATM   28  C9  UNL     1       4.913   5.948  17.719  1.00  0.00     0.227 C
HETATM   29  O2  UNL     1       5.267   6.578  16.630  1.00  0.00    -0.643 OA
HETATM   30  O3  UNL     1       3.636   5.557  17.666  1.00  0.00    -0.643 OA
ENDBRANCH   2  28
BRANCH   1  31
HETATM   31  C6  UNL     1       6.591   3.500  18.198  1.00  0.00     0.147 C
BRANCH  31  32
HETATM   32  N1  UNL     1       7.095   2.749  17.161  1.00  0.00    -0.360 N
BRANCH  32  33
HETATM   33  C3  UNL     1       8.207   1.854  16.998  1.00  0.00     0.124 C
BRANCH  33  34
HETATM   34  C2  UNL     1       9.035   1.920  18.322  1.00  0.00     0.015 C
HETATM   35  C1  UNL     1       9.633   0.566  18.558  1.00  0.00     0.006 C
ENDBRANCH  33  34
ENDBRANCH  32  33
BRANCH  32  36
HETATM   36  C4  UNL     1       6.346   2.901  15.858  1.00  0.00     0.140 C
BRANCH  36  37
HETATM   37  C5  UNL     1       5.789   1.585  15.439  1.00  0.00     0.134 C
HETATM   38 CL1  UNL     1       5.494   1.606  13.693  1.00  0.00    -0.129 Cl
ENDBRANCH  36  37
ENDBRANCH  32  36
ENDBRANCH  31  32
BRANCH  31  39
HETATM   39  O1  UNL     1       5.682   2.665  18.889  1.00  0.00    -0.346 OA
ATOM     40  H1  UNL     1       4.877   3.161  18.977  1.00  0.00     0.219 HD
ENDBRANCH  31  39
ENDBRANCH   1  31
TORSDOF 16
ENDMDL