MODEL 5
REMARK VINA RESULT: -7.451349261      3.064      5.476
REMARK  13 active torsions:
REMARK  status: ('A' for Active; 'I' for Inactive)
REMARK    1  A    between atoms: C2_2  and  C3_3
REMARK    2  A    between atoms: C3_3  and  N1_4
REMARK       I    between atoms: N1_4  and  C4_6
REMARK    3  A    between atoms: C4_6  and  O2_8
REMARK    4  A    between atoms: O2_8  and  C5_9
REMARK    5  A    between atoms: C6_10  and  N2_11
REMARK       I    between atoms: N2_11  and  C7_13
REMARK    6  A    between atoms: C7_13  and  C8_15
REMARK    7  A    between atoms: C8_15  and  C9_16
REMARK    8  A    between atoms: C12_19  and  O4_20
REMARK    9  A    between atoms: O4_20  and  C13_21
REMARK   10  A    between atoms: C19_27  and  O5_28
REMARK   11  A    between atoms: C20_30  and  O6_31
REMARK   12  A    between atoms: C21_33  and  S1_34
REMARK   13  A    between atoms: S1_34  and  C22_37
ROOT
HETATM    1  C5  UNL     1       5.967   8.234  20.666  1.00  0.00     0.180 C
HETATM    2  C6  UNL     1       5.715   6.757  20.655  1.00  0.00     0.147 C
HETATM    3  C12 UNL     1       4.238   6.584  20.355  1.00  0.00     0.178 C
HETATM    4  C19 UNL     1       3.922   7.023  18.939  1.00  0.00     0.179 C
HETATM    5  C20 UNL     1       4.472   8.366  18.605  1.00  0.00     0.170 C
HETATM    6  C21 UNL     1       5.212   9.054  19.687  1.00  0.00     0.177 C
ENDROOT
BRANCH   1   7
HETATM    7  O2  UNL     1       7.371   8.469  20.607  1.00  0.00    -0.295 OA
BRANCH   7   8
HETATM    8  C4  UNL     1       8.135   8.884  21.689  1.00  0.00     0.361 C
HETATM    9  N1  UNL     1       7.762   8.616  23.033  1.00  0.00    -0.333 N
ATOM     10  H1  UNL     1       6.904   8.106  23.244  1.00  0.00     0.165 HD
HETATM   11  O1  UNL     1       9.199   9.522  21.429  1.00  0.00    -0.238 OA
BRANCH   9  12
HETATM   12  C3  UNL     1       8.626   9.082  24.093  1.00  0.00     0.151 C
BRANCH  12  13
HETATM   13  C2  UNL     1       8.079   8.676  25.411  1.00  0.00    -0.018 C
HETATM   14  C1  UNL     1       8.881   8.588  26.463  1.00  0.00     0.008 C
ENDBRANCH  12  13
ENDBRANCH   9  12
ENDBRANCH   7   8
ENDBRANCH   1   7
BRANCH   2  15
HETATM   15  N2  UNL     1       6.579   6.031  19.801  1.00  0.00    -0.351 N
HETATM   16  C7  UNL     1       7.323   4.921  20.217  1.00  0.00     0.218 C
HETATM   17  O3  UNL     1       7.181   4.569  21.442  1.00  0.00    -0.274 OA
ATOM     18  H2  UNL     1       6.664   6.333  18.830  1.00  0.00     0.163 HD
BRANCH  16  19
HETATM   19  C8  UNL     1       8.214   4.205  19.307  1.00  0.00     0.106 C
BRANCH  19  20
HETATM   20  C9  UNL     1       8.078   2.708  19.317  1.00  0.00    -0.014 C
HETATM   21  C10 UNL     1       6.823   2.166  18.746  1.00  0.00     0.010 C
HETATM   22  C11 UNL     1       9.245   2.041  18.595  1.00  0.00     0.010 C
ENDBRANCH  19  20
ENDBRANCH  16  19
ENDBRANCH   2  15
BRANCH   6  23
HETATM   23  S1  UNL     1       6.241  10.375  18.997  1.00  0.00     0.214 S
HETATM   24  O7  UNL     1       7.560   9.885  18.543  1.00  0.00    -0.222 OA
HETATM   25  O8  UNL     1       5.568  11.087  17.893  1.00  0.00    -0.222 OA
BRANCH  23  26
HETATM   26  C22 UNL     1       6.573  11.576  20.294  1.00  0.00     0.473 C
HETATM   27  F1  UNL     1       5.650  12.593  20.124  1.00  0.00    -0.197 F
HETATM   28  F2  UNL     1       7.844  12.055  20.070  1.00  0.00    -0.197 F
ENDBRANCH  23  26
ENDBRANCH   6  23
BRANCH   3  29
HETATM   29  O4  UNL     1       3.856   5.314  20.630  1.00  0.00    -0.376 OA
BRANCH  29  30
HETATM   30  C13 UNL     1       3.588   4.991  21.939  1.00  0.00     0.122 C
HETATM   31  C14 UNL     1       4.211   3.726  22.437  1.00  0.00     0.032 C
HETATM   32  C15 UNL     1       3.282   2.741  23.054  1.00  0.00     0.002 C
HETATM   33  C16 UNL     1       2.261   3.284  23.988  1.00  0.00     0.000 C
HETATM   34  C17 UNL     1       2.061   4.795  23.813  1.00  0.00     0.002 C
HETATM   35  C18 UNL     1       2.151   5.027  22.317  1.00  0.00     0.032 C
ENDBRANCH  29  30
ENDBRANCH   3  29
BRANCH   5  36
HETATM   36  O6  UNL     1       5.161   8.301  17.377  1.00  0.00    -0.391 OA
ATOM     37  H6  UNL     1       6.088   8.447  17.525  1.00  0.00     0.210 HD
ENDBRANCH   5  36
BRANCH   4  38
HETATM   38  O5  UNL     1       2.555   6.953  18.695  1.00  0.00    -0.390 OA
ATOM     39  H5  UNL     1       2.090   7.613  19.196  1.00  0.00     0.210 HD
ENDBRANCH   4  38
TORSDOF 13
ENDMDL