MODEL 1
REMARK VINA RESULT: -8.411266518      0.000      0.000
REMARK  11 active torsions:
REMARK  status: ('A' for Active; 'I' for Inactive)
REMARK    1  A    between atoms: C4_4  and  N1_5
REMARK    2  A    between atoms: N1_5  and  C5_7
REMARK    3  A    between atoms: C8_12  and  N3_13
REMARK    4  A    between atoms: N3_13  and  C9_15
REMARK    5  A    between atoms: C9_15  and  S1_16
REMARK    6  A    between atoms: S1_16  and  C10_17
REMARK    7  A    between atoms: C10_17  and  C11_18
REMARK       I    between atoms: C11_18  and  N4_20
REMARK    8  A    between atoms: N4_20  and  N5_22
REMARK    9  A    between atoms: N5_22  and  S2_24
REMARK   10  A    between atoms: S2_24  and  C12_27
REMARK   11  A    between atoms: C15_31  and  N6_32
ROOT
HETATM    1  C11 UNL     1       3.331   6.001  23.559  1.00  0.00     0.245 C
HETATM    2  O1  UNL     1       3.139   4.790  23.799  1.00  0.00    -0.271 OA
HETATM    3  N4  UNL     1       4.392   6.395  22.697  1.00  0.00    -0.260 N
ATOM      4  H4  UNL     1       4.553   7.382  22.497  1.00  0.00     0.190 HD
ENDROOT
BRANCH   1   5
HETATM    5  C10 UNL     1       2.434   6.997  24.192  1.00  0.00     0.180 C
BRANCH   5   6
HETATM    6  S1  UNL     1       3.185   8.643  23.947  1.00  0.00    -0.140 SA
BRANCH   6   7
HETATM    7  C9  UNL     1       4.227   9.053  25.401  1.00  0.00     0.212 C
BRANCH   7   8
HETATM    8  N3  UNL     1       5.374   8.221  25.339  1.00  0.00    -0.217 N
ATOM      9  H3  UNL     1       5.228   7.217  25.441  1.00  0.00     0.178 HD
BRANCH   8  10
HETATM   10  C8  UNL     1       6.574   8.623  25.168  1.00  0.00     0.680 A
HETATM   11  N2  UNL     1       6.763   9.323  24.011  1.00  0.00    -0.177 N
HETATM   12  C4  UNL     1       7.971   9.811  23.678  1.00  0.00     0.119 A
ATOM     13  H2  UNL     1       5.972   9.479  23.386  1.00  0.00     0.185 HD
HETATM   14  C3  UNL     1       8.998   9.565  24.567  1.00  0.00     0.073 A
HETATM   15  C2  UNL     1       8.829   8.860  25.741  1.00  0.00     0.026 A
HETATM   16  C1  UNL     1       9.932   8.599  26.693  1.00  0.00     0.069 C
HETATM   17  N7  UNL     1       7.596   8.400  26.015  1.00  0.00    -0.196 N
ATOM     18  H7  UNL     1       7.433   7.876  26.874  1.00  0.00     0.184 HD
BRANCH  12  19
HETATM   19  N1  UNL     1       8.123  10.468  22.580  1.00  0.00    -0.371 N
ATOM     20  H1  UNL     1       9.075  10.738  22.333  1.00  0.00     0.161 HD
BRANCH  19  21
HETATM   21  C5  UNL     1       7.098  10.850  21.682  1.00  0.00     0.083 A
HETATM   22  C6  UNL     1       7.328  10.651  20.224  1.00  0.00     0.027 A
HETATM   23  C7  UNL     1       7.307  12.021  20.754  1.00  0.00     0.027 A
ENDBRANCH  19  21
ENDBRANCH  12  19
ENDBRANCH   8  10
ENDBRANCH   7   8
ENDBRANCH   6   7
ENDBRANCH   5   6
ENDBRANCH   1   5
BRANCH   3  24
HETATM   24  N5  UNL     1       5.211   5.416  22.127  1.00  0.00    -0.220 N
ATOM     25  H5  UNL     1       5.963   4.952  22.635  1.00  0.00     0.200 HD
BRANCH  24  26
HETATM   26  S2  UNL     1       4.829   5.070  20.493  1.00  0.00     0.279 S
HETATM   27  O2  UNL     1       3.438   4.508  20.438  1.00  0.00    -0.199 OA
HETATM   28  O3  UNL     1       4.838   6.336  19.676  1.00  0.00    -0.199 OA
BRANCH  26  29
HETATM   29  C12 UNL     1       5.942   3.925  19.793  1.00  0.00     0.124 A
HETATM   30  C13 UNL     1       6.442   2.907  20.578  1.00  0.00     0.061 A
HETATM   31 CL1  UNL     1       6.000   2.713  22.266  1.00  0.00    -0.083 Cl
HETATM   32  C14 UNL     1       7.320   1.994  20.027  1.00  0.00     0.061 A
HETATM   33  C15 UNL     1       7.666   2.140  18.699  1.00  0.00     0.106 A
HETATM   34  C16 UNL     1       7.162   3.165  17.916  1.00  0.00     0.061 A
HETATM   35  C17 UNL     1       6.283   4.086  18.449  1.00  0.00     0.061 A
HETATM   36 CL2  UNL     1       5.624   5.396  17.493  1.00  0.00    -0.083 Cl
BRANCH  33  37
HETATM   37  N6  UNL     1       8.575   1.193  18.124  1.00  0.00    -0.116 N
HETATM   38  O4  UNL     1       8.314   0.690  17.018  1.00  0.00    -0.532 OA
HETATM   39  O5  UNL     1       9.714   0.826  18.760  1.00  0.00    -0.532 OA
ENDBRANCH  33  37
ENDBRANCH  26  29
ENDBRANCH  24  26
ENDBRANCH   3  24
TORSDOF 11
ENDMDL