MODEL 4
REMARK VINA RESULT: -6.886031829      4.218      7.355
REMARK  11 active torsions:
REMARK  status: ('A' for Active; 'I' for Inactive)
REMARK    1  A    between atoms: C2_2  and  N1_3
REMARK    2  A    between atoms: C2_2  and  C12_27
REMARK       I    between atoms: N1_3  and  C3_5
REMARK    3  A    between atoms: C3_5  and  C4_7
REMARK    4  A    between atoms: C4_7  and  C6_9
REMARK    5  A    between atoms: C4_7  and  N2_12
REMARK    6  A    between atoms: C6_9  and  O2_10
REMARK       I    between atoms: N2_12  and  C7_14
REMARK    7  A    between atoms: C7_14  and  C8_16
REMARK    8  A    between atoms: C8_16  and  N3_17
REMARK       I    between atoms: N3_17  and  C9_19
REMARK    9  A    between atoms: C9_19  and  C10_21
REMARK   10  A    between atoms: C10_21  and  N4_24
REMARK   11  A    between atoms: C13_30  and  C14_31
ROOT
HETATM    1  C4  UNL     1       6.903   9.797  20.999  1.00  0.00     0.131 C
HETATM    2  C5  UNL     1       6.866  11.261  20.617  1.00  0.00     0.051 C
ENDROOT
BRANCH   1   3
HETATM    3  C3  UNL     1       5.766   9.093  20.274  1.00  0.00     0.248 C
HETATM    4  N1  UNL     1       6.030   8.295  19.134  1.00  0.00    -0.347 N
ATOM      5  H1  UNL     1       6.987   8.192  18.797  1.00  0.00     0.163 HD
HETATM    6  O1  UNL     1       4.622   9.266  20.747  1.00  0.00    -0.271 OA
BRANCH   4   7
HETATM    7  C2  UNL     1       4.965   7.638  18.458  1.00  0.00     0.155 C
HETATM    8  C1  UNL     1       4.795   8.155  17.046  1.00  0.00     0.041 C
BRANCH   7   9
HETATM    9  C12 UNL     1       5.192   6.155  18.392  1.00  0.00     0.148 A
HETATM   10  N5  UNL     1       6.333   5.515  18.709  1.00  0.00    -0.338 N
HETATM   11  C13 UNL     1       6.163   4.188  18.527  1.00  0.00     0.060 A
ATOM     12  H5  UNL     1       7.189   5.963  19.034  1.00  0.00     0.167 HD
HETATM   13  C18 UNL     1       4.865   4.049  18.083  1.00  0.00     0.147 A
HETATM   14 BR1  UNL     1       4.000   2.412  17.640  1.00  0.00    -0.021 Br
HETATM   15  O7  UNL     1       4.343   5.249  18.024  1.00  0.00    -0.286 OA
BRANCH  11  16
HETATM   16  C14 UNL     1       7.170   3.093  18.756  1.00  0.00    -0.005 C
HETATM   17  C15 UNL     1       6.783   2.200  19.891  1.00  0.00     0.021 C
HETATM   18  C16 UNL     1       8.487   3.774  19.138  1.00  0.00     0.021 C
HETATM   19  C17 UNL     1       7.423   2.316  17.496  1.00  0.00     0.021 C
ENDBRANCH  11  16
ENDBRANCH   7   9
ENDBRANCH   4   7
ENDBRANCH   1   3
BRANCH   1  20
HETATM   20  C6  UNL     1       8.195   9.130  20.577  1.00  0.00     0.204 C
BRANCH  20  21
HETATM   21  O2  UNL     1       9.322   9.488  21.222  1.00  0.00    -0.398 OA
ATOM     22  H2  UNL     1      10.115   9.003  21.027  1.00  0.00     0.209 HD
ENDBRANCH  20  21
ENDBRANCH   1  20
BRANCH   1  23
HETATM   23  N2  UNL     1       6.636   9.675  22.411  1.00  0.00    -0.340 N
HETATM   24  C7  UNL     1       6.930   8.555  23.222  1.00  0.00     0.236 C
HETATM   25  O3  UNL     1       7.477   7.549  22.751  1.00  0.00    -0.272 OA
ATOM     26  H2  UNL     1       6.194  10.472  22.867  1.00  0.00     0.163 HD
BRANCH  24  27
HETATM   27  C8  UNL     1       6.567   8.608  24.666  1.00  0.00     0.225 C
BRANCH  27  28
HETATM   28  N3  UNL     1       5.272   7.972  24.918  1.00  0.00    -0.349 N
HETATM   29  C9  UNL     1       4.082   8.632  24.543  1.00  0.00     0.268 C
HETATM   30  O4  UNL     1       4.197   9.795  23.990  1.00  0.00    -0.269 OA
ATOM     31  H3  UNL     1       5.230   7.055  25.363  1.00  0.00     0.163 HD
BRANCH  29  32
HETATM   32  C10 UNL     1       2.715   8.165  24.700  1.00  0.00     0.247 C
HETATM   33  C11 UNL     1       1.791   8.923  23.726  1.00  0.00     0.074 C
HETATM   34 CL1  UNL     1       2.120   8.596  26.348  1.00  0.00    -0.079 Cl
BRANCH  32  35
HETATM   35  N4  UNL     1       2.504   6.787  24.535  1.00  0.00    -0.120 N
HETATM   36  O5  UNL     1       3.278   5.959  24.102  1.00  0.00    -0.534 OA
HETATM   37  O6  UNL     1       1.251   6.292  24.933  1.00  0.00    -0.534 OA
ENDBRANCH  32  35
ENDBRANCH  29  32
ENDBRANCH  27  28
ENDBRANCH  24  27
ENDBRANCH   1  23
TORSDOF 11
ENDMDL