MODEL 2
REMARK VINA RESULT: -5.909348952      2.742      6.042
REMARK  12 active torsions:
REMARK  status: ('A' for Active; 'I' for Inactive)
REMARK    1  A    between atoms: C2_2  and  C3_3
REMARK    2  A    between atoms: N1_6  and  C6_8
REMARK    3  A    between atoms: C6_8  and  N2_10
REMARK    4  A    between atoms: N2_10  and  C7_11
REMARK    5  A    between atoms: N2_10  and  C12_17
REMARK    6  A    between atoms: C7_11  and  C8_12
REMARK    7  A    between atoms: C8_12  and  C9_13
REMARK    8  A    between atoms: C9_13  and  N3_14
REMARK    9  A    between atoms: C12_17  and  C13_18
REMARK   10  A    between atoms: C13_18  and  C14_19
REMARK   11  A    between atoms: C14_19  and  C15_20
REMARK   12  A    between atoms: C23_29  and  O2_30
ROOT
HETATM    1  C3  UNL     1     -29.463  30.308   4.139  1.00  0.00     0.014 C
HETATM    2  C4  UNL     1     -29.716  29.442   5.078  1.00  0.00     0.006 A
HETATM    3  C5  UNL     1     -28.632  28.840   5.929  1.00  0.00     0.097 A
HETATM    4  N1  UNL     1     -27.419  28.992   5.957  1.00  0.00    -0.329 N
ATOM      5  H1  UNL     1     -27.071  28.384   6.698  1.00  0.00     0.168 HD
HETATM    6  C19 UNL     1     -29.338  27.909   6.836  1.00  0.00     0.210 A
HETATM    7  O1  UNL     1     -28.792  27.195   7.719  1.00  0.00    -0.285 OA
HETATM    8  C20 UNL     1     -30.755  27.944   6.556  1.00  0.00     0.028 A
HETATM    9  C21 UNL     1     -31.788  27.243   7.156  1.00  0.00     0.019 A
HETATM   10  C22 UNL     1     -33.076  27.446   6.714  1.00  0.00     0.038 A
HETATM   11  C23 UNL     1     -33.361  28.325   5.696  1.00  0.00     0.069 A
HETATM   12  C25 UNL     1     -32.288  29.017   5.113  1.00  0.00     0.050 A
HETATM   13  C26 UNL     1     -30.978  28.853   5.514  1.00  0.00    -0.007 A
ENDROOT
BRANCH   4  14
HETATM   14  C6  UNL     1     -26.337  29.612   5.437  1.00  0.00     0.178 C
HETATM   15  S1  UNL     1     -25.994  31.074   6.269  1.00  0.00    -0.040 SA
BRANCH  14  16
HETATM   16  N2  UNL     1     -25.459  29.342   4.395  1.00  0.00    -0.338 N
BRANCH  16  17
HETATM   17  C7  UNL     1     -25.197  30.452   3.427  1.00  0.00     0.132 C
BRANCH  17  18
HETATM   18  C8  UNL     1     -26.341  30.694   2.511  1.00  0.00     0.050 C
BRANCH  18  19
HETATM   19  C9  UNL     1     -26.600  32.210   2.548  1.00  0.00     0.273 C
BRANCH  19  20
HETATM   20  N3  UNL     1     -27.133  32.676   1.305  1.00  0.00     0.080 N
HETATM   21  C10 UNL     1     -28.061  33.740   1.539  1.00  0.00     0.309 C
HETATM   22  C11 UNL     1     -26.043  33.077   0.445  1.00  0.00     0.309 C
ENDBRANCH  19  20
ENDBRANCH  18  19
ENDBRANCH  17  18
ENDBRANCH  16  17
BRANCH  16  23
HETATM   23  C12 UNL     1     -24.726  28.176   4.116  1.00  0.00     0.066 C
BRANCH  23  24
HETATM   24  C13 UNL     1     -25.204  27.057   3.302  1.00  0.00     0.045 C
BRANCH  24  25
HETATM   25  C14 UNL     1     -26.399  26.336   3.863  1.00  0.00     0.013 C
BRANCH  25  26
HETATM   26  C15 UNL     1     -27.581  26.283   2.945  1.00  0.00    -0.051 C
HETATM   27  C16 UNL     1     -27.264  25.248   1.871  1.00  0.00     0.014 C
HETATM   28  C17 UNL     1     -27.960  27.564   2.290  1.00  0.00     0.014 C
HETATM   29  C18 UNL     1     -28.767  25.763   3.769  1.00  0.00     0.014 C
ENDBRANCH  25  26
ENDBRANCH  24  25
ENDBRANCH  23  24
ENDBRANCH  16  23
ENDBRANCH  14  16
ENDBRANCH   4  14
BRANCH   1  30
HETATM   30  C2  UNL     1     -30.292  31.015   3.211  1.00  0.00    -0.009 C
HETATM   31  C1  UNL     1     -30.262  30.761   1.898  1.00  0.00     0.011 C
ENDBRANCH   1  30
BRANCH  11  32
HETATM   32  O2  UNL     1     -34.635  28.530   5.257  1.00  0.00    -0.356 OA
HETATM   33  C24 UNL     1     -35.132  29.674   4.634  1.00  0.00     0.210 C
ENDBRANCH  11  32
TORSDOF 12
ENDMDL