MODEL 1
REMARK VINA RESULT: -7.744989902      0.000      0.000
REMARK  9 active torsions:
REMARK  status: ('A' for Active; 'I' for Inactive)
REMARK    1  A    between atoms: C2_2  and  C3_3
REMARK    2  A    between atoms: C3_3  and  N1_4
REMARK    3  A    between atoms: C9_12  and  C10_13
REMARK    4  A    between atoms: C10_13  and  C11_14
REMARK    5  A    between atoms: C12_15  and  C14_17
REMARK    6  A    between atoms: C15_18  and  C16_19
REMARK    7  A    between atoms: C20_23  and  C21_24
REMARK    8  A    between atoms: C21_24  and  C22_25
REMARK    9  A    between atoms: C22_25  and  N2_26
ROOT
HETATM    1  C14 UNL     1     -24.922  28.809   4.434  1.00  0.00     0.005 C
HETATM    2  C15 UNL     1     -24.629  27.547   4.473  1.00  0.00     0.011 C
ENDROOT
BRANCH   1   3
HETATM    3  C12 UNL     1     -24.166  29.849   5.139  1.00  0.00    -0.066 C
HETATM    4  C11 UNL     1     -23.124  29.478   5.795  1.00  0.00    -0.016 C
HETATM    5  C13 UNL     1     -24.633  31.233   5.061  1.00  0.00     0.048 C
BRANCH   4   6
HETATM    6  C10 UNL     1     -22.137  30.173   6.602  1.00  0.00     0.057 C
BRANCH   6   7
HETATM    7  C9  UNL     1     -22.547  30.612   7.918  1.00  0.00     0.010 C
HETATM    8  C8  UNL     1     -22.000  30.191   9.035  1.00  0.00     0.080 C
HETATM    9  N1  UNL     1     -22.433  30.643  10.339  1.00  0.00    -0.311 N
HETATM   10  C7  UNL     1     -20.891  29.240   9.082  1.00  0.00     0.176 C
HETATM   11  C4  UNL     1     -21.772  30.142  11.489  1.00  0.00     0.225 C
HETATM   12  O1  UNL     1     -21.659  30.854  12.514  1.00  0.00    -0.273 OA
HETATM   13  C5  UNL     1     -21.215  28.786  11.495  1.00  0.00     0.111 C
HETATM   14  C6  UNL     1     -20.899  28.218  10.152  1.00  0.00     0.095 C
HETATM   15  O2  UNL     1     -19.958  29.269   8.263  1.00  0.00    -0.291 OA
BRANCH   9  16
HETATM   16  C3  UNL     1     -23.497  31.574  10.466  1.00  0.00     0.158 C
BRANCH  16  17
HETATM   17  C2  UNL     1     -24.745  30.945  10.996  1.00  0.00    -0.017 C
HETATM   18  C1  UNL     1     -25.204  31.169  12.227  1.00  0.00     0.008 C
ENDBRANCH  16  17
ENDBRANCH   9  16
ENDBRANCH   6   7
ENDBRANCH   4   6
ENDBRANCH   1   3
BRANCH   2  19
HETATM   19  C16 UNL     1     -25.476  26.550   3.708  1.00  0.00     0.078 C
HETATM   20  C17 UNL     1     -24.595  25.804   2.707  1.00  0.00     0.051 C
HETATM   21  C18 UNL     1     -26.523  27.276   2.900  1.00  0.00     0.069 C
HETATM   22  C19 UNL     1     -27.849  26.621   2.979  1.00  0.00    -0.019 C
HETATM   23  C20 UNL     1     -28.205  25.967   4.106  1.00  0.00    -0.058 C
HETATM   24  C28 UNL     1     -27.189  25.980   5.180  1.00  0.00     0.203 C
HETATM   25  O3  UNL     1     -25.973  25.641   4.594  1.00  0.00    -0.372 OA
BRANCH  23  26
HETATM   26  C21 UNL     1     -29.518  25.308   4.212  1.00  0.00     0.066 C
BRANCH  26  27
HETATM   27  C22 UNL     1     -30.597  26.334   4.300  1.00  0.00     0.276 C
BRANCH  27  28
HETATM   28  N2  UNL     1     -30.569  27.119   5.495  1.00  0.00     0.088 N
HETATM   29  C23 UNL     1     -31.146  26.337   6.575  1.00  0.00     0.272 C
HETATM   30  C24 UNL     1     -30.475  26.800   7.855  1.00  0.00     0.030 C
HETATM   31  C25 UNL     1     -30.270  28.301   7.719  1.00  0.00     0.003 C
HETATM   32  C26 UNL     1     -31.356  28.916   6.843  1.00  0.00     0.030 C
HETATM   33  C27 UNL     1     -31.254  28.369   5.413  1.00  0.00     0.272 C
ENDBRANCH  27  28
ENDBRANCH  26  27
ENDBRANCH  23  26
ENDBRANCH   2  19
TORSDOF 9
ENDMDL