MODEL 4
REMARK VINA RESULT: -7.485648616      1.682      3.336
REMARK  8 active torsions:
REMARK  status: ('A' for Active; 'I' for Inactive)
REMARK    1  A    between atoms: C2_2  and  S1_3
REMARK    2  A    between atoms: S1_3  and  N1_6
REMARK    3  A    between atoms: C5_9  and  C6_10
REMARK    4  A    between atoms: C6_10  and  C7_11
REMARK    5  A    between atoms: C7_11  and  C8_12
REMARK    6  A    between atoms: C8_12  and  C9_13
REMARK    7  A    between atoms: C9_13  and  C10_14
REMARK    8  A    between atoms: C10_14  and  C11_15
ROOT
HETATM    1  N1  UNL     1     -29.436  28.765   4.446  1.00  0.00    -0.310 N
HETATM    2  C3  UNL     1     -29.511  29.021   3.088  1.00  0.00     0.135 C
HETATM    3  C4  UNL     1     -28.122  29.412   2.515  1.00  0.00     0.025 C
HETATM    4  C5  UNL     1     -27.644  30.656   3.217  1.00  0.00    -0.012 C
HETATM    5  C16 UNL     1     -27.904  30.575   4.704  1.00  0.00     0.025 C
HETATM    6  C17 UNL     1     -28.190  29.105   5.030  1.00  0.00     0.135 C
ENDROOT
BRANCH   1   7
HETATM    7  S1  UNL     1     -30.406  27.635   5.225  1.00  0.00     0.236 S
HETATM    8  O1  UNL     1     -30.836  26.620   4.159  1.00  0.00    -0.205 OA
HETATM    9  O2  UNL     1     -29.474  26.955   6.203  1.00  0.00    -0.205 OA
BRANCH   7  10
HETATM   10  C2  UNL     1     -31.874  28.280   5.996  1.00  0.00     0.080 C
HETATM   11  C1  UNL     1     -32.415  27.014   6.753  1.00  0.00     0.034 C
HETATM   12  C18 UNL     1     -32.981  28.510   5.022  1.00  0.00     0.029 C
HETATM   13  C19 UNL     1     -32.733  29.435   3.901  1.00  0.00     0.034 C
HETATM   14  C20 UNL     1     -32.974  30.892   4.304  1.00  0.00     0.122 C
HETATM   15  C21 UNL     1     -31.730  31.709   4.252  1.00  0.00     0.039 C
HETATM   16  O3  UNL     1     -33.442  30.844   5.601  1.00  0.00    -0.380 OA
HETATM   17  C22 UNL     1     -31.526  32.175   5.651  1.00  0.00     0.018 C
HETATM   18  C23 UNL     1     -30.467  31.424   6.470  1.00  0.00     0.014 C
HETATM   19  C26 UNL     1     -32.596  31.475   6.444  1.00  0.00     0.130 C
HETATM   20  C24 UNL     1     -31.520  30.632   7.080  1.00  0.00     0.017 C
HETATM   21  C25 UNL     1     -31.691  29.208   7.103  1.00  0.00     0.034 C
ENDBRANCH   7  10
ENDBRANCH   1   7
BRANCH   4  22
HETATM   22  C6  UNL     1     -26.230  30.968   2.883  1.00  0.00     0.005 C
BRANCH  22  23
HETATM   23  C7  UNL     1     -25.312  29.791   2.764  1.00  0.00     0.000 C
BRANCH  23  24
HETATM   24  C8  UNL     1     -24.539  29.520   4.033  1.00  0.00     0.000 C
BRANCH  24  25
HETATM   25  C9  UNL     1     -24.431  28.051   4.315  1.00  0.00     0.000 C
BRANCH  25  26
HETATM   26  C10 UNL     1     -25.543  27.252   3.688  1.00  0.00     0.004 C
BRANCH  26  27
HETATM   27  C11 UNL     1     -25.065  26.120   2.821  1.00  0.00    -0.014 C
HETATM   28  C12 UNL     1     -25.430  26.303   1.368  1.00  0.00     0.004 C
HETATM   29  C13 UNL     1     -26.917  26.287   1.399  1.00  0.00     0.000 C
HETATM   30  C14 UNL     1     -27.237  25.211   2.410  1.00  0.00     0.000 C
HETATM   31  C15 UNL     1     -25.942  24.925   3.162  1.00  0.00     0.004 C
ENDBRANCH  26  27
ENDBRANCH  25  26
ENDBRANCH  24  25
ENDBRANCH  23  24
ENDBRANCH  22  23
ENDBRANCH   4  22
TORSDOF 8
ENDMDL