MODEL 3
REMARK VINA RESULT: -6.987402458      2.670      4.719
REMARK  9 active torsions:
REMARK  status: ('A' for Active; 'I' for Inactive)
REMARK    1  A    between atoms: C2_2  and  C3_3
REMARK    2  A    between atoms: C3_3  and  N1_4
REMARK    3  A    between atoms: N1_4  and  C4_5
REMARK    4  A    between atoms: N1_4  and  C7_8
REMARK    5  A    between atoms: C4_5  and  C5_6
REMARK    6  A    between atoms: C7_8  and  C8_9
REMARK    7  A    between atoms: C8_9  and  C9_10
REMARK    8  A    between atoms: C9_10  and  O1_11
REMARK    9  A    between atoms: O1_11  and  C10_12
ROOT
HETATM    1  C10 UNL     1     -23.549  31.025   6.156  1.00  0.00     0.069 A
HETATM    2  C11 UNL     1     -24.213  31.147   7.397  1.00  0.00     0.037 A
HETATM    3  C12 UNL     1     -23.554  30.666   8.528  1.00  0.00     0.015 A
HETATM    4  C13 UNL     1     -22.315  30.098   8.440  1.00  0.00    -0.022 A
HETATM    5  C14 UNL     1     -21.702  29.634   9.619  1.00  0.00     0.043 A
HETATM    6  C15 UNL     1     -20.457  29.065   9.553  1.00  0.00     0.046 A
HETATM    7  N2  UNL     1     -19.824  28.954   8.351  1.00  0.00    -0.355 N
HETATM    8  C16 UNL     1     -20.423  29.403   7.209  1.00  0.00     0.103 A
HETATM    9  C17 UNL     1     -21.667  29.973   7.253  1.00  0.00    -0.008 A
HETATM   10  C18 UNL     1     -22.299  30.448   6.087  1.00  0.00     0.050 A
HETATM   11  C19 UNL     1     -18.482  28.441   8.258  1.00  0.00     0.133 C
HETATM   12  C20 UNL     1     -18.142  27.464   9.303  1.00  0.00     0.060 C
HETATM   13  C21 UNL     1     -18.656  27.800  10.647  1.00  0.00    -0.043 A
HETATM   14  C22 UNL     1     -17.968  27.348  11.760  1.00  0.00     0.009 A
HETATM   15  C23 UNL     1     -18.495  27.578  13.000  1.00  0.00     0.019 A
HETATM   16  C24 UNL     1     -19.693  28.250  13.120  1.00  0.00     0.048 A
HETATM   17  C25 UNL     1     -20.417  28.723  12.014  1.00  0.00    -0.005 A
HETATM   18  C26 UNL     1     -19.856  28.476  10.773  1.00  0.00     0.007 A
HETATM   19  C27 UNL     1     -21.611  29.375  12.554  1.00  0.00     0.219 A
HETATM   20  O2  UNL     1     -21.536  29.287  13.989  1.00  0.00    -0.313 OA
HETATM   21  C28 UNL     1     -20.400  28.606  14.341  1.00  0.00     0.294 A
HETATM   22  O3  UNL     1     -20.072  28.358  15.534  1.00  0.00    -0.259 OA
ENDROOT
BRANCH   1  23
HETATM   23  O1  UNL     1     -24.254  31.516   5.081  1.00  0.00    -0.351 OA
BRANCH  23  24
HETATM   24  C9  UNL     1     -25.410  30.952   4.565  1.00  0.00     0.180 C
BRANCH  24  25
HETATM   25  C8  UNL     1     -25.275  29.593   3.971  1.00  0.00     0.071 C
BRANCH  25  26
HETATM   26  C7  UNL     1     -26.511  28.998   3.384  1.00  0.00     0.065 C
BRANCH  26  27
HETATM   27  N1  UNL     1     -26.780  27.644   3.585  1.00  0.00    -0.374 N
BRANCH  27  28
HETATM   28  C3  UNL     1     -25.831  26.660   3.259  1.00  0.00     0.062 C
BRANCH  28  29
HETATM   29  C2  UNL     1     -25.678  26.279   1.823  1.00  0.00     0.040 C
HETATM   30  C1  UNL     1     -26.992  25.940   1.137  1.00  0.00     0.010 C
ENDBRANCH  28  29
ENDBRANCH  27  28
BRANCH  27  31
HETATM   31  C4  UNL     1     -27.763  27.253   4.529  1.00  0.00     0.126 C
BRANCH  31  32
HETATM   32  C5  UNL     1     -27.923  25.795   4.781  1.00  0.00     0.016 C
HETATM   33  C6  UNL     1     -29.300  25.399   4.222  1.00  0.00     0.006 C
ENDBRANCH  31  32
ENDBRANCH  27  31
ENDBRANCH  26  27
ENDBRANCH  25  26
ENDBRANCH  24  25
ENDBRANCH  23  24
ENDBRANCH   1  23
TORSDOF 9
ENDMDL