MODEL 3
REMARK VINA RESULT: -6.699141118      3.002      5.102
REMARK  9 active torsions:
REMARK  status: ('A' for Active; 'I' for Inactive)
REMARK    1  A    between atoms: C10_11  and  C11_12
REMARK    2  A    between atoms: C11_12  and  N2_13
REMARK    3  A    between atoms: N2_13  and  C12_14
REMARK    4  A    between atoms: N2_13  and  C16_18
REMARK    5  A    between atoms: C12_14  and  C13_15
REMARK    6  A    between atoms: C13_15  and  C14_16
REMARK    7  A    between atoms: C16_18  and  C17_19
REMARK    8  A    between atoms: C17_19  and  C18_20
REMARK    9  A    between atoms: C20_22  and  C21_23
ROOT
HETATM    1  C1  UNL     1     -24.993  28.966   4.257  1.00  0.00     0.015 C
HETATM    2  C2  UNL     1     -26.144  29.441   3.882  1.00  0.00    -0.078 C
HETATM    3  C3  UNL     1     -26.196  30.839   3.388  1.00  0.00     0.060 C
HETATM    4  C4  UNL     1     -27.344  31.674   3.885  1.00  0.00     0.096 C
HETATM    5  N1  UNL     1     -26.819  32.504   4.935  1.00  0.00    -0.407 N
HETATM    6  C5  UNL     1     -26.702  33.887   4.633  1.00  0.00     0.144 C
HETATM    7  C6  UNL     1     -27.271  32.208   6.244  1.00  0.00     0.079 C
HETATM    8  C7  UNL     1     -26.850  30.847   6.667  1.00  0.00     0.025 C
HETATM    9  C8  UNL     1     -27.612  29.692   6.196  1.00  0.00     0.009 C
HETATM   10  C9  UNL     1     -28.258  29.640   4.873  1.00  0.00     0.014 C
HETATM   11  C10 UNL     1     -27.452  28.760   3.877  1.00  0.00     0.057 C
HETATM   12  C20 UNL     1     -28.599  30.924   4.248  1.00  0.00     0.012 C
HETATM   13  C28 UNL     1     -29.459  31.687   5.289  1.00  0.00     0.019 C
HETATM   14  C29 UNL     1     -28.757  32.305   6.400  1.00  0.00     0.026 C
ENDROOT
BRANCH  11  15
HETATM   15  C11 UNL     1     -27.591  27.377   4.256  1.00  0.00     0.072 C
BRANCH  15  16
HETATM   16  N2  UNL     1     -28.308  26.384   3.568  1.00  0.00    -0.373 N
BRANCH  16  17
HETATM   17  C12 UNL     1     -29.367  25.702   4.157  1.00  0.00     0.063 C
BRANCH  17  18
HETATM   18  C13 UNL     1     -30.652  26.361   4.499  1.00  0.00     0.044 C
BRANCH  18  19
HETATM   19  C14 UNL     1     -30.672  26.637   6.014  1.00  0.00     0.001 C
HETATM   20  C15 UNL     1     -31.263  27.999   6.321  1.00  0.00     0.005 C
ENDBRANCH  18  19
ENDBRANCH  17  18
ENDBRANCH  16  17
BRANCH  16  21
HETATM   21  C16 UNL     1     -27.433  25.546   2.834  1.00  0.00     0.127 C
BRANCH  21  22
HETATM   22  C17 UNL     1     -27.057  25.887   1.452  1.00  0.00     0.020 C
BRANCH  22  23
HETATM   23  C18 UNL     1     -25.550  26.277   1.522  1.00  0.00    -0.003 C
HETATM   24  C19 UNL     1     -24.901  25.651   2.728  1.00  0.00     0.005 C
ENDBRANCH  22  23
ENDBRANCH  21  22
ENDBRANCH  16  21
ENDBRANCH  15  16
ENDBRANCH  11  15
BRANCH  12  25
HETATM   25  C21 UNL     1     -29.551  30.903   3.114  1.00  0.00    -0.044 A
HETATM   26  C22 UNL     1     -30.593  29.986   3.206  1.00  0.00     0.011 A
HETATM   27  C23 UNL     1     -31.534  29.869   2.177  1.00  0.00     0.040 A
HETATM   28  C24 UNL     1     -31.471  30.642   1.051  1.00  0.00     0.105 A
HETATM   29  C25 UNL     1     -30.439  31.552   0.958  1.00  0.00     0.105 A
HETATM   30  O2  UNL     1     -32.210  30.789  -0.123  1.00  0.00    -0.323 OA
HETATM   31  C26 UNL     1     -29.521  31.656   1.975  1.00  0.00     0.047 A
HETATM   32  O1  UNL     1     -30.549  32.230  -0.240  1.00  0.00    -0.323 OA
HETATM   33  C27 UNL     1     -31.417  31.465  -1.101  1.00  0.00     0.352 C
ENDBRANCH  12  25
TORSDOF 9
ENDMDL