MODEL 5
REMARK VINA RESULT: -7.933374465      2.627      4.171
REMARK  7 active torsions:
REMARK  status: ('A' for Active; 'I' for Inactive)
REMARK    1  A    between atoms: C2_2  and  C3_3
REMARK    2  A    between atoms: C4_4  and  C5_5
REMARK    3  A    between atoms: C6_6  and  C7_7
REMARK    4  A    between atoms: C7_7  and  C8_8
REMARK    5  A    between atoms: C8_8  and  C9_9
REMARK    6  A    between atoms: C9_9  and  C10_10
REMARK    7  A    between atoms: C10_10  and  N1_11
ROOT
HETATM    1  N1  UNL     1     -25.149  29.139   4.707  1.00  0.00    -0.314 N
HETATM    2  C11 UNL     1     -24.132  29.522   5.639  1.00  0.00     0.248 C
HETATM    3  O1  UNL     1     -22.916  29.492   5.319  1.00  0.00    -0.271 OA
HETATM    4  C12 UNL     1     -24.453  29.969   7.014  1.00  0.00     0.279 C
HETATM    5  O2  UNL     1     -25.685  30.665   7.004  1.00  0.00    -0.340 OA
HETATM    6  C13 UNL     1     -26.724  30.334   6.149  1.00  0.00     0.097 A
HETATM    7  C14 UNL     1     -28.032  30.735   6.394  1.00  0.00     0.056 A
HETATM    8  C15 UNL     1     -29.024  30.383   5.519  1.00  0.00     0.041 A
HETATM    9  C16 UNL     1     -28.791  29.632   4.378  1.00  0.00    -0.040 A
HETATM   10  C17 UNL     1     -27.477  29.232   4.138  1.00  0.00     0.040 A
HETATM   11  C18 UNL     1     -26.463  29.576   5.006  1.00  0.00     0.071 A
HETATM   12  C19 UNL     1     -29.623  29.124   3.292  1.00  0.00     0.040 C
HETATM   13  C20 UNL     1     -30.698  28.175   3.646  1.00  0.00     0.007 C
HETATM   14  C21 UNL     1     -31.718  28.594   4.628  1.00  0.00     0.037 C
HETATM   15  C22 UNL     1     -32.207  29.992   4.564  1.00  0.00     0.154 C
HETATM   16  S1  UNL     1     -33.982  30.212   4.709  1.00  0.00    -0.138 SA
HETATM   17  C23 UNL     1     -33.892  31.664   5.845  1.00  0.00     0.120 C
HETATM   18  C24 UNL     1     -32.630  31.323   6.550  1.00  0.00     0.079 C
HETATM   19  N2  UNL     1     -31.670  30.741   5.697  1.00  0.00    -0.313 N
HETATM   20  C25 UNL     1     -30.295  30.947   6.044  1.00  0.00     0.259 C
HETATM   21  O3  UNL     1     -30.096  31.763   6.977  1.00  0.00    -0.267 OA
ENDROOT
BRANCH   1  22
HETATM   22  C10 UNL     1     -24.815  28.357   3.544  1.00  0.00     0.132 C
BRANCH  22  23
HETATM   23  C9  UNL     1     -24.648  26.921   3.947  1.00  0.00     0.021 C
BRANCH  23  24
HETATM   24  C8  UNL     1     -24.931  25.929   2.877  1.00  0.00     0.005 C
BRANCH  24  25
HETATM   25  C7  UNL     1     -26.172  26.206   2.072  1.00  0.00     0.027 C
BRANCH  25  26
HETATM   26  C6  UNL     1     -27.366  25.490   2.479  1.00  0.00    -0.027 C
HETATM   27  C5  UNL     1     -28.137  25.657   3.681  1.00  0.00    -0.004 C
BRANCH  27  28
HETATM   28  C4  UNL     1     -27.790  25.452   5.064  1.00  0.00    -0.004 C
HETATM   29  C3  UNL     1     -28.691  25.495   6.188  1.00  0.00    -0.027 C
BRANCH  29  30
HETATM   30  C2  UNL     1     -29.421  26.688   6.608  1.00  0.00     0.022 C
HETATM   31  C1  UNL     1     -29.388  26.880   8.114  1.00  0.00     0.009 C
ENDBRANCH  29  30
ENDBRANCH  27  28
ENDBRANCH  25  26
ENDBRANCH  24  25
ENDBRANCH  23  24
ENDBRANCH  22  23
ENDBRANCH   1  22
TORSDOF 7
ENDMDL