MODEL 1
REMARK VINA RESULT: -6.720562231      0.000      0.000
REMARK  9 active torsions:
REMARK  status: ('A' for Active; 'I' for Inactive)
REMARK    1  A    between atoms: C2_2  and  C3_3
REMARK    2  A    between atoms: C3_3  and  C4_4
REMARK    3  A    between atoms: C4_4  and  C5_5
REMARK    4  A    between atoms: C5_5  and  C6_6
REMARK    5  A    between atoms: C6_6  and  O1_7
REMARK    6  A    between atoms: O1_7  and  C7_8
REMARK    7  A    between atoms: C8_9  and  O2_10
REMARK    8  A    between atoms: C18_20  and  O3_21
REMARK    9  A    between atoms: C21_24  and  O4_25
ROOT
HETATM    1  C7  UNL     1     -24.227  29.654   4.660  1.00  0.00     0.109 A
HETATM    2  C8  UNL     1     -23.450  30.025   5.733  1.00  0.00     0.102 A
HETATM    3  C10 UNL     1     -23.750  31.196   6.355  1.00  0.00     0.040 A
HETATM    4  C11 UNL     1     -24.803  31.963   5.904  1.00  0.00     0.011 A
HETATM    5  C12 UNL     1     -25.597  31.581   4.810  1.00  0.00    -0.044 A
HETATM    6  C13 UNL     1     -25.307  30.413   4.181  1.00  0.00    -0.011 A
HETATM    7  C14 UNL     1     -26.078  29.891   3.015  1.00  0.00     0.077 C
HETATM    8  C15 UNL     1     -27.487  29.503   3.293  1.00  0.00    -0.064 C
HETATM    9  C16 UNL     1     -27.679  29.145   4.714  1.00  0.00     0.044 C
HETATM   10  C17 UNL     1     -28.541  30.273   2.633  1.00  0.00     0.027 A
HETATM   11  C18 UNL     1     -29.757  29.567   2.463  1.00  0.00     0.083 A
HETATM   12  C20 UNL     1     -30.837  30.092   1.791  1.00  0.00     0.075 A
HETATM   13  C21 UNL     1     -30.760  31.353   1.251  1.00  0.00     0.079 A
HETATM   14  C23 UNL     1     -29.580  32.040   1.416  1.00  0.00     0.005 A
HETATM   15  C24 UNL     1     -28.473  31.512   2.105  1.00  0.00     0.056 A
HETATM   16  N1  UNL     1     -27.497  32.510   2.138  1.00  0.00    -0.359 N
HETATM   17  C25 UNL     1     -26.747  32.941   3.062  1.00  0.00     0.069 C
HETATM   18  C26 UNL     1     -26.666  32.519   4.460  1.00  0.00     0.084 C
HETATM   19  C27 UNL     1     -27.630  33.135   0.777  1.00  0.00     0.133 C
HETATM   20  C28 UNL     1     -29.179  33.375   0.845  1.00  0.00     0.064 C
ENDROOT
BRANCH   1  21
HETATM   21  O1  UNL     1     -23.891  28.437   4.036  1.00  0.00    -0.348 OA
BRANCH  21  22
HETATM   22  C6  UNL     1     -24.602  27.299   4.443  1.00  0.00     0.176 C
BRANCH  22  23
HETATM   23  C5  UNL     1     -24.264  26.071   3.663  1.00  0.00     0.027 C
BRANCH  23  24
HETATM   24  C4  UNL     1     -25.387  25.473   2.888  1.00  0.00     0.002 C
BRANCH  24  25
HETATM   25  C3  UNL     1     -25.689  26.236   1.626  1.00  0.00    -0.000 C
BRANCH  25  26
HETATM   26  C2  UNL     1     -27.200  26.253   1.459  1.00  0.00    -0.005 C
HETATM   27  C1  UNL     1     -27.874  25.630   2.683  1.00  0.00     0.005 C
ENDBRANCH  25  26
ENDBRANCH  24  25
ENDBRANCH  23  24
ENDBRANCH  22  23
ENDBRANCH  21  22
ENDBRANCH   1  21
BRANCH   2  28
HETATM   28  O2  UNL     1     -22.389  29.257   6.188  1.00  0.00    -0.353 OA
HETATM   29  C9  UNL     1     -21.314  29.832   6.906  1.00  0.00     0.210 C
ENDBRANCH   2  28
BRANCH  11  30
HETATM   30  O3  UNL     1     -29.868  28.300   2.991  1.00  0.00    -0.355 OA
HETATM   31  C19 UNL     1     -30.882  28.047   3.935  1.00  0.00     0.210 C
ENDBRANCH  11  30
BRANCH  13  32
HETATM   32  O4  UNL     1     -31.845  31.913   0.559  1.00  0.00    -0.355 OA
HETATM   33  C22 UNL     1     -32.003  31.595  -0.828  1.00  0.00     0.210 C
ENDBRANCH  13  32
TORSDOF 9
ENDMDL