MODEL 3
REMARK VINA RESULT: -7.191292117      1.312      1.598
REMARK  9 active torsions:
REMARK  status: ('A' for Active; 'I' for Inactive)
REMARK    1  A    between atoms: N1_6  and  C6_7
REMARK    2  A    between atoms: C6_7  and  C7_8
REMARK    3  A    between atoms: C7_8  and  C8_9
REMARK    4  A    between atoms: C8_9  and  C9_10
REMARK    5  A    between atoms: C9_10  and  O1_11
REMARK    6  A    between atoms: O1_11  and  C10_12
REMARK    7  A    between atoms: C13_17  and  C14_18
REMARK    8  A    between atoms: C19_23  and  C20_24
REMARK    9  A    between atoms: C20_24  and  N3_25
ROOT
HETATM    1  C10 UNL     1     -30.541  30.372   2.631  1.00  0.00     0.149 C
HETATM    2  N2  UNL     1     -30.199  29.345   1.952  1.00  0.00    -0.367 N
ATOM      3  H2  UNL     1     -30.984  28.855   1.522  1.00  0.00     0.161 HD
HETATM    4  C11 UNL     1     -28.913  28.743   1.678  1.00  0.00     0.163 C
HETATM    5  C12 UNL     1     -28.048  28.645   2.867  1.00  0.00     0.001 A
HETATM    6  C13 UNL     1     -27.198  27.575   2.761  1.00  0.00    -0.044 A
HETATM    7  C17 UNL     1     -26.295  27.410   3.810  1.00  0.00     0.009 A
HETATM    8  C18 UNL     1     -26.257  28.274   4.902  1.00  0.00     0.016 A
HETATM    9  C19 UNL     1     -27.107  29.336   5.005  1.00  0.00     0.013 A
HETATM   10  C23 UNL     1     -28.017  29.508   3.951  1.00  0.00     0.090 A
HETATM   11  O2  UNL     1     -28.782  30.633   4.245  1.00  0.00    -0.331 OA
HETATM   12  C24 UNL     1     -29.655  31.296   3.378  1.00  0.00     0.125 C
HETATM   13  C25 UNL     1     -30.512  32.204   4.242  1.00  0.00     0.055 C
HETATM   14  C26 UNL     1     -28.882  32.202   2.438  1.00  0.00     0.055 C
ENDROOT
BRANCH   1  15
HETATM   15  O1  UNL     1     -31.903  30.564   2.608  1.00  0.00    -0.337 OA
BRANCH  15  16
HETATM   16  C9  UNL     1     -32.868  29.696   3.057  1.00  0.00     0.177 C
BRANCH  16  17
HETATM   17  C8  UNL     1     -33.416  29.827   4.423  1.00  0.00     0.028 C
BRANCH  17  18
HETATM   18  C7  UNL     1     -32.484  29.262   5.490  1.00  0.00     0.022 C
BRANCH  18  19
HETATM   19  C6  UNL     1     -32.360  27.782   5.428  1.00  0.00     0.128 C
BRANCH  19  20
HETATM   20  N1  UNL     1     -31.278  27.355   6.291  1.00  0.00    -0.360 N
HETATM   21  C5  UNL     1     -31.242  27.764   7.566  1.00  0.00     0.091 A
HETATM   22  C4  UNL     1     -30.229  27.371   8.391  1.00  0.00     0.018 A
HETATM   23  C3  UNL     1     -29.242  26.552   7.911  1.00  0.00     0.010 A
HETATM   24  C2  UNL     1     -29.260  26.124   6.615  1.00  0.00    -0.040 A
HETATM   25  C1  UNL     1     -28.194  25.228   6.054  1.00  0.00     0.050 C
HETATM   26  C27 UNL     1     -30.304  26.543   5.803  1.00  0.00     0.013 A
HETATM   27  C28 UNL     1     -30.320  26.083   4.409  1.00  0.00     0.069 C
ENDBRANCH  19  20
ENDBRANCH  18  19
ENDBRANCH  17  18
ENDBRANCH  16  17
ENDBRANCH  15  16
ENDBRANCH   1  15
BRANCH   6  28
HETATM   28  C14 UNL     1     -27.175  26.579   1.675  1.00  0.00     0.011 C
HETATM   29  C15 UNL     1     -25.717  26.385   1.218  1.00  0.00     0.015 C
HETATM   30  C16 UNL     1     -27.532  25.217   2.293  1.00  0.00     0.015 C
ENDBRANCH   6  28
BRANCH   9  31
HETATM   31  C20 UNL     1     -27.103  30.285   6.136  1.00  0.00     0.098 C
BRANCH  31  32
HETATM   32  N3  UNL     1     -25.946  31.017   6.393  1.00  0.00    -0.398 N
HETATM   33  C21 UNL     1     -25.200  30.788   7.567  1.00  0.00     0.148 C
HETATM   34  C22 UNL     1     -25.294  31.683   5.327  1.00  0.00     0.148 C
ENDBRANCH  31  32
ENDBRANCH   9  31
TORSDOF 9
ENDMDL