MODEL 1
REMARK VINA RESULT: -7.381063004      0.000      0.000
REMARK  9 active torsions:
REMARK  status: ('A' for Active; 'I' for Inactive)
REMARK    1  A    between atoms: O1_2  and  C2_3
REMARK    2  A    between atoms: C7_8  and  N1_9
REMARK    3  A    between atoms: N2_19  and  C16_20
REMARK    4  A    between atoms: C16_20  and  C17_21
REMARK    5  A    between atoms: C17_21  and  C18_22
REMARK    6  A    between atoms: C18_22  and  C19_23
REMARK    7  A    between atoms: C19_23  and  N3_24
REMARK    8  A    between atoms: N3_24  and  C21_26
REMARK    9  A    between atoms: C21_26  and  C22_27
ROOT
HETATM    1  C2  UNL     1     -29.585  27.476   3.871  1.00  0.00     0.097 A
HETATM    2  C3  UNL     1     -30.823  28.081   3.957  1.00  0.00     0.069 A
HETATM    3  C4  UNL     1     -31.182  29.205   3.243  1.00  0.00     0.048 A
HETATM    4  C5  UNL     1     -30.230  29.751   2.388  1.00  0.00     0.001 A
HETATM    5  C6  UNL     1     -28.977  29.168   2.278  1.00  0.00     0.047 A
HETATM    6  C7  UNL     1     -28.671  28.045   3.017  1.00  0.00     0.071 A
HETATM    7  C14 UNL     1     -30.812  30.836   1.801  1.00  0.00    -0.023 A
HETATM    8  C15 UNL     1     -32.095  30.948   2.290  1.00  0.00     0.019 A
HETATM    9  N2  UNL     1     -32.302  29.938   3.173  1.00  0.00    -0.349 N
HETATM   10  C25 UNL     1     -32.894  32.084   1.762  1.00  0.00     0.058 C
HETATM   11  C26 UNL     1     -32.827  31.955   0.239  1.00  0.00     0.006 C
HETATM   12  C27 UNL     1     -31.434  31.881  -0.284  1.00  0.00     0.005 C
HETATM   13  C28 UNL     1     -30.380  31.849   0.813  1.00  0.00     0.041 C
ENDROOT
BRANCH   9  14
HETATM   14  C16 UNL     1     -33.507  29.709   3.894  1.00  0.00     0.129 C
BRANCH  14  15
HETATM   15  C17 UNL     1     -33.719  30.700   5.040  1.00  0.00     0.022 C
BRANCH  15  16
HETATM   16  C18 UNL     1     -33.156  30.036   6.281  1.00  0.00     0.021 C
BRANCH  16  17
HETATM   17  C19 UNL     1     -32.020  30.796   6.874  1.00  0.00     0.121 C
BRANCH  17  18
HETATM   18  N3  UNL     1     -30.889  29.887   7.020  1.00  0.00    -0.397 N
HETATM   19  C20 UNL     1     -29.754  30.424   6.446  1.00  0.00     0.148 C
BRANCH  18  20
HETATM   20  C21 UNL     1     -31.212  28.578   7.256  1.00  0.00     0.062 C
BRANCH  20  21
HETATM   21  C22 UNL     1     -30.522  27.716   8.246  1.00  0.00     0.024 A
HETATM   22  C23 UNL     1     -30.376  26.214   7.945  1.00  0.00     0.010 A
HETATM   23  C24 UNL     1     -29.206  27.081   8.055  1.00  0.00     0.010 A
ENDBRANCH  20  21
ENDBRANCH  18  20
ENDBRANCH  17  18
ENDBRANCH  16  17
ENDBRANCH  15  16
ENDBRANCH  14  15
ENDBRANCH   9  14
BRANCH   1  24
HETATM   24  O1  UNL     1     -29.269  26.344   4.611  1.00  0.00    -0.354 OA
HETATM   25  C1  UNL     1     -29.738  25.059   4.343  1.00  0.00     0.210 C
ENDBRANCH   1  24
BRANCH   6  26
HETATM   26  N1  UNL     1     -27.373  27.490   2.873  1.00  0.00    -0.315 N
HETATM   27  C8  UNL     1     -27.243  26.553   1.801  1.00  0.00     0.132 C
HETATM   28  C9  UNL     1     -25.897  25.887   1.802  1.00  0.00     0.020 C
HETATM   29  C10 UNL     1     -25.409  25.626   3.190  1.00  0.00     0.002 C
HETATM   30  C11 UNL     1     -24.360  26.633   3.627  1.00  0.00     0.009 C
HETATM   31  C12 UNL     1     -24.969  28.026   3.721  1.00  0.00     0.103 C
HETATM   32  C13 UNL     1     -26.433  27.967   3.818  1.00  0.00     0.224 C
HETATM   33  O2  UNL     1     -26.898  28.417   4.922  1.00  0.00    -0.273 OA
ENDBRANCH   6  26
TORSDOF 9
ENDMDL