MODEL 3
REMARK VINA RESULT: -6.431775201      1.031      1.121
REMARK  11 active torsions:
REMARK  status: ('A' for Active; 'I' for Inactive)
REMARK    1  A    between atoms: N1_2  and  C3_4
REMARK    2  A    between atoms: C3_4  and  C4_5
REMARK    3  A    between atoms: C4_5  and  C5_6
REMARK    4  A    between atoms: C5_6  and  C6_7
REMARK    5  A    between atoms: C6_7  and  O1_8
REMARK    6  A    between atoms: O1_8  and  C7_9
REMARK    7  A    between atoms: C9_11  and  N2_12
REMARK    8  A    between atoms: C14_17  and  C15_18
REMARK    9  A    between atoms: C19_22  and  C20_23
REMARK   10  A    between atoms: C21_24  and  C22_25
REMARK   11  A    between atoms: C25_28  and  N3_29
ROOT
HETATM    1  C7  UNL     1     -30.386  27.971  42.213  1.00  0.00     0.082 A
HETATM    2  C8  UNL     1     -31.657  28.483  42.487  1.00  0.00     0.066 A
HETATM    3  C9  UNL     1     -31.946  29.834  42.380  1.00  0.00     0.032 A
HETATM    4  C12 UNL     1     -30.910  30.666  41.985  1.00  0.00     0.030 A
HETATM    5  C13 UNL     1     -29.659  30.167  41.715  1.00  0.00     0.017 A
HETATM    6  C14 UNL     1     -29.341  28.835  41.813  1.00  0.00     0.008 A
ENDROOT
BRANCH   6   7
HETATM    7  C15 UNL     1     -27.996  28.337  41.569  1.00  0.00    -0.022 A
HETATM    8  C16 UNL     1     -27.668  27.441  40.581  1.00  0.00     0.012 A
HETATM    9  C17 UNL     1     -26.400  26.946  40.407  1.00  0.00     0.002 A
HETATM   10  C18 UNL     1     -25.381  27.323  41.218  1.00  0.00     0.020 A
HETATM   11  C19 UNL     1     -25.685  28.246  42.251  1.00  0.00     0.018 A
HETATM   12  C30 UNL     1     -26.956  28.732  42.410  1.00  0.00     0.033 A
BRANCH  11  13
HETATM   13  C20 UNL     1     -24.628  28.626  43.149  1.00  0.00    -0.061 C
HETATM   14  C21 UNL     1     -23.751  28.991  43.925  1.00  0.00    -0.061 C
BRANCH  14  15
HETATM   15  C22 UNL     1     -22.753  29.455  44.841  1.00  0.00     0.018 A
HETATM   16  C23 UNL     1     -22.362  28.811  45.985  1.00  0.00     0.023 A
HETATM   17  C24 UNL     1     -21.382  29.294  46.830  1.00  0.00     0.031 A
HETATM   18  C25 UNL     1     -20.747  30.478  46.532  1.00  0.00     0.029 A
HETATM   19  C28 UNL     1     -21.109  31.152  45.394  1.00  0.00     0.031 A
HETATM   20  C29 UNL     1     -22.080  30.655  44.575  1.00  0.00     0.023 A
BRANCH  18  21
HETATM   21  N3  UNL     1     -19.722  31.006  47.379  1.00  0.00    -0.390 N
HETATM   22  C26 UNL     1     -19.188  30.151  48.411  1.00  0.00     0.149 C
HETATM   23  C27 UNL     1     -19.204  32.348  47.263  1.00  0.00     0.149 C
ENDBRANCH  18  21
ENDBRANCH  14  15
ENDBRANCH  11  13
ENDBRANCH   6   7
BRANCH   1  24
HETATM   24  O1  UNL     1     -30.093  26.667  42.305  1.00  0.00    -0.350 OA
BRANCH  24  25
HETATM   25  C6  UNL     1     -30.081  25.755  43.277  1.00  0.00     0.175 C
BRANCH  25  26
HETATM   26  C5  UNL     1     -28.782  25.489  43.962  1.00  0.00     0.028 C
BRANCH  26  27
HETATM   27  C4  UNL     1     -28.881  25.875  45.443  1.00  0.00     0.032 C
BRANCH  27  28
HETATM   28  C3  UNL     1     -30.260  26.449  45.662  1.00  0.00     0.271 C
BRANCH  28  29
HETATM   29  N1  UNL     1     -30.163  27.752  46.299  1.00  0.00     0.080 N
HETATM   30  C1  UNL     1     -31.443  28.440  46.313  1.00  0.00     0.309 C
HETATM   31  C2  UNL     1     -29.130  28.557  45.705  1.00  0.00     0.309 C
ENDBRANCH  28  29
ENDBRANCH  27  28
ENDBRANCH  26  27
ENDBRANCH  25  26
ENDBRANCH  24  25
ENDBRANCH   1  24
BRANCH   3  32
HETATM   32  N2  UNL     1     -33.244  30.339  42.658  1.00  0.00    -0.389 N
HETATM   33  C10 UNL     1     -34.344  29.888  41.831  1.00  0.00     0.149 C
HETATM   34  C11 UNL     1     -33.474  31.285  43.726  1.00  0.00     0.149 C
ENDBRANCH   3  32
TORSDOF 11
ENDMDL