MODEL 1
REMARK VINA RESULT: -6.983671208      0.000      0.000
REMARK  11 active torsions:
REMARK  status: ('A' for Active; 'I' for Inactive)
REMARK    1  A    between atoms: O1_2  and  C2_3
REMARK    2  A    between atoms: N2_12  and  C9_13
REMARK    3  A    between atoms: C9_13  and  C10_14
REMARK    4  A    between atoms: C10_14  and  C11_15
REMARK    5  A    between atoms: C11_15  and  C12_16
REMARK    6  A    between atoms: C15_19  and  C16_20
REMARK    7  A    between atoms: C17_21  and  C18_22
REMARK    8  A    between atoms: C18_22  and  N3_23
REMARK    9  A    between atoms: N3_23  and  C20_25
REMARK   10  A    between atoms: C20_25  and  C21_26
REMARK   11  A    between atoms: C21_26  and  C22_27
ROOT
HETATM    1  C12 UNL     1     -27.952  26.711  41.160  1.00  0.00    -0.058 A
HETATM    2  C13 UNL     1     -28.230  26.844  42.517  1.00  0.00     0.008 A
HETATM    3  C14 UNL     1     -28.878  27.936  43.036  1.00  0.00     0.021 A
HETATM    4  C15 UNL     1     -29.270  28.945  42.175  1.00  0.00     0.017 A
HETATM    5  C29 UNL     1     -29.009  28.841  40.834  1.00  0.00     0.021 A
HETATM    6  C30 UNL     1     -28.353  27.722  40.349  1.00  0.00     0.008 A
ENDROOT
BRANCH   1   7
HETATM    7  C11 UNL     1     -27.256  25.476  40.675  1.00  0.00     0.040 C
BRANCH   7   8
HETATM    8  C10 UNL     1     -25.860  25.349  41.140  1.00  0.00     0.025 C
BRANCH   8   9
HETATM    9  C9  UNL     1     -24.915  26.468  41.003  1.00  0.00     0.130 C
BRANCH   9  10
HETATM   10  N2  UNL     1     -24.709  27.310  42.132  1.00  0.00    -0.341 N
HETATM   11  C5  UNL     1     -24.969  28.661  42.126  1.00  0.00     0.062 A
HETATM   12  C4  UNL     1     -25.464  29.432  41.096  1.00  0.00     0.035 A
HETATM   13  C6  UNL     1     -24.653  29.209  43.356  1.00  0.00     0.062 A
HETATM   14  C3  UNL     1     -25.647  30.787  41.310  1.00  0.00     0.039 A
HETATM   15  C2  UNL     1     -25.324  31.331  42.558  1.00  0.00     0.070 A
HETATM   16  C7  UNL     1     -24.834  30.562  43.577  1.00  0.00     0.068 A
HETATM   17  N1  UNL     1     -24.203  28.190  44.109  1.00  0.00    -0.350 N
HETATM   18  C8  UNL     1     -24.246  27.072  43.353  1.00  0.00     0.183 A
ATOM     19  H1  UNL     1     -23.885  28.250  45.076  1.00  0.00     0.166 HD
BRANCH  15  20
HETATM   20  O1  UNL     1     -25.512  32.692  42.760  1.00  0.00    -0.356 OA
HETATM   21  C1  UNL     1     -26.739  33.144  43.277  1.00  0.00     0.210 C
ENDBRANCH  15  20
ENDBRANCH   9  10
ENDBRANCH   8   9
ENDBRANCH   7   8
ENDBRANCH   1   7
BRANCH   4  22
HETATM   22  C16 UNL     1     -29.956  30.100  42.732  1.00  0.00    -0.065 C
HETATM   23  C17 UNL     1     -30.544  31.046  43.204  1.00  0.00    -0.071 C
BRANCH  23  24
HETATM   24  C18 UNL     1     -31.279  32.185  43.799  1.00  0.00     0.365 C
BRANCH  24  25
HETATM   25  N3  UNL     1     -32.617  31.772  44.188  1.00  0.00     0.095 N
HETATM   26  C19 UNL     1     -33.420  32.956  44.436  1.00  0.00     0.310 C
BRANCH  25  27
HETATM   27  C20 UNL     1     -32.601  30.899  45.314  1.00  0.00     0.277 C
BRANCH  27  28
HETATM   28  C21 UNL     1     -33.237  29.574  45.035  1.00  0.00     0.068 C
BRANCH  28  29
HETATM   29  C22 UNL     1     -32.250  28.495  45.325  1.00  0.00    -0.057 A
HETATM   30  C23 UNL     1     -31.219  28.776  46.232  1.00  0.00     0.007 A
HETATM   31  C24 UNL     1     -30.270  27.829  46.530  1.00  0.00     0.007 A
HETATM   32  C25 UNL     1     -30.278  26.569  45.961  1.00  0.00    -0.062 A
HETATM   33  C26 UNL     1     -29.221  25.577  46.318  1.00  0.00     0.048 C
HETATM   34  C27 UNL     1     -31.293  26.304  45.073  1.00  0.00     0.007 A
HETATM   35  C28 UNL     1     -32.270  27.247  44.753  1.00  0.00     0.007 A
ENDBRANCH  28  29
ENDBRANCH  27  28
ENDBRANCH  25  27
ENDBRANCH  24  25
ENDBRANCH  23  24
ENDBRANCH   4  22
TORSDOF 11
ENDMDL