MODEL 5
REMARK VINA RESULT: -7.094287638      5.874      9.603
REMARK  8 active torsions:
REMARK  status: ('A' for Active; 'I' for Inactive)
REMARK    1  A    between atoms: O1_2  and  C2_3
REMARK    2  A    between atoms: C6_7  and  N1_8
REMARK    3  A    between atoms: N1_8  and  C7_9
REMARK       I    between atoms: N1_8  and  C10_13
REMARK    4  A    between atoms: C7_9  and  C8_10
REMARK    5  A    between atoms: C10_13  and  C11_15
REMARK    6  A    between atoms: C14_18  and  C15_19
REMARK    7  A    between atoms: C15_19  and  N3_20
REMARK    8  A    between atoms: C18_23  and  C19_24
ROOT
HETATM    1  C8  UNL     1     -24.711  29.790  43.226  1.00  0.00     0.144 C
HETATM    2  C9  UNL     1     -24.011  28.721  43.944  1.00  0.00     0.060 C
HETATM    3  N2  UNL     1     -23.476  27.891  44.519  1.00  0.00    -0.197 NA
ENDROOT
BRANCH   1   4
HETATM    4  C7  UNL     1     -24.944  29.359  41.797  1.00  0.00     0.146 C
BRANCH   4   5
HETATM    5  N1  UNL     1     -26.344  29.183  41.532  1.00  0.00    -0.312 N
HETATM    6  C10 UNL     1     -27.285  30.204  41.317  1.00  0.00     0.275 C
HETATM    7  O2  UNL     1     -28.495  29.819  41.120  1.00  0.00    -0.265 OA
BRANCH   5   8
HETATM    8  C6  UNL     1     -26.830  27.809  41.494  1.00  0.00     0.040 A
HETATM    9  C5  UNL     1     -26.735  27.156  40.292  1.00  0.00     0.030 A
HETATM   10  C4  UNL     1     -27.193  25.834  40.224  1.00  0.00     0.005 A
HETATM   11  C3  UNL     1     -27.726  25.222  41.351  1.00  0.00     0.037 A
HETATM   12  C2  UNL     1     -27.819  25.883  42.557  1.00  0.00     0.070 A
HETATM   13  C29 UNL     1     -27.355  27.197  42.595  1.00  0.00     0.066 A
BRANCH  12  14
HETATM   14  O1  UNL     1     -28.348  25.284  43.690  1.00  0.00    -0.356 OA
HETATM   15  C1  UNL     1     -29.001  25.970  44.709  1.00  0.00     0.210 C
ENDBRANCH  12  14
ENDBRANCH   5   8
BRANCH   6  16
HETATM   16  C11 UNL     1     -26.999  31.607  41.301  1.00  0.00     0.101 A
HETATM   17  C12 UNL     1     -26.570  32.159  40.082  1.00  0.00     0.036 A
HETATM   18  C13 UNL     1     -26.291  33.489  40.038  1.00  0.00     0.012 A
HETATM   19  C14 UNL     1     -26.418  34.290  41.141  1.00  0.00    -0.025 A
HETATM   20  C28 UNL     1     -26.839  33.747  42.337  1.00  0.00     0.097 A
HETATM   21  N4  UNL     1     -27.104  32.441  42.342  1.00  0.00    -0.361 N
ATOM     22  H4  UNL     1     -27.416  32.038  43.225  1.00  0.00     0.165 HD
BRANCH  19  23
HETATM   23  C15 UNL     1     -26.116  35.744  41.104  1.00  0.00     0.167 C
BRANCH  23  24
HETATM   24  N3  UNL     1     -24.720  35.970  40.764  1.00  0.00    -0.362 N
HETATM   25  C16 UNL     1     -24.323  36.553  39.621  1.00  0.00     0.091 A
HETATM   26  C17 UNL     1     -22.995  36.764  39.313  1.00  0.00     0.029 A
HETATM   27  C18 UNL     1     -22.000  36.371  40.189  1.00  0.00    -0.023 A
HETATM   28  C26 UNL     1     -22.402  35.771  41.362  1.00  0.00     0.029 A
HETATM   29  C27 UNL     1     -23.743  35.584  41.625  1.00  0.00     0.091 A
BRANCH  27  30
HETATM   30  C19 UNL     1     -20.600  36.582  39.882  1.00  0.00    -0.026 A
HETATM   31  C20 UNL     1     -20.204  37.267  38.753  1.00  0.00     0.013 A
HETATM   32  C21 UNL     1     -18.864  37.466  38.466  1.00  0.00     0.007 A
HETATM   33  C22 UNL     1     -17.887  36.983  39.304  1.00  0.00    -0.062 A
HETATM   34  C23 UNL     1     -16.446  37.189  39.008  1.00  0.00     0.048 C
HETATM   35  C24 UNL     1     -18.261  36.293  40.442  1.00  0.00     0.007 A
HETATM   36  C25 UNL     1     -19.599  36.102  40.716  1.00  0.00     0.013 A
ENDBRANCH  27  30
ENDBRANCH  23  24
ENDBRANCH  19  23
ENDBRANCH   6  16
ENDBRANCH   4   5
ENDBRANCH   1   4
TORSDOF 8
ENDMDL