MODEL 2
REMARK VINA RESULT: -6.436462471      3.121      5.854
REMARK  9 active torsions:
REMARK  status: ('A' for Active; 'I' for Inactive)
REMARK    1  A    between atoms: C2_2  and  S1_3
REMARK    2  A    between atoms: S1_3  and  C3_4
REMARK    3  A    between atoms: C6_7  and  C7_8
REMARK    4  A    between atoms: C7_8  and  N1_9
REMARK    5  A    between atoms: N1_9  and  C8_10
REMARK    6  A    between atoms: N1_9  and  C16_23
REMARK    7  A    between atoms: N2_11  and  S2_13
REMARK    8  A    between atoms: S2_13  and  C9_16
REMARK    9  A    between atoms: C19_26  and  O3_27
ROOT
HETATM    1  N1  UNL     1     -32.124  28.161  43.885  1.00  0.00    -0.338 N
ENDROOT
BRANCH   1   2
HETATM    2  C7  UNL     1     -31.558  26.962  44.395  1.00  0.00     0.168 C
BRANCH   2   3
HETATM    3  C6  UNL     1     -30.225  26.610  43.844  1.00  0.00    -0.040 A
HETATM    4  C5  UNL     1     -29.052  27.243  44.185  1.00  0.00     0.010 A
HETATM    5  C4  UNL     1     -27.820  26.881  43.641  1.00  0.00     0.019 A
HETATM    6  C3  UNL     1     -27.729  25.855  42.724  1.00  0.00     0.000 A
HETATM    7  C24 UNL     1     -28.904  25.219  42.381  1.00  0.00     0.019 A
HETATM    8  C23 UNL     1     -30.124  25.576  42.918  1.00  0.00     0.010 A
BRANCH   6   9
HETATM    9  S1  UNL     1     -26.170  25.358  42.007  1.00  0.00    -0.130 SA
BRANCH   9  10
HETATM   10  C2  UNL     1     -25.802  26.291  40.506  1.00  0.00     0.075 C
HETATM   11  C1  UNL     1     -27.013  26.181  39.590  1.00  0.00     0.016 C
ENDBRANCH   9  10
ENDBRANCH   6   9
ENDBRANCH   2   3
ENDBRANCH   1   2
BRANCH   1  12
HETATM   12  C8  UNL     1     -31.422  28.915  42.911  1.00  0.00     0.195 C
HETATM   13  N2  UNL     1     -31.806  28.970  41.681  1.00  0.00    -0.276 N
ATOM     14  H2  UNL     1     -32.641  28.454  41.404  1.00  0.00     0.179 HD
BRANCH  13  15
HETATM   15  S2  UNL     1     -30.962  29.882  40.489  1.00  0.00     0.263 S
HETATM   16  O1  UNL     1     -30.955  29.084  39.213  1.00  0.00    -0.200 OA
HETATM   17  O2  UNL     1     -31.705  31.169  40.183  1.00  0.00    -0.200 OA
BRANCH  15  18
HETATM   18  C9  UNL     1     -29.338  30.272  41.004  1.00  0.00     0.079 A
HETATM   19  C10 UNL     1     -29.064  31.556  41.426  1.00  0.00     0.026 A
HETATM   20  C11 UNL     1     -27.762  31.838  41.830  1.00  0.00     0.008 A
HETATM   21  C12 UNL     1     -26.761  30.891  41.822  1.00  0.00    -0.062 A
HETATM   22  C13 UNL     1     -25.380  31.230  42.264  1.00  0.00     0.048 C
HETATM   23  C14 UNL     1     -27.054  29.623  41.401  1.00  0.00     0.008 A
HETATM   24  C15 UNL     1     -28.348  29.316  40.991  1.00  0.00     0.026 A
ENDBRANCH  15  18
ENDBRANCH  13  15
ENDBRANCH   1  12
BRANCH   1  25
HETATM   25  C16 UNL     1     -33.388  28.651  44.310  1.00  0.00     0.035 A
HETATM   26  C17 UNL     1     -33.651  29.992  44.508  1.00  0.00     0.032 A
HETATM   27  C18 UNL     1     -34.895  30.445  44.919  1.00  0.00     0.039 A
HETATM   28  C19 UNL     1     -35.927  29.561  45.147  1.00  0.00     0.068 A
HETATM   29  C21 UNL     1     -35.675  28.219  44.953  1.00  0.00     0.039 A
HETATM   30  C22 UNL     1     -34.436  27.771  44.545  1.00  0.00     0.032 A
BRANCH  28  31
HETATM   31  O3  UNL     1     -37.190  29.995  45.561  1.00  0.00    -0.356 OA
HETATM   32  C20 UNL     1     -37.380  30.906  46.599  1.00  0.00     0.210 C
ENDBRANCH  28  31
ENDBRANCH   1  25
TORSDOF 9
ENDMDL