MODEL 2
REMARK VINA RESULT: -7.105956363      1.660      2.338
REMARK  10 active torsions:
REMARK  status: ('A' for Active; 'I' for Inactive)
REMARK    1  A    between atoms: N1_2  and  C2_3
REMARK    2  A    between atoms: N1_2  and  C8_9
REMARK    3  A    between atoms: N2_12  and  C11_13
REMARK    4  A    between atoms: C11_13  and  C12_14
REMARK    5  A    between atoms: C12_14  and  C13_15
REMARK    6  A    between atoms: C13_15  and  C14_16
REMARK    7  A    between atoms: C14_16  and  N3_17
REMARK    8  A    between atoms: C17_20  and  O1_21
REMARK    9  A    between atoms: O1_21  and  C18_22
REMARK   10  A    between atoms: N4_33  and  O2_34
ROOT
HETATM    1  C8  UNL     1     -26.738  29.642  43.429  1.00  0.00     0.067 A
HETATM    2  C9  UNL     1     -27.660  29.298  44.433  1.00  0.00     0.049 A
HETATM    3  C10 UNL     1     -28.565  30.209  44.910  1.00  0.00     0.093 A
HETATM    4  N2  UNL     1     -28.629  31.481  44.453  1.00  0.00    -0.355 N
HETATM    5  C25 UNL     1     -27.755  31.826  43.495  1.00  0.00     0.066 A
HETATM    6  C26 UNL     1     -27.777  33.120  43.017  1.00  0.00     0.033 A
HETATM    7  C27 UNL     1     -26.898  33.565  42.040  1.00  0.00     0.022 A
HETATM    8  C28 UNL     1     -25.992  32.641  41.570  1.00  0.00     0.123 A
HETATM    9  N4  UNL     1     -25.952  31.366  42.026  1.00  0.00    -0.232 N
HETATM   10  C29 UNL     1     -26.805  30.931  42.971  1.00  0.00     0.115 A
ENDROOT
BRANCH   4  11
HETATM   11  C11 UNL     1     -29.620  32.408  44.983  1.00  0.00     0.129 C
BRANCH  11  12
HETATM   12  C12 UNL     1     -30.996  31.830  45.065  1.00  0.00     0.022 C
BRANCH  12  13
HETATM   13  C13 UNL     1     -31.824  32.498  43.990  1.00  0.00     0.022 C
BRANCH  13  14
HETATM   14  C14 UNL     1     -32.639  31.560  43.168  1.00  0.00     0.128 C
BRANCH  14  15
HETATM   15  N3  UNL     1     -31.819  30.501  42.668  1.00  0.00    -0.364 N
HETATM   16  C15 UNL     1     -30.847  30.580  41.758  1.00  0.00     0.093 A
HETATM   17  C16 UNL     1     -30.314  29.322  41.568  1.00  0.00     0.056 A
HETATM   18  C17 UNL     1     -31.006  28.468  42.403  1.00  0.00     0.092 A
HETATM   19  C24 UNL     1     -31.937  29.206  43.082  1.00  0.00     0.127 A
BRANCH  18  20
HETATM   20  O1  UNL     1     -30.730  27.108  42.472  1.00  0.00    -0.309 OA
BRANCH  20  21
HETATM   21  C18 UNL     1     -30.082  26.532  43.559  1.00  0.00     0.076 A
HETATM   22  C19 UNL     1     -30.521  26.777  44.841  1.00  0.00     0.037 A
HETATM   23  C20 UNL     1     -29.887  26.212  45.917  1.00  0.00     0.003 A
HETATM   24  C21 UNL     1     -28.800  25.388  45.754  1.00  0.00     0.000 A
HETATM   25  C22 UNL     1     -28.340  25.129  44.456  1.00  0.00     0.003 A
HETATM   26  C23 UNL     1     -28.995  25.708  43.385  1.00  0.00     0.037 A
ENDBRANCH  20  21
ENDBRANCH  18  20
ENDBRANCH  14  15
ENDBRANCH  13  14
ENDBRANCH  12  13
ENDBRANCH  11  12
ENDBRANCH   4  11
BRANCH   1  27
HETATM   27  N1  UNL     1     -25.856  28.652  42.922  1.00  0.00    -0.349 N
HETATM   28  C1  UNL     1     -24.494  28.629  43.422  1.00  0.00     0.156 C
BRANCH  27  29
HETATM   29  C2  UNL     1     -26.262  27.703  41.946  1.00  0.00     0.034 A
HETATM   30  C3  UNL     1     -27.219  27.993  40.990  1.00  0.00     0.029 A
HETATM   31  C4  UNL     1     -27.614  27.077  40.041  1.00  0.00     0.002 A
HETATM   32  C5  UNL     1     -27.050  25.819  40.026  1.00  0.00     0.000 A
HETATM   33  C6  UNL     1     -26.104  25.531  40.968  1.00  0.00     0.002 A
HETATM   34  C7  UNL     1     -25.711  26.452  41.918  1.00  0.00     0.029 A
ENDBRANCH  27  29
ENDBRANCH   1  27
BRANCH   9  35
HETATM   35  O2  UNL     1     -24.978  30.563  41.488  1.00  0.00    -0.283 OA
ATOM     36  H2  UNL     1     -25.091  29.627  41.613  1.00  0.00     0.245 HD
ENDBRANCH   9  35
TORSDOF 10
ENDMDL