MODEL 5
REMARK VINA RESULT: -7.778115414      2.414      3.917
REMARK  9 active torsions:
REMARK  status: ('A' for Active; 'I' for Inactive)
REMARK    1  A    between atoms: O1_2  and  C2_3
REMARK    2  A    between atoms: C7_8  and  C8_9
REMARK    3  A    between atoms: C8_9  and  N1_10
REMARK    4  A    between atoms: N3_19  and  C15_20
REMARK    5  A    between atoms: C15_20  and  C16_21
REMARK    6  A    between atoms: C16_21  and  C17_22
REMARK    7  A    between atoms: C17_22  and  C18_23
REMARK    8  A    between atoms: C18_23  and  C19_24
REMARK    9  A    between atoms: C19_24  and  C20_25
ROOT
HETATM    1  C20 UNL     1     -27.598  28.275  40.904  1.00  0.00    -0.047 A
HETATM    2  C21 UNL     1     -27.900  27.309  39.943  1.00  0.00     0.008 A
HETATM    3  C22 UNL     1     -27.120  26.186  39.768  1.00  0.00     0.001 A
HETATM    4  C23 UNL     1     -25.996  25.987  40.557  1.00  0.00     0.012 A
HETATM    5  C24 UNL     1     -25.682  26.934  41.514  1.00  0.00    -0.025 A
HETATM    6  C25 UNL     1     -24.561  26.701  42.287  1.00  0.00     0.014 A
HETATM    7  C26 UNL     1     -24.228  27.615  43.249  1.00  0.00     0.023 A
HETATM    8  C27 UNL     1     -24.973  28.740  43.458  1.00  0.00     0.045 A
HETATM    9  C28 UNL     1     -24.602  29.696  44.482  1.00  0.00     0.099 C
HETATM   10  N4  UNL     1     -24.318  30.467  45.299  1.00  0.00    -0.191 NA
HETATM   11  C29 UNL     1     -26.103  28.945  42.655  1.00  0.00     0.035 A
HETATM   12  C30 UNL     1     -26.486  28.066  41.677  1.00  0.00    -0.018 A
ENDROOT
BRANCH   1  13
HETATM   13  C19 UNL     1     -28.425  29.482  41.061  1.00  0.00     0.039 C
BRANCH  13  14
HETATM   14  C18 UNL     1     -29.656  29.458  40.187  1.00  0.00     0.005 C
BRANCH  14  15
HETATM   15  C17 UNL     1     -30.927  29.502  41.005  1.00  0.00     0.002 C
BRANCH  15  16
HETATM   16  C16 UNL     1     -31.247  30.872  41.518  1.00  0.00     0.022 C
BRANCH  16  17
HETATM   17  C15 UNL     1     -31.435  30.881  43.022  1.00  0.00     0.149 C
BRANCH  17  18
HETATM   18  N3  UNL     1     -30.185  30.868  43.731  1.00  0.00    -0.288 N
HETATM   19  N1  UNL     1     -29.853  29.914  44.588  1.00  0.00    -0.294 N
HETATM   20  C9  UNL     1     -28.631  30.200  45.068  1.00  0.00     0.142 A
HETATM   21  C10 UNL     1     -28.208  31.375  44.477  1.00  0.00     0.077 A
HETATM   22  N2  UNL     1     -27.087  32.124  44.575  1.00  0.00    -0.363 N
HETATM   23  C14 UNL     1     -29.206  31.795  43.626  1.00  0.00     0.079 A
HETATM   24  C11 UNL     1     -26.951  33.251  43.857  1.00  0.00     0.088 A
ATOM     25  H2  UNL     1     -26.337  31.830  45.201  1.00  0.00     0.165 HD
HETATM   26  C12 UNL     1     -27.943  33.683  43.002  1.00  0.00     0.019 A
HETATM   27  C13 UNL     1     -29.092  32.964  42.866  1.00  0.00     0.035 A
BRANCH  19  28
HETATM   28  C8  UNL     1     -30.614  28.744  44.986  1.00  0.00     0.189 C
BRANCH  28  29
HETATM   29  C7  UNL     1     -30.065  27.516  44.329  1.00  0.00    -0.005 A
HETATM   30  C2  UNL     1     -29.132  26.768  45.009  1.00  0.00     0.076 A
HETATM   31  C3  UNL     1     -28.608  25.633  44.436  1.00  0.00     0.037 A
HETATM   32  C4  UNL     1     -29.034  25.262  43.175  1.00  0.00     0.003 A
HETATM   33  C5  UNL     1     -29.968  26.011  42.492  1.00  0.00     0.001 A
HETATM   34  C6  UNL     1     -30.505  27.154  43.053  1.00  0.00     0.012 A
BRANCH  30  35
HETATM   35  O1  UNL     1     -28.744  27.189  46.270  1.00  0.00    -0.355 OA
HETATM   36  C1  UNL     1     -29.144  26.487  47.426  1.00  0.00     0.210 C
ENDBRANCH  30  35
ENDBRANCH  28  29
ENDBRANCH  19  28
ENDBRANCH  17  18
ENDBRANCH  16  17
ENDBRANCH  15  16
ENDBRANCH  14  15
ENDBRANCH  13  14
ENDBRANCH   1  13
TORSDOF 9
ENDMDL