MODEL 5
REMARK VINA RESULT: -6.207184538      1.680      2.831
REMARK  9 active torsions:
REMARK  status: ('A' for Active; 'I' for Inactive)
REMARK    1  A    between atoms: N1_3  and  C4_5
REMARK    2  A    between atoms: C4_5  and  C5_6
REMARK    3  A    between atoms: C5_6  and  C6_7
REMARK    4  A    between atoms: C9_10  and  C10_11
REMARK    5  A    between atoms: C10_11  and  C11_12
REMARK    6  A    between atoms: C11_12  and  N2_13
REMARK    7  A    between atoms: N2_13  and  C14_16
REMARK    8  A    between atoms: C14_16  and  C15_17
REMARK    9  A    between atoms: C20_24  and  O1_25
ROOT
HETATM    1  C1  UNL     1     -25.383  29.309  41.147  1.00  0.00     0.037 C
HETATM    2  C2  UNL     1     -25.535  28.111  41.099  1.00  0.00    -0.004 C
HETATM    3  N1  UNL     1     -25.708  26.733  41.069  1.00  0.00    -0.346 N
HETATM    4  C3  UNL     1     -24.652  25.876  41.539  1.00  0.00     0.160 C
ENDROOT
BRANCH   3   5
HETATM    5  C4  UNL     1     -26.943  26.191  40.571  1.00  0.00     0.136 C
BRANCH   5   6
HETATM    6  C5  UNL     1     -27.536  25.090  41.377  1.00  0.00     0.059 C
BRANCH   6   7
HETATM    7  C6  UNL     1     -28.385  25.500  42.497  1.00  0.00    -0.057 A
HETATM    8  C7  UNL     1     -29.679  25.903  42.258  1.00  0.00     0.007 A
HETATM    9  C8  UNL     1     -30.531  26.299  43.272  1.00  0.00     0.007 A
HETATM   10  C9  UNL     1     -30.090  26.296  44.570  1.00  0.00    -0.057 A
HETATM   11  C27 UNL     1     -28.806  25.901  44.848  1.00  0.00     0.007 A
HETATM   12  C28 UNL     1     -27.969  25.510  43.828  1.00  0.00     0.007 A
BRANCH  10  13
HETATM   13  C10 UNL     1     -31.026  26.727  45.664  1.00  0.00     0.066 C
BRANCH  13  14
HETATM   14  C11 UNL     1     -30.767  28.192  45.938  1.00  0.00     0.241 C
BRANCH  14  15
HETATM   15  N2  UNL     1     -31.710  29.079  45.315  1.00  0.00    -0.070 N
HETATM   16  C12 UNL     1     -31.976  30.151  46.286  1.00  0.00     0.272 C
HETATM   17  C13 UNL     1     -32.956  28.421  44.978  1.00  0.00     0.272 C
BRANCH  15  18
HETATM   18  C14 UNL     1     -31.120  29.679  44.162  1.00  0.00     0.282 C
BRANCH  18  19
HETATM   19  C15 UNL     1     -29.697  30.069  44.385  1.00  0.00     0.011 A
HETATM   20  C16 UNL     1     -28.579  29.309  44.299  1.00  0.00     0.047 A
HETATM   21  C17 UNL     1     -27.393  29.924  44.560  1.00  0.00     0.051 A
HETATM   22  N3  UNL     1     -26.143  29.350  44.533  1.00  0.00    -0.354 N
HETATM   23  C26 UNL     1     -27.439  31.249  44.884  1.00  0.00     0.033 A
HETATM   24  C18 UNL     1     -25.053  30.060  44.810  1.00  0.00     0.045 A
ATOM     25  H3  UNL     1     -26.051  28.362  44.297  1.00  0.00     0.166 HD
HETATM   26  C19 UNL     1     -23.790  29.468  44.780  1.00  0.00     0.067 A
HETATM   27  C24 UNL     1     -25.057  31.395  45.140  1.00  0.00    -0.008 A
HETATM   28  C20 UNL     1     -22.633  30.146  45.056  1.00  0.00     0.070 A
HETATM   29  C22 UNL     1     -22.670  31.487  45.385  1.00  0.00     0.038 A
HETATM   30  C23 UNL     1     -23.912  32.104  45.422  1.00  0.00     0.016 A
HETATM   31  C25 UNL     1     -26.292  32.001  45.176  1.00  0.00     0.034 A
HETATM   32  S1  UNL     1     -29.107  31.604  44.819  1.00  0.00    -0.091 SA
BRANCH  28  33
HETATM   33  O1  UNL     1     -21.383  29.488  45.009  1.00  0.00    -0.356 OA
HETATM   34  C21 UNL     1     -20.702  29.139  46.199  1.00  0.00     0.210 C
ENDBRANCH  28  33
ENDBRANCH  18  19
ENDBRANCH  15  18
ENDBRANCH  14  15
ENDBRANCH  13  14
ENDBRANCH  10  13
ENDBRANCH   6   7
ENDBRANCH   5   6
ENDBRANCH   3   5
TORSDOF 9
ENDMDL