MODEL 1
REMARK VINA RESULT: -5.877502111      0.000      0.000
REMARK  9 active torsions:
REMARK  status: ('A' for Active; 'I' for Inactive)
REMARK    1  A    between atoms: O1_2  and  C2_3
REMARK    2  A    between atoms: C5_6  and  C6_7
REMARK    3  A    between atoms: C7_8  and  C8_9
REMARK    4  A    between atoms: C11_12  and  C12_13
REMARK    5  A    between atoms: C15_16  and  N1_17
REMARK    6  A    between atoms: N2_26  and  C24_27
REMARK    7  A    between atoms: C24_27  and  C25_28
REMARK    8  A    between atoms: C25_28  and  C26_29
REMARK    9  A    between atoms: C26_29  and  N3_30
ROOT
HETATM    1  C6  UNL     1     -24.253  30.894  44.774  1.00  0.00     0.266 C
HETATM    2  C7  UNL     1     -23.176  31.307  45.621  1.00  0.00     0.085 C
HETATM    3  C23 UNL     1     -22.663  32.160  44.449  1.00  0.00     0.285 C
HETATM    4  N2  UNL     1     -24.000  32.038  43.878  1.00  0.00     0.099 N
ENDROOT
BRANCH   2   5
HETATM    5  C8  UNL     1     -22.124  30.512  46.205  1.00  0.00    -0.049 A
HETATM    6  C9  UNL     1     -20.982  30.330  45.397  1.00  0.00     0.008 A
HETATM    7  C10 UNL     1     -19.898  29.611  45.818  1.00  0.00     0.013 A
HETATM    8  C11 UNL     1     -19.856  29.012  47.077  1.00  0.00    -0.020 A
HETATM    9  C20 UNL     1     -20.965  29.185  47.870  1.00  0.00    -0.050 A
HETATM   10  C21 UNL     1     -21.002  28.556  49.231  1.00  0.00     0.049 C
HETATM   11  C22 UNL     1     -22.070  29.922  47.434  1.00  0.00     0.015 A
BRANCH   8  12
HETATM   12  C12 UNL     1     -18.674  28.267  47.493  1.00  0.00    -0.025 A
HETATM   13  C13 UNL     1     -17.617  28.939  48.043  1.00  0.00     0.014 A
HETATM   14  C14 UNL     1     -16.482  28.286  48.454  1.00  0.00     0.030 A
HETATM   15  C15 UNL     1     -16.433  26.916  48.298  1.00  0.00     0.029 A
HETATM   16  C18 UNL     1     -17.488  26.210  47.745  1.00  0.00     0.030 A
HETATM   17  C19 UNL     1     -18.604  26.913  47.347  1.00  0.00     0.014 A
BRANCH  15  18
HETATM   18  N1  UNL     1     -15.249  26.276  48.730  1.00  0.00    -0.390 N
HETATM   19  C16 UNL     1     -15.170  25.755  50.064  1.00  0.00     0.149 C
HETATM   20  C17 UNL     1     -14.131  26.147  47.838  1.00  0.00     0.149 C
ENDBRANCH  15  18
ENDBRANCH   8  12
ENDBRANCH   2   5
BRANCH   1  21
HETATM   21  C5  UNL     1     -24.385  29.695  43.992  1.00  0.00    -0.024 A
HETATM   22  C4  UNL     1     -25.054  29.808  42.761  1.00  0.00     0.012 A
HETATM   23  C3  UNL     1     -25.222  28.747  41.903  1.00  0.00     0.037 A
HETATM   24  C2  UNL     1     -24.713  27.500  42.254  1.00  0.00     0.068 A
HETATM   25  C30 UNL     1     -24.054  27.366  43.454  1.00  0.00     0.037 A
HETATM   26  C29 UNL     1     -23.895  28.466  44.313  1.00  0.00     0.012 A
BRANCH  24  27
HETATM   27  O1  UNL     1     -24.833  26.389  41.464  1.00  0.00    -0.356 OA
HETATM   28  C1  UNL     1     -25.585  26.250  40.299  1.00  0.00     0.210 C
ENDBRANCH  24  27
ENDBRANCH   1  21
BRANCH   4  29
HETATM   29  C24 UNL     1     -24.836  33.197  44.139  1.00  0.00     0.275 C
BRANCH  29  30
HETATM   30  C25 UNL     1     -25.642  33.464  42.890  1.00  0.00     0.060 C
BRANCH  30  31
HETATM   31  C26 UNL     1     -24.754  33.396  41.661  1.00  0.00     0.273 C
BRANCH  31  32
HETATM   32  N3  UNL     1     -25.338  32.535  40.622  1.00  0.00     0.080 N
HETATM   33  C27 UNL     1     -25.060  33.235  39.358  1.00  0.00     0.309 C
HETATM   34  C28 UNL     1     -26.774  32.466  40.721  1.00  0.00     0.309 C
ENDBRANCH  31  32
ENDBRANCH  30  31
ENDBRANCH  29  30
ENDBRANCH   4  29
TORSDOF 9
ENDMDL