MODEL 1
REMARK VINA RESULT: -6.975261932      0.000      0.000
REMARK  9 active torsions:
REMARK  status: ('A' for Active; 'I' for Inactive)
REMARK    1  A    between atoms: O1_2  and  C2_3
REMARK    2  A    between atoms: C2_3  and  C3_4
REMARK    3  A    between atoms: C3_4  and  S1_5
REMARK    4  A    between atoms: S1_5  and  C4_7
REMARK    5  A    between atoms: C7_10  and  C8_11
REMARK    6  A    between atoms: C9_12  and  C10_13
REMARK    7  A    between atoms: C13_16  and  O3_17
REMARK    8  A    between atoms: O3_17  and  C14_18
REMARK    9  A    between atoms: C23_28  and  O5_29
ROOT
HETATM    1  C10 UNL     1     -24.521  28.977  43.724  1.00  0.00    -0.033 A
HETATM    2  C11 UNL     1     -25.617  29.764  43.974  1.00  0.00     0.014 A
HETATM    3  C12 UNL     1     -26.877  29.482  43.452  1.00  0.00     0.041 A
HETATM    4  C13 UNL     1     -27.031  28.353  42.640  1.00  0.00     0.109 A
HETATM    5  C23 UNL     1     -25.933  27.564  42.390  1.00  0.00     0.102 A
HETATM    6  C25 UNL     1     -24.702  27.871  42.921  1.00  0.00     0.051 A
ENDROOT
BRANCH   1   7
HETATM    7  C9  UNL     1     -23.212  29.259  44.259  1.00  0.00     0.012 C
HETATM    8  C8  UNL     1     -22.863  29.005  45.494  1.00  0.00     0.012 C
BRANCH   8   9
HETATM    9  C7  UNL     1     -21.536  29.294  46.024  1.00  0.00    -0.036 A
HETATM   10  C6  UNL     1     -21.136  29.013  47.310  1.00  0.00     0.013 A
HETATM   11  C5  UNL     1     -19.848  29.312  47.773  1.00  0.00     0.022 A
HETATM   12  C4  UNL     1     -18.914  29.906  46.954  1.00  0.00     0.031 A
HETATM   13  C27 UNL     1     -19.304  30.192  45.663  1.00  0.00     0.022 A
HETATM   14  C26 UNL     1     -20.572  29.898  45.210  1.00  0.00     0.013 A
BRANCH  12  15
HETATM   15  S1  UNL     1     -17.302  30.277  47.537  1.00  0.00     0.051 S
HETATM   16  O2  UNL     1     -17.153  30.089  49.175  1.00  0.00    -0.253 OA
BRANCH  15  17
HETATM   17  C3  UNL     1     -16.080  29.246  46.744  1.00  0.00     0.140 C
BRANCH  17  18
HETATM   18  C2  UNL     1     -16.576  27.834  46.849  1.00  0.00     0.180 C
BRANCH  18  19
HETATM   19  O1  UNL     1     -16.971  27.346  45.642  1.00  0.00    -0.395 OA
HETATM   20  C1  UNL     1     -16.187  27.792  44.599  1.00  0.00     0.201 C
ENDBRANCH  18  19
ENDBRANCH  17  18
ENDBRANCH  15  17
ENDBRANCH  12  15
ENDBRANCH   8   9
ENDBRANCH   1   7
BRANCH   5  21
HETATM   21  O5  UNL     1     -26.048  26.416  41.577  1.00  0.00    -0.353 OA
HETATM   22  C24 UNL     1     -25.561  26.427  40.247  1.00  0.00     0.210 C
ENDBRANCH   5  21
BRANCH   4  23
HETATM   23  O3  UNL     1     -28.264  28.043  42.108  1.00  0.00    -0.308 OA
BRANCH  23  24
HETATM   24  C14 UNL     1     -29.294  27.613  42.925  1.00  0.00     0.077 A
HETATM   25  C15 UNL     1     -29.199  26.572  43.817  1.00  0.00     0.038 A
HETATM   26  C16 UNL     1     -30.287  26.199  44.610  1.00  0.00     0.011 A
HETATM   27  C17 UNL     1     -31.481  26.853  44.528  1.00  0.00    -0.044 A
HETATM   28  C18 UNL     1     -31.574  27.898  43.633  1.00  0.00     0.019 A
HETATM   29  C22 UNL     1     -32.753  26.647  45.252  1.00  0.00     0.047 C
HETATM   30  C19 UNL     1     -30.523  28.283  42.844  1.00  0.00     0.053 A
HETATM   31  C20 UNL     1     -32.942  28.419  43.741  1.00  0.00     0.160 C
HETATM   32  O4  UNL     1     -33.511  29.150  42.916  1.00  0.00    -0.292 OA
HETATM   33  C21 UNL     1     -33.519  27.919  45.011  1.00  0.00     0.088 C
ENDBRANCH  23  24
ENDBRANCH   4  23
TORSDOF 9
ENDMDL