MODEL 1
REMARK VINA RESULT: -6.916907364      0.000      0.000
REMARK  5 active torsions:
REMARK  status: ('A' for Active; 'I' for Inactive)
REMARK    1  A    between atoms: C4_4  and  C5_5
REMARK    2  A    between atoms: C6_6  and  C7_7
REMARK    3  A    between atoms: C9_9  and  C10_10
REMARK    4  A    between atoms: C10_10  and  C11_11
REMARK    5  A    between atoms: C11_11  and  C12_12
ROOT
HETATM    1  C12 UNL     1       3.628 -39.156   2.015  1.00  0.00     0.029 A
HETATM    2  C13 UNL     1       2.374 -39.322   1.429  1.00  0.00     0.038 A
HETATM    3  C14 UNL     1       2.207 -40.254   0.430  1.00  0.00     0.091 A
HETATM    4  N1  UNL     1       3.242 -41.001   0.018  1.00  0.00    -0.352 N
ATOM      5  H1  UNL     1       3.107 -41.689  -0.722  1.00  0.00     0.166 HD
HETATM    6  C15 UNL     1       4.476 -40.848   0.585  1.00  0.00     0.111 A
HETATM    7  C16 UNL     1       4.685 -39.928   1.586  1.00  0.00     0.010 A
HETATM    8  C17 UNL     1       5.897 -39.600   2.327  1.00  0.00     0.103 C
HETATM    9  C18 UNL     1       6.824 -40.711   2.513  1.00  0.00     0.047 A
HETATM   10  N2  UNL     1       7.577 -40.824   3.630  1.00  0.00    -0.264 N
ATOM     11  H2  UNL     1       7.567 -40.170   4.413  1.00  0.00     0.194 HD
HETATM   12  O1  UNL     1       8.303 -41.872   3.558  1.00  0.00    -0.242 OA
HETATM   13  C19 UNL     1       8.091 -42.498   2.440  1.00  0.00     0.082 A
HETATM   14  C20 UNL     1       8.788 -43.754   2.066  1.00  0.00     0.079 C
HETATM   15  C21 UNL     1       7.133 -41.770   1.732  1.00  0.00     0.016 A
HETATM   16  C22 UNL     1       6.667 -42.201   0.424  1.00  0.00     0.167 C
HETATM   17  N3  UNL     1       5.401 -41.734  -0.009  1.00  0.00    -0.367 N
HETATM   18  C23 UNL     1       4.975 -42.259  -1.292  1.00  0.00     0.151 C
ENDROOT
BRANCH   1  19
HETATM   19  C11 UNL     1       3.739 -38.164   3.052  1.00  0.00    -0.059 C
BRANCH  19  20
HETATM   20  C10 UNL     1       3.821 -37.320   3.909  1.00  0.00    -0.043 C
BRANCH  20  21
HETATM   21  C9  UNL     1       3.908 -36.322   4.954  1.00  0.00     0.090 A
HETATM   22  C8  UNL     1       4.969 -35.478   5.211  1.00  0.00     0.061 A
HETATM   23  C7  UNL     1       4.620 -34.697   6.292  1.00  0.00     0.036 A
HETATM   24  C25 UNL     1       3.349 -35.116   6.642  1.00  0.00     0.112 A
HETATM   25  N4  UNL     1       2.925 -36.096   5.830  1.00  0.00    -0.353 N
HETATM   26  C24 UNL     1       1.625 -36.778   5.905  1.00  0.00     0.156 C
BRANCH  23  27
HETATM   27  C6  UNL     1       5.436 -33.681   6.895  1.00  0.00    -0.060 C
HETATM   28  C5  UNL     1       6.109 -32.812   7.413  1.00  0.00    -0.060 C
BRANCH  28  29
HETATM   29  C4  UNL     1       6.910 -31.752   8.056  1.00  0.00     0.031 A
HETATM   30  C3  UNL     1       8.190 -31.895   8.431  1.00  0.00     0.035 A
HETATM   31  C2  UNL     1       8.802 -30.816   9.019  1.00  0.00    -0.019 A
HETATM   32  C1  UNL     1      10.230 -30.746   9.518  1.00  0.00     0.056 C
HETATM   33  S1  UNL     1       7.578 -29.636   9.030  1.00  0.00    -0.099 SA
HETATM   34  C26 UNL     1       6.328 -30.532   8.296  1.00  0.00    -0.002 A
HETATM   35  C27 UNL     1       4.926 -30.080   7.990  1.00  0.00     0.058 C
ENDBRANCH  28  29
ENDBRANCH  23  27
ENDBRANCH  20  21
ENDBRANCH  19  20
ENDBRANCH   1  19
TORSDOF 5
ENDMDL