MODEL 2
REMARK VINA RESULT: -8.019097824      2.486      8.189
REMARK  0 active torsions:
REMARK  status: ('A' for Active; 'I' for Inactive)
REMARK       I    between atoms: C2_2  and  N1_4
ROOT
HETATM    1  C1  UNL     1       2.244 -41.337  -3.231  1.00  0.00     0.117 C
HETATM    2  C2  UNL     1       2.273 -42.802  -3.067  1.00  0.00     0.221 C
HETATM    3  O1  UNL     1       2.127 -43.505  -4.099  1.00  0.00    -0.273 OA
HETATM    4  N1  UNL     1       2.452 -43.390  -1.804  1.00  0.00    -0.299 N
HETATM    5  C3  UNL     1       2.940 -42.482  -0.762  1.00  0.00     0.177 C
HETATM    6  C4  UNL     1       4.253 -43.005  -0.225  1.00  0.00     0.023 C
HETATM    7  C5  UNL     1       5.304 -42.239  -0.268  1.00  0.00     0.089 C
HETATM    8  N2  UNL     1       6.599 -42.576   0.169  1.00  0.00    -0.316 N
ATOM      9  H2  UNL     1       6.835 -43.565   0.248  1.00  0.00     0.169 HD
HETATM   10  C6  UNL     1       7.597 -41.622   0.507  1.00  0.00     0.259 C
HETATM   11  O2  UNL     1       8.723 -42.114   0.906  1.00  0.00    -0.267 OA
HETATM   12  C7  UNL     1       7.446 -40.200   0.437  1.00  0.00     0.067 A
HETATM   13  C8  UNL     1       8.476 -39.420   0.957  1.00  0.00     0.033 A
HETATM   14  C9  UNL     1       8.343 -38.032   1.039  1.00  0.00    -0.008 A
HETATM   15  C10 UNL     1       9.370 -37.256   1.557  1.00  0.00     0.014 A
HETATM   16  C11 UNL     1       9.217 -35.896   1.629  1.00  0.00     0.001 A
HETATM   17  C12 UNL     1       8.067 -35.281   1.198  1.00  0.00     0.002 A
HETATM   18  C13 UNL     1       7.071 -36.063   0.691  1.00  0.00     0.030 A
HETATM   19  C14 UNL     1       7.175 -37.446   0.596  1.00  0.00     0.043 A
HETATM   20  N3  UNL     1       6.193 -38.206   0.097  1.00  0.00    -0.349 N
ATOM     21  H3  UNL     1       5.335 -37.762  -0.227  1.00  0.00     0.166 HD
HETATM   22  C15 UNL     1       6.317 -39.548   0.014  1.00  0.00     0.092 A
HETATM   23  S1  UNL     1       5.072 -40.535  -0.797  1.00  0.00    -0.053 SA
HETATM   24  C16 UNL     1       4.343 -44.317   0.430  1.00  0.00     0.070 A
HETATM   25  N4  UNL     1       5.178 -44.312   1.484  1.00  0.00    -0.364 N
ATOM     26  H4  UNL     1       5.659 -43.440   1.704  1.00  0.00     0.165 HD
HETATM   27  C17 UNL     1       5.421 -45.371   2.263  1.00  0.00     0.088 A
HETATM   28  C18 UNL     1       4.776 -46.545   1.972  1.00  0.00     0.019 A
HETATM   29  C19 UNL     1       3.883 -46.644   0.889  1.00  0.00     0.034 A
HETATM   30  C20 UNL     1       3.686 -45.520   0.138  1.00  0.00     0.068 A
HETATM   31  N5  UNL     1       2.727 -45.734  -0.878  1.00  0.00    -0.306 N
HETATM   32  C21 UNL     1       2.177 -46.929  -1.140  1.00  0.00     0.099 A
HETATM   33  C22 UNL     1       1.258 -46.729  -2.147  1.00  0.00     0.021 A
HETATM   34  C23 UNL     1       1.256 -45.391  -2.498  1.00  0.00     0.051 A
HETATM   35  C24 UNL     1       2.193 -44.790  -1.683  1.00  0.00     0.117 A
ENDROOT
TORSDOF 0
ENDMDL