MODEL 1
REMARK VINA RESULT: -8.672728197      0.000      0.000
REMARK  1 active torsions:
REMARK  status: ('A' for Active; 'I' for Inactive)
REMARK    1  A    between atoms: O1_1  and  C1_3
ROOT
HETATM    1  C1  UNL     1       6.748 -40.168   0.973  1.00  0.00     0.157 C
HETATM    2  C2  UNL     1       6.905 -38.724   0.709  1.00  0.00     0.038 A
HETATM    3  C3  UNL     1       8.027 -38.607  -0.258  1.00  0.00     0.017 A
HETATM    4  C4  UNL     1       8.568 -37.505  -0.783  1.00  0.00     0.001 A
HETATM    5  C5  UNL     1       8.039 -36.314  -0.396  1.00  0.00     0.002 A
HETATM    6  C6  UNL     1       7.009 -36.346   0.485  1.00  0.00     0.026 A
HETATM    7  C7  UNL     1       6.444 -37.518   1.034  1.00  0.00     0.094 A
HETATM    8  S1  UNL     1       5.118 -36.861   2.115  1.00  0.00     0.269 S
HETATM    9  O2  UNL     1       5.573 -35.909   3.090  1.00  0.00    -0.200 OA
HETATM   10  O3  UNL     1       4.166 -36.066   1.252  1.00  0.00    -0.200 OA
HETATM   11  N1  UNL     1       4.307 -38.303   2.792  1.00  0.00    -0.257 N
HETATM   12  C8  UNL     1       3.142 -38.721   2.240  1.00  0.00     0.110 A
HETATM   13  C9  UNL     1       3.188 -40.120   2.318  1.00  0.00     0.036 A
HETATM   14  C10 UNL     1       4.424 -40.326   2.929  1.00  0.00     0.040 A
HETATM   15  C11 UNL     1       5.114 -39.238   3.269  1.00  0.00     0.125 A
HETATM   16  C12 UNL     1       5.278 -41.657   2.534  1.00  0.00     0.195 C
HETATM   17  N2  UNL     1       4.636 -42.691   2.674  1.00  0.00    -0.385 NA
HETATM   18  C13 UNL     1       4.138 -43.947   2.746  1.00  0.00     0.122 A
HETATM   19  C14 UNL     1       2.808 -44.237   3.061  1.00  0.00     0.045 A
HETATM   20  C15 UNL     1       2.257 -45.475   3.093  1.00  0.00     0.003 A
HETATM   21  C16 UNL     1       3.020 -46.585   2.801  1.00  0.00     0.001 A
HETATM   22  C17 UNL     1       4.340 -46.384   2.482  1.00  0.00     0.017 A
HETATM   23  C18 UNL     1       4.846 -45.144   2.462  1.00  0.00     0.031 A
HETATM   24  C19 UNL     1       6.269 -44.998   2.125  1.00  0.00     0.046 A
HETATM   25  C20 UNL     1       7.151 -45.904   1.666  1.00  0.00     0.030 A
HETATM   26  C21 UNL     1       8.469 -45.510   1.400  1.00  0.00     0.004 A
HETATM   27  C22 UNL     1       8.762 -44.152   1.644  1.00  0.00     0.027 A
HETATM   28  C23 UNL     1       7.811 -43.297   2.110  1.00  0.00     0.028 A
HETATM   29  N3  UNL     1       6.648 -43.780   2.314  1.00  0.00    -0.357 N
ATOM     30  H3  UNL     1       5.941 -43.133   2.666  1.00  0.00     0.166 HD
HETATM   31  C24 UNL     1       7.821 -41.866   2.456  1.00  0.00     0.191 C
HETATM   32  N4  UNL     1       6.577 -41.208   1.958  1.00  0.00    -0.295 N
ENDROOT
BRANCH   1  33
HETATM   33  O1  UNL     1       6.785 -40.823  -0.232  1.00  0.00    -0.345 OA
ATOM     34  H1  UNL     1       7.436 -41.511  -0.172  1.00  0.00     0.219 HD
ENDBRANCH   1  33
TORSDOF 1
ENDMDL