MODEL 1
REMARK VINA RESULT: -6.089642150      0.000      0.000
REMARK  2 active torsions:
REMARK  status: ('A' for Active; 'I' for Inactive)
REMARK    1  A    between atoms: C7_9  and  C8_10
REMARK    2  A    between atoms: C9_11  and  C10_12
ROOT
HETATM    1  C1  UNL     1       6.744 -41.892   1.531  1.00  0.00     0.170 C
HETATM    2  N1  UNL     1       5.442 -41.778   0.952  1.00  0.00    -0.273 N
HETATM    3  C2  UNL     1       4.513 -40.851   1.433  1.00  0.00     0.095 C
HETATM    4  C3  UNL     1       4.819 -39.635   1.821  1.00  0.00     0.027 C
HETATM    5  C4  UNL     1       6.144 -39.014   1.830  1.00  0.00     0.128 C
HETATM    6  S1  UNL     1       5.905 -37.191   1.696  1.00  0.00    -0.123 SA
HETATM    7  C5  UNL     1       5.121 -36.728   3.233  1.00  0.00     0.019 A
HETATM    8  C6  UNL     1       5.570 -35.764   4.089  1.00  0.00     0.040 A
HETATM    9  C7  UNL     1       4.900 -35.466   5.282  1.00  0.00     0.019 A
HETATM   10  C15 UNL     1       3.760 -36.155   5.609  1.00  0.00     0.022 A
HETATM   11  C16 UNL     1       3.269 -37.150   4.756  1.00  0.00     0.021 A
HETATM   12  C17 UNL     1       3.955 -37.413   3.593  1.00  0.00     0.022 A
HETATM   13  S2  UNL     1       3.425 -38.648   2.423  1.00  0.00    -0.090 SA
HETATM   14  S3  UNL     1       2.782 -41.390   1.464  1.00  0.00    -0.110 SA
HETATM   15  C18 UNL     1       2.473 -42.071  -0.211  1.00  0.00     0.097 C
HETATM   16  C19 UNL     1       3.361 -43.257  -0.405  1.00  0.00     0.174 C
HETATM   17  S4  UNL     1       5.088 -42.856  -0.367  1.00  0.00     0.233 S
HETATM   18  O1  UNL     1       5.882 -44.126  -0.274  1.00  0.00    -0.205 OA
HETATM   19  O2  UNL     1       5.479 -42.157  -1.634  1.00  0.00    -0.205 OA
ENDROOT
BRANCH   9  20
HETATM   20  C8  UNL     1       5.405 -34.444   6.157  1.00  0.00    -0.061 C
HETATM   21  C9  UNL     1       5.844 -33.583   6.880  1.00  0.00    -0.061 C
BRANCH  21  22
HETATM   22  C10 UNL     1       6.356 -32.549   7.735  1.00  0.00     0.020 A
HETATM   23  C11 UNL     1       5.930 -31.240   7.697  1.00  0.00     0.037 A
HETATM   24  C12 UNL     1       6.449 -30.269   8.539  1.00  0.00     0.089 A
HETATM   25  N2  UNL     1       7.393 -30.633   9.412  1.00  0.00    -0.375 N
HETATM   26  C13 UNL     1       7.856 -31.882   9.509  1.00  0.00     0.089 A
ATOM     27  H2  UNL     1       7.779 -29.923  10.035  1.00  0.00     0.164 HD
HETATM   28  C14 UNL     1       7.340 -32.843   8.671  1.00  0.00     0.037 A
ENDBRANCH  21  22
ENDBRANCH   9  20
TORSDOF 2
ENDMDL