MODEL 5
REMARK VINA RESULT: -8.187046487      3.887      6.089
REMARK  0 active torsions:
REMARK  status: ('A' for Active; 'I' for Inactive)
ROOT
HETATM    1  C1  UNL     1      -0.677 -39.276  -0.872  1.00  0.00     0.152 C
HETATM    2  N1  UNL     1       0.762 -39.447  -0.909  1.00  0.00    -0.359 N
HETATM    3  C2  UNL     1       1.514 -38.528  -0.092  1.00  0.00     0.041 A
HETATM    4  C3  UNL     1       1.072 -37.334   0.394  1.00  0.00     0.030 A
HETATM    5  C4  UNL     1       1.931 -36.528   1.125  1.00  0.00     0.003 A
HETATM    6  C5  UNL     1       3.251 -36.923   1.371  1.00  0.00     0.014 A
HETATM    7  C6  UNL     1       3.693 -38.144   0.869  1.00  0.00     0.004 A
HETATM    8  C7  UNL     1       2.802 -38.857   0.182  1.00  0.00     0.010 A
HETATM    9  C8  UNL     1       3.392 -40.165  -0.244  1.00  0.00     0.178 C
HETATM   10  C9  UNL     1       4.777 -40.020   0.069  1.00  0.00     0.065 A
HETATM   11  N2  UNL     1       5.923 -40.748  -0.126  1.00  0.00    -0.354 N
ATOM     12  H2  UNL     1       5.860 -41.610  -0.668  1.00  0.00     0.166 HD
HETATM   13  C10 UNL     1       7.117 -40.387   0.356  1.00  0.00     0.059 A
HETATM   14  C11 UNL     1       8.266 -41.120   0.159  1.00  0.00     0.032 A
HETATM   15  C12 UNL     1       9.478 -40.707   0.678  1.00  0.00     0.002 A
HETATM   16  C13 UNL     1       9.590 -39.544   1.415  1.00  0.00     0.002 A
HETATM   17  C14 UNL     1       8.442 -38.807   1.614  1.00  0.00     0.032 A
HETATM   18  C15 UNL     1       7.236 -39.228   1.091  1.00  0.00     0.059 A
HETATM   19  N3  UNL     1       6.166 -38.481   1.313  1.00  0.00    -0.352 N
ATOM     20  H3  UNL     1       6.246 -37.622   1.857  1.00  0.00     0.166 HD
HETATM   21  C16 UNL     1       4.986 -38.856   0.823  1.00  0.00     0.069 A
HETATM   22  N4  UNL     1       2.889 -40.312  -1.565  1.00  0.00    -0.308 N
HETATM   23  C17 UNL     1       3.438 -40.360  -2.881  1.00  0.00     0.259 A
HETATM   24  O1  UNL     1       4.655 -40.320  -3.058  1.00  0.00    -0.267 OA
HETATM   25  C18 UNL     1       2.353 -40.455  -3.814  1.00  0.00     0.071 A
HETATM   26  C19 UNL     1       1.150 -40.470  -3.113  1.00  0.00     0.002 A
HETATM   27  C20 UNL     1      -0.067 -40.537  -3.719  1.00  0.00     0.014 A
HETATM   28  C21 UNL     1      -0.162 -40.595  -5.084  1.00  0.00     0.032 A
HETATM   29  C22 UNL     1       1.021 -40.582  -5.804  1.00  0.00     0.061 A
HETATM   30  N5  UNL     1       1.267 -40.628  -7.135  1.00  0.00    -0.350 N
ATOM     31  H5  UNL     1       0.561 -40.684  -7.869  1.00  0.00     0.166 HD
HETATM   32  C23 UNL     1       2.582 -40.589  -7.326  1.00  0.00     0.183 A
HETATM   33  N6  UNL     1       3.229 -40.518  -6.126  1.00  0.00    -0.345 N
HETATM   34  C24 UNL     1       4.673 -40.465  -6.035  1.00  0.00     0.157 C
HETATM   35  C25 UNL     1       2.266 -40.514  -5.199  1.00  0.00     0.078 A
HETATM   36  C26 UNL     1       1.446 -40.429  -1.665  1.00  0.00     0.225 A
ENDROOT
TORSDOF 0
ENDMDL