MODEL 1
REMARK VINA RESULT: -8.878085663      0.000      0.000
REMARK  2 active torsions:
REMARK  status: ('A' for Active; 'I' for Inactive)
REMARK    1  A    between atoms: C13_19  and  C14_20
REMARK    2  A    between atoms: C15_21  and  C16_22
ROOT
HETATM    1  N1  UNL     1      -0.899 -36.703  -8.244  1.00  0.00    -0.191 NA
HETATM    2  C1  UNL     1      -0.537 -37.654  -7.673  1.00  0.00     0.099 C
HETATM    3  C2  UNL     1      -0.108 -38.830  -6.985  1.00  0.00     0.045 A
HETATM    4  C3  UNL     1       1.192 -39.029  -6.566  1.00  0.00     0.025 A
HETATM    5  C4  UNL     1       1.574 -40.188  -5.896  1.00  0.00     0.032 A
HETATM    6  C5  UNL     1       0.593 -41.094  -5.683  1.00  0.00     0.052 A
HETATM    7  C6  UNL     1      -0.734 -40.923  -6.102  1.00  0.00    -0.006 A
HETATM    8  C7  UNL     1      -1.084 -39.806  -6.743  1.00  0.00     0.034 A
HETATM    9  C8  UNL     1      -1.769 -42.014  -5.946  1.00  0.00     0.209 C
HETATM   10  O1  UNL     1      -1.217 -43.070  -6.662  1.00  0.00    -0.379 OA
HETATM   11  C9  UNL     1      -0.443 -43.977  -6.024  1.00  0.00     0.245 C
HETATM   12  C10 UNL     1       0.635 -43.493  -5.131  1.00  0.00     0.117 A
HETATM   13  N2  UNL     1       1.189 -44.470  -4.392  1.00  0.00    -0.329 N
ATOM     14  H2  UNL     1       0.891 -45.438  -4.511  1.00  0.00     0.168 HD
HETATM   15  C11 UNL     1       2.137 -44.159  -3.497  1.00  0.00     0.122 A
HETATM   16  N3  UNL     1       2.703 -45.139  -2.750  1.00  0.00    -0.350 N
ATOM     17  H3  UNL     1       2.394 -46.103  -2.883  1.00  0.00     0.166 HD
HETATM   18  C12 UNL     1       3.656 -44.881  -1.840  1.00  0.00     0.110 A
HETATM   19  C13 UNL     1       4.124 -43.590  -1.609  1.00  0.00     0.034 A
HETATM   20  C26 UNL     1       3.539 -42.608  -2.375  1.00  0.00     0.043 A
HETATM   21  C27 UNL     1       2.568 -42.862  -3.302  1.00  0.00     0.078 A
HETATM   22  C28 UNL     1       1.993 -41.850  -4.067  1.00  0.00     0.267 A
HETATM   23  O2  UNL     1       2.354 -40.692  -3.895  1.00  0.00    -0.267 OA
HETATM   24  N4  UNL     1       1.067 -42.217  -4.937  1.00  0.00    -0.265 N
ENDROOT
BRANCH  19  25
HETATM   25  C14 UNL     1       5.142 -43.310  -0.638  1.00  0.00    -0.060 C
HETATM   26  C15 UNL     1       6.009 -43.092   0.170  1.00  0.00    -0.060 C
BRANCH  26  27
HETATM   27  C16 UNL     1       7.030 -42.831   1.154  1.00  0.00     0.029 A
HETATM   28  C17 UNL     1       7.352 -43.772   2.100  1.00  0.00     0.021 A
HETATM   29  C18 UNL     1       8.334 -43.547   3.063  1.00  0.00     0.002 A
HETATM   30  C19 UNL     1       8.982 -42.336   3.037  1.00  0.00     0.012 A
HETATM   31  C20 UNL     1       8.696 -41.355   2.105  1.00  0.00    -0.025 A
HETATM   32  C21 UNL     1       9.369 -40.149   2.110  1.00  0.00     0.012 A
HETATM   33  C25 UNL     1       7.717 -41.619   1.171  1.00  0.00    -0.007 A
HETATM   34  C22 UNL     1       9.077 -39.175   1.176  1.00  0.00     0.001 A
HETATM   35  C23 UNL     1       8.085 -39.461   0.243  1.00  0.00     0.001 A
HETATM   36  C24 UNL     1       7.410 -40.660   0.230  1.00  0.00     0.014 A
ENDBRANCH  26  27
ENDBRANCH  19  25
TORSDOF 2
ENDMDL