MODEL 1
REMARK VINA RESULT: -8.578810306      0.000      0.000
REMARK  4 active torsions:
REMARK  status: ('A' for Active; 'I' for Inactive)
REMARK    1  A    between atoms: C2_2  and  O2_4
REMARK    2  A    between atoms: O2_4  and  C3_5
REMARK    3  A    between atoms: C3_5  and  C4_6
REMARK    4  A    between atoms: C5_7  and  C6_8
ROOT
HETATM    1  C6  UNL     1       2.832 -42.592  -2.766  1.00  0.00     0.084 A
HETATM    2  C7  UNL     1       3.078 -43.621  -1.855  1.00  0.00     0.115 A
HETATM    3  N1  UNL     1       3.790 -43.420  -0.743  1.00  0.00    -0.359 N
HETATM    4  C8  UNL     1       4.099 -44.456   0.222  1.00  0.00     0.156 C
HETATM    5  C9  UNL     1       4.324 -42.203  -0.423  1.00  0.00     0.041 A
HETATM    6  C10 UNL     1       4.972 -41.952   0.706  1.00  0.00     0.012 A
HETATM    7  C11 UNL     1       5.444 -40.482   0.961  1.00  0.00     0.057 A
HETATM    8  C12 UNL     1       5.234 -40.243   0.417  1.00  0.00     0.063 A
HETATM    9  N2  UNL     1       4.138 -38.880   1.345  1.00  0.00    -0.345 N
ATOM     10  H2  UNL     1       3.202 -38.635   1.020  1.00  0.00     0.163 HD
HETATM   11  C13 UNL     1       4.676 -38.300   2.410  1.00  0.00     0.253 C
HETATM   12  O3  UNL     1       4.358 -38.408   3.597  1.00  0.00    -0.268 OA
HETATM   13  C14 UNL     1       5.779 -37.386   2.266  1.00  0.00     0.043 A
HETATM   14  C15 UNL     1       6.008 -36.697   3.337  1.00  0.00     0.018 A
HETATM   15  C16 UNL     1       7.004 -35.706   3.227  1.00  0.00     0.002 A
HETATM   16  C17 UNL     1       7.662 -35.538   1.988  1.00  0.00     0.012 A
HETATM   17  C18 UNL     1       7.383 -36.303   0.862  1.00  0.00    -0.024 A
HETATM   18  C19 UNL     1       8.000 -36.150  -0.368  1.00  0.00     0.012 A
HETATM   19  C20 UNL     1       7.614 -36.982  -1.430  1.00  0.00     0.001 A
HETATM   20  C21 UNL     1       6.663 -37.940  -1.329  1.00  0.00     0.009 A
HETATM   21  C22 UNL     1       6.047 -38.082  -0.076  1.00  0.00    -0.033 A
HETATM   22  C23 UNL     1       6.421 -37.256   0.990  1.00  0.00    -0.003 A
HETATM   23  C24 UNL     1       5.270 -39.171  -0.245  1.00  0.00     0.034 A
HETATM   24  C25 UNL     1       4.653 -39.970  -0.856  1.00  0.00     0.071 A
HETATM   25  C26 UNL     1       4.103 -41.151  -1.314  1.00  0.00     0.028 A
HETATM   26  C27 UNL     1       3.379 -41.376  -2.435  1.00  0.00     0.201 A
HETATM   27  O4  UNL     1       3.185 -40.418  -3.236  1.00  0.00    -0.286 OA
ENDROOT
BRANCH   1  28
HETATM   28  C5  UNL     1       1.976 -42.839  -3.885  1.00  0.00    -0.059 C
HETATM   29  C4  UNL     1       1.281 -43.011  -4.851  1.00  0.00    -0.074 C
BRANCH  29  30
HETATM   30  C3  UNL     1       0.438 -43.179  -6.059  1.00  0.00     0.272 C
BRANCH  30  31
HETATM   31  O2  UNL     1       1.040 -42.514  -7.149  1.00  0.00    -0.310 OA
BRANCH  31  32
HETATM   32  C2  UNL     1       1.761 -41.362  -6.969  1.00  0.00     0.255 C
HETATM   33  C1  UNL     1       1.203 -40.047  -6.562  1.00  0.00     0.126 C
HETATM   34  O1  UNL     1       3.027 -41.405  -7.172  1.00  0.00    -0.266 OA
ENDBRANCH  31  32
ENDBRANCH  30  31
ENDBRANCH  29  30
ENDBRANCH   1  28
TORSDOF 4
ENDMDL