MODEL 3
REMARK VINA RESULT: -9.131303921      2.117      4.873
REMARK  0 active torsions:
REMARK  status: ('A' for Active; 'I' for Inactive)
ROOT
HETATM    1  C1  UNL     1       3.107 -42.047  -2.162  1.00  0.00     0.181 C
HETATM    2  N1  UNL     1       3.591 -41.016  -1.259  1.00  0.00    -0.261 N
HETATM    3  C2  UNL     1       4.502 -40.066  -1.791  1.00  0.00     0.272 C
HETATM    4  O1  UNL     1       4.749 -40.023  -3.032  1.00  0.00    -0.266 OA
HETATM    5  C3  UNL     1       5.128 -39.156  -0.843  1.00  0.00     0.045 A
HETATM    6  C4  UNL     1       6.028 -38.223  -1.303  1.00  0.00     0.030 A
HETATM    7  C5  UNL     1       6.624 -37.374  -0.396  1.00  0.00    -0.025 A
HETATM    8  C6  UNL     1       7.541 -36.410  -0.785  1.00  0.00     0.012 A
HETATM    9  C7  UNL     1       8.123 -35.573   0.143  1.00  0.00     0.001 A
HETATM   10  C8  UNL     1       7.818 -35.665   1.482  1.00  0.00     0.001 A
HETATM   11  C9  UNL     1       6.899 -36.633   1.867  1.00  0.00     0.012 A
HETATM   12  C10 UNL     1       6.308 -37.479   0.940  1.00  0.00    -0.025 A
HETATM   13  C11 UNL     1       5.396 -38.429   1.377  1.00  0.00     0.025 A
HETATM   14  C12 UNL     1       4.781 -39.300   0.470  1.00  0.00     0.014 A
HETATM   15  C13 UNL     1       3.815 -40.287   1.022  1.00  0.00     0.190 C
HETATM   16  C14 UNL     1       2.883 -39.533   1.894  1.00  0.00     0.051 A
HETATM   17  C15 UNL     1       2.547 -38.315   1.308  1.00  0.00     0.018 A
HETATM   18  C16 UNL     1       1.695 -37.438   1.925  1.00  0.00     0.018 A
HETATM   19  C17 UNL     1       1.158 -37.768   3.151  1.00  0.00     0.090 A
HETATM   20  N2  UNL     1       1.483 -38.941   3.710  1.00  0.00    -0.344 N
ATOM     21  H2  UNL     1       1.081 -39.178   4.616  1.00  0.00     0.167 HD
HETATM   22  C18 UNL     1       2.331 -39.834   3.117  1.00  0.00     0.181 A
HETATM   23  O2  UNL     1       2.487 -40.970   3.928  1.00  0.00    -0.217 OA
HETATM   24  N3  UNL     1       3.624 -41.745   3.894  1.00  0.00    -0.242 N
ATOM     25  H3  UNL     1       3.769 -42.313   4.729  1.00  0.00     0.196 HD
HETATM   26  C19 UNL     1       4.530 -41.880   3.002  1.00  0.00     0.143 A
HETATM   27  C20 UNL     1       5.767 -42.572   2.689  1.00  0.00     0.037 A
HETATM   28  C21 UNL     1       6.789 -43.465   3.015  1.00  0.00     0.017 A
HETATM   29  C22 UNL     1       7.848 -43.741   2.179  1.00  0.00     0.001 A
HETATM   30  C23 UNL     1       7.914 -43.105   0.950  1.00  0.00     0.002 A
HETATM   31  C24 UNL     1       6.910 -42.213   0.603  1.00  0.00     0.031 A
HETATM   32  C25 UNL     1       5.856 -41.949   1.455  1.00  0.00     0.053 A
HETATM   33  N4  UNL     1       4.625 -41.257   1.757  1.00  0.00    -0.293 N
HETATM   34  N5  UNL     1       3.143 -41.033   0.022  1.00  0.00    -0.289 N
HETATM   35  C26 UNL     1       1.733 -41.135   0.149  1.00  0.00     0.175 C
ENDROOT
TORSDOF 0
ENDMDL