MODEL 4
REMARK VINA RESULT: -7.445204335      2.145      4.107
REMARK  2 active torsions:
REMARK  status: ('A' for Active; 'I' for Inactive)
REMARK    1  A    between atoms: C2_2  and  C5_5
REMARK    2  A    between atoms: C7_12  and  O1_13
ROOT
HETATM    1  C5  UNL     1       6.032 -44.428   1.738  1.00  0.00     0.028 A
HETATM    2  C6  UNL     1       4.932 -44.067   2.451  1.00  0.00     0.056 A
HETATM    3  N1  UNL     1       4.873 -42.708   2.788  1.00  0.00    -0.288 N
ATOM      4  H1  UNL     1       4.077 -42.364   3.328  1.00  0.00     0.188 HD
HETATM    5  N2  UNL     1       5.731 -41.938   2.461  1.00  0.00    -0.233 N
ATOM      6  H2  UNL     1       5.590 -40.972   2.760  1.00  0.00     0.209 HD
HETATM    7  N3  UNL     1       6.855 -42.167   1.753  1.00  0.00    -0.215 N
HETATM    8  C7  UNL     1       6.977 -43.415   1.409  1.00  0.00     0.172 A
HETATM    9  C8  UNL     1       7.475 -40.878   1.543  1.00  0.00     0.110 A
HETATM   10  C9  UNL     1       8.490 -40.243   2.190  1.00  0.00     0.123 A
HETATM   11  N4  UNL     1       8.966 -39.014   1.945  1.00  0.00    -0.363 N
ATOM     12  H4  UNL     1       9.736 -38.628   2.491  1.00  0.00     0.165 HD
HETATM   13  C10 UNL     1       8.400 -38.315   0.963  1.00  0.00     0.045 A
HETATM   14  C11 UNL     1       8.832 -37.036   0.652  1.00  0.00     0.030 A
HETATM   15  C12 UNL     1       8.227 -36.339  -0.362  1.00  0.00     0.002 A
HETATM   16  C13 UNL     1       7.191 -36.870  -1.091  1.00  0.00     0.001 A
HETATM   17  C14 UNL     1       6.775 -38.121  -0.779  1.00  0.00     0.017 A
HETATM   18  C15 UNL     1       7.375 -38.874   0.261  1.00  0.00     0.027 A
HETATM   19  C16 UNL     1       6.854 -40.148   0.485  1.00  0.00     0.117 A
HETATM   20  O2  UNL     1       5.841 -40.659  -0.245  1.00  0.00    -0.319 OA
HETATM   21  C17 UNL     1       5.290 -41.651  -0.941  1.00  0.00     0.144 C
HETATM   22  C18 UNL     1       4.138 -42.303  -0.887  1.00  0.00     0.041 C
HETATM   23  C19 UNL     1       2.958 -42.258  -0.066  1.00  0.00     0.091 C
HETATM   24  N5  UNL     1       2.341 -43.130   0.590  1.00  0.00    -0.352 N
ATOM     25  H5  UNL     1       1.572 -42.602   1.003  1.00  0.00     0.166 HD
HETATM   26  C20 UNL     1       2.129 -44.383   1.053  1.00  0.00     0.107 A
HETATM   27  C21 UNL     1       1.164 -45.161   0.363  1.00  0.00     0.049 A
HETATM   28  C22 UNL     1       0.792 -46.432   0.677  1.00  0.00     0.005 A
HETATM   29  C23 UNL     1       1.378 -47.042   1.744  1.00  0.00     0.017 A
HETATM   30  C24 UNL     1       2.307 -46.323   2.426  1.00  0.00     0.093 A
HETATM   31  N6  UNL     1       2.691 -45.039   2.117  1.00  0.00    -0.338 N
HETATM   32  C25 UNL     1       3.665 -44.513   3.037  1.00  0.00     0.189 C
ENDROOT
BRANCH   1  33
HETATM   33  C2  UNL     1       6.394 -45.816   1.231  1.00  0.00    -0.018 C
HETATM   34  C1  UNL     1       5.809 -46.121  -0.146  1.00  0.00     0.019 C
HETATM   35  C3  UNL     1       5.762 -46.913   2.135  1.00  0.00     0.019 C
HETATM   36  C4  UNL     1       7.830 -46.184   1.278  1.00  0.00     0.019 C
ENDBRANCH   1  33
BRANCH   8  37
HETATM   37  O1  UNL     1       7.993 -43.881   0.704  1.00  0.00    -0.344 OA
ATOM     38  H1  UNL     1       7.920 -43.669  -0.219  1.00  0.00     0.219 HD
ENDBRANCH   8  37
TORSDOF 2
ENDMDL