MODEL 3
REMARK VINA RESULT: -6.475915241      3.007      6.168
REMARK  6 active torsions:
REMARK  status: ('A' for Active; 'I' for Inactive)
REMARK    1  A    between atoms: O1_2  and  C2_3
REMARK    2  A    between atoms: C2_3  and  C3_5
REMARK    3  A    between atoms: N1_6  and  N2_8
REMARK    4  A    between atoms: N2_8  and  C5_11
REMARK    5  A    between atoms: C7_15  and  N5_16
REMARK    6  A    between atoms: N5_16  and  C8_18
ROOT
HETATM    1  N2  UNL     1       7.342  18.247  37.451  1.00  0.00    -0.202 N
HETATM    2  C4  UNL     1       8.638  18.686  37.204  1.00  0.00     0.202 C
HETATM    3  N3  UNL     1       9.731  19.058  36.979  1.00  0.00    -0.170 NA
ENDROOT
BRANCH   1   4
HETATM    4  N1  UNL     1       7.156  16.903  37.759  1.00  0.00    -0.293 N
HETATM    5  C3  UNL     1       7.533  16.023  36.900  1.00  0.00     0.190 C
ATOM      6  H1  UNL     1       6.732  16.624  38.643  1.00  0.00     0.187 HD
BRANCH   5   7
HETATM    7  C2  UNL     1       7.331  14.609  37.237  1.00  0.00     0.299 C
HETATM    8  O2  UNL     1       8.261  13.769  37.080  1.00  0.00    -0.259 OA
BRANCH   7   9
HETATM    9  O1  UNL     1       6.138  14.138  37.732  1.00  0.00    -0.322 OA
HETATM   10  C1  UNL     1       5.956  13.682  39.048  1.00  0.00     0.213 C
ENDBRANCH   7   9
ENDBRANCH   5   7
ENDBRANCH   1   4
BRANCH   1  11
HETATM   11  C5  UNL     1       6.232  19.122  37.396  1.00  0.00     0.237 C
HETATM   12  C6  UNL     1       5.094  18.616  36.537  1.00  0.00     0.172 C
HETATM   13  N4  UNL     1       3.977  19.349  37.100  1.00  0.00    -0.358 N
HETATM   14  C7  UNL     1       4.243  19.709  38.318  1.00  0.00     0.178 C
ATOM     15  H4  UNL     1       3.106  19.553  36.610  1.00  0.00     0.162 HD
HETATM   16  N7  UNL     1       5.544  19.258  38.678  1.00  0.00    -0.337 N
ATOM     17  H7  UNL     1       5.910  19.074  39.612  1.00  0.00     0.164 HD
BRANCH  14  18
HETATM   18  N5  UNL     1       3.356  20.448  39.166  1.00  0.00    -0.319 N
ATOM     19  H5  UNL     1       3.646  21.322  39.604  1.00  0.00     0.170 HD
BRANCH  18  20
HETATM   20  C8  UNL     1       2.067  19.918  39.370  1.00  0.00     0.073 C
HETATM   21  C9  UNL     1       0.921  20.472  38.627  1.00  0.00     0.088 C
HETATM   22  N6  UNL     1       1.891  18.965  40.196  1.00  0.00    -0.389 N
ATOM     23  H62 UNL     1       2.683  18.581  40.711  1.00  0.00     0.157 HD
ATOM     24  H61 UNL     1       0.957  18.581  40.344  1.00  0.00     0.157 HD
ENDBRANCH  18  20
ENDBRANCH  14  18
ENDBRANCH   1  11
TORSDOF 6
ENDMDL