MODEL 4
REMARK VINA RESULT: -5.081020638      1.228      2.080
REMARK  5 active torsions:
REMARK  status: ('A' for Active; 'I' for Inactive)
REMARK    1  A    between atoms: O1_2  and  C2_3
REMARK    2  A    between atoms: C2_3  and  C3_5
REMARK    3  A    between atoms: C4_6  and  O3_7
REMARK    4  A    between atoms: C5_11  and  N2_12
REMARK    5  A    between atoms: C6_17  and  S1_18
ROOT
HETATM    1  C3  UNL     1       5.591  12.109  39.998  1.00  0.00     0.132 A
HETATM    2  C4  UNL     1       4.839  10.996  39.607  1.00  0.00     0.174 A
HETATM    3  N1  UNL     1       3.754  10.596  40.287  1.00  0.00    -0.170 N
ATOM      4  H1  UNL     1       3.236   9.777  39.965  1.00  0.00     0.186 HD
HETATM    5  C5  UNL     1       3.333  11.247  41.382  1.00  0.00     0.678 A
HETATM    6  N3  UNL     1       4.023  12.310  41.782  1.00  0.00    -0.177 N
ATOM      7  H3  UNL     1       3.715  12.815  42.612  1.00  0.00     0.185 HD
HETATM    8  C6  UNL     1       5.140  12.751  41.112  1.00  0.00     0.185 A
ENDROOT
BRANCH   1   9
HETATM    9  C2  UNL     1       6.744  12.482  39.228  1.00  0.00     0.300 C
HETATM   10  O2  UNL     1       6.566  13.165  38.149  1.00  0.00    -0.259 OA
BRANCH   9  11
HETATM   11  O1  UNL     1       8.069  12.210  39.473  1.00  0.00    -0.322 OA
HETATM   12  C1  UNL     1       8.622  10.917  39.534  1.00  0.00     0.213 C
ENDBRANCH   9  11
ENDBRANCH   1   9
BRANCH   2  13
HETATM   13  O3  UNL     1       5.278  10.318  38.467  1.00  0.00    -0.345 OA
ATOM     14  H3  UNL     1       4.717  10.369  37.702  1.00  0.00     0.219 HD
ENDBRANCH   2  13
BRANCH   8  15
HETATM   15  S1  UNL     1       5.970  14.157  41.712  1.00  0.00     0.156 S
HETATM   16  O4  UNL     1       5.268  14.799  42.870  1.00  0.00    -0.590 OA
HETATM   17  O5  UNL     1       5.949  15.257  40.631  1.00  0.00    -0.590 OA
HETATM   18  O6  UNL     1       7.556  13.858  42.153  1.00  0.00    -0.590 OA
ENDBRANCH   8  15
BRANCH   5  19
HETATM   19  N2  UNL     1       2.270  10.830  42.021  1.00  0.00    -0.234 N
ATOM     20  H22 UNL     1       1.428  10.528  41.531  1.00  0.00     0.174 HD
ATOM     21  H21 UNL     1       2.269  10.799  43.041  1.00  0.00     0.174 HD
ENDBRANCH   5  19
TORSDOF 5
ENDMDL