MODEL 3
REMARK VINA RESULT: -6.228437701      1.845      2.437
REMARK  4 active torsions:
REMARK  status: ('A' for Active; 'I' for Inactive)
REMARK    1  A    between atoms: O1_3  and  C3_4
REMARK    2  A    between atoms: C3_4  and  N1_5
REMARK    3  A    between atoms: N2_8  and  O3_9
REMARK    4  A    between atoms: C6_14  and  N4_15
ROOT
HETATM    1  C1  UNL     1       3.785  19.031  36.491  1.00  0.00     0.045 C
HETATM    2  C2  UNL     1       4.309  19.256  37.555  1.00  0.00     0.049 C
HETATM    3  O1  UNL     1       4.879  19.490  38.747  1.00  0.00    -0.256 OA
ENDROOT
BRANCH   3   4
HETATM    4  C3  UNL     1       6.014  18.851  39.135  1.00  0.00     0.258 C
BRANCH   4   5
HETATM    5  N1  UNL     1       7.034  18.546  38.236  1.00  0.00    -0.242 N
HETATM    6  C4  UNL     1       7.870  19.488  37.707  1.00  0.00     0.361 A
HETATM    7  O2  UNL     1       7.856  20.735  37.934  1.00  0.00    -0.243 OA
HETATM    8  N2  UNL     1       8.742  18.911  36.887  1.00  0.00    -0.152 N
HETATM    9  C5  UNL     1       8.509  17.590  36.852  1.00  0.00     0.186 A
HETATM   10  N3  UNL     1       9.040  16.532  36.230  1.00  0.00    -0.172 N
HETATM   11  C9  UNL     1       7.433  17.377  37.705  1.00  0.00     0.161 A
HETATM   12  C6  UNL     1       8.553  15.294  36.421  1.00  0.00     0.682 A
ATOM     13  H3  UNL     1       9.830  16.666  35.599  1.00  0.00     0.186 HD
HETATM   14  N5  UNL     1       7.514  15.064  37.241  1.00  0.00    -0.150 N
HETATM   15  C7  UNL     1       7.018  13.699  37.418  1.00  0.00     0.179 C
HETATM   16  C8  UNL     1       6.954  16.101  37.883  1.00  0.00     0.292 A
HETATM   17  O4  UNL     1       5.982  15.941  38.659  1.00  0.00    -0.265 OA
BRANCH   8  18
HETATM   18  O3  UNL     1       9.760  19.497  36.144  1.00  0.00    -0.277 OA
ATOM     19  H3  UNL     1       9.748  20.312  35.656  1.00  0.00     0.245 HD
ENDBRANCH   8  18
BRANCH  12  20
HETATM   20  N4  UNL     1       9.075  14.270  35.813  1.00  0.00    -0.234 N
ATOM     21  H42 UNL     1       8.827  14.128  34.834  1.00  0.00     0.174 HD
ATOM     22  H41 UNL     1       9.709  13.638  36.302  1.00  0.00     0.174 HD
ENDBRANCH  12  20
ENDBRANCH   4   5
ENDBRANCH   3   4
TORSDOF 4
ENDMDL