MODEL 1
REMARK VINA RESULT: -5.911207074      0.000      0.000
REMARK  5 active torsions:
REMARK  status: ('A' for Active; 'I' for Inactive)
REMARK    1  A    between atoms: O1_2  and  N1_3
REMARK    2  A    between atoms: C6_12  and  O2_13
REMARK    3  A    between atoms: C6_12  and  C7_15
REMARK    4  A    between atoms: C7_15  and  O4_17
REMARK    5  A    between atoms: C9_20  and  N3_21
ROOT
HETATM    1  N1  UNL     1       6.239  18.802  36.310  1.00  0.00    -0.273 N
ATOM      2  H1  UNL     1       6.387  18.294  35.438  1.00  0.00     0.193 HD
HETATM    3  C2  UNL     1       5.031  18.936  36.740  1.00  0.00     0.045 C
HETATM    4  C3  UNL     1       3.768  18.469  36.173  1.00  0.00     0.061 C
HETATM    5  C4  UNL     1       2.834  19.645  36.475  1.00  0.00     0.078 C
HETATM    6  C5  UNL     1       3.232  19.968  37.895  1.00  0.00     0.271 C
HETATM    7  N2  UNL     1       2.903  21.283  38.360  1.00  0.00     0.028 N
ATOM      8  H21 UNL     1       2.719  22.057  37.721  1.00  0.00     0.288 HD
ATOM      9  H22 UNL     1       3.588  21.886  38.816  1.00  0.00     0.288 HD
HETATM   10  C6  UNL     1       1.848  20.619  39.094  1.00  0.00     0.432 C
HETATM   11  O5  UNL     1       2.399  19.354  38.792  1.00  0.00    -0.283 OA
HETATM   12  C9  UNL     1       4.696  19.655  37.997  1.00  0.00     0.294 C
ENDROOT
BRANCH  12  13
HETATM   13  N3  UNL     1       5.031  18.798  39.094  1.00  0.00    -0.065 N
ATOM     14  H33 UNL     1       4.628  17.866  39.006  1.00  0.00     0.275 HD
ATOM     15  H32 UNL     1       6.013  18.521  39.094  1.00  0.00     0.275 HD
ATOM     16  H31 UNL     1       4.753  19.270  39.955  1.00  0.00     0.275 HD
ENDBRANCH  12  13
BRANCH  10  17
HETATM   17  O2  UNL     1       0.627  20.847  38.466  1.00  0.00    -0.335 OA
ATOM     18  H2  UNL     1       0.778  21.159  37.582  1.00  0.00     0.215 HD
ENDBRANCH  10  17
BRANCH  10  19
HETATM   19  C7  UNL     1       1.854  20.837  40.549  1.00  0.00     0.352 C
HETATM   20  O3  UNL     1       2.946  21.049  41.135  1.00  0.00    -0.257 OA
BRANCH  19  21
HETATM   21  O4  UNL     1       0.709  20.819  41.299  1.00  0.00    -0.321 OA
HETATM   22  C8  UNL     1       0.394  21.722  42.321  1.00  0.00     0.213 C
ENDBRANCH  19  21
ENDBRANCH  10  19
BRANCH   1  23
HETATM   23  O1  UNL     1       7.322  19.299  36.954  1.00  0.00    -0.285 OA
HETATM   24  C1  UNL     1       8.511  18.608  37.206  1.00  0.00     0.237 C
ENDBRANCH   1  23
TORSDOF 5
ENDMDL