MODEL 3
REMARK VINA RESULT: -5.507134052      1.976      2.530
REMARK  4 active torsions:
REMARK  status: ('A' for Active; 'I' for Inactive)
REMARK    1  A    between atoms: C2_2  and  N1_3
REMARK    2  A    between atoms: N3_12  and  O2_13
REMARK    3  A    between atoms: O2_13  and  N4_14
REMARK    4  A    between atoms: N5_19  and  O4_20
ROOT
HETATM    1  N1  UNL     1       6.542  15.838  38.246  1.00  0.00    -0.289 N
HETATM    2  C3  UNL     1       6.407  16.746  39.223  1.00  0.00     0.182 A
HETATM    3  S1  UNL     1       6.468  18.331  38.823  1.00  0.00    -0.040 SA
HETATM    4  N2  UNL     1       6.223  16.347  40.509  1.00  0.00    -0.315 N
ATOM      5  H2  UNL     1       6.121  17.051  41.240  1.00  0.00     0.170 HD
HETATM    6  C4  UNL     1       6.173  15.048  40.838  1.00  0.00     0.175 A
HETATM    7  C5  UNL     1       6.310  14.080  39.854  1.00  0.00     0.184 A
HETATM    8  C6  UNL     1       6.492  14.537  38.568  1.00  0.00     0.283 A
HETATM    9  O1  UNL     1       6.620  13.674  37.648  1.00  0.00    -0.265 OA
HETATM   10  N3  UNL     1       6.218  12.891  40.478  1.00  0.00    -0.134 N
HETATM   11  C7  UNL     1       6.033  13.067  41.793  1.00  0.00     0.381 A
HETATM   12  O3  UNL     1       5.906  12.187  42.672  1.00  0.00    -0.242 OA
HETATM   13  N5  UNL     1       6.007  14.397  42.003  1.00  0.00    -0.151 N
ENDROOT
BRANCH  10  14
HETATM   14  O2  UNL     1       6.309  11.682  39.816  1.00  0.00    -0.152 OA
BRANCH  14  15
HETATM   15  N4  UNL     1       5.222  11.189  39.134  1.00  0.00    -0.285 N
ATOM     16  H42 UNL     1       4.779  11.770  38.421  1.00  0.00     0.186 HD
ATOM     17  H41 UNL     1       4.869  10.254  39.343  1.00  0.00     0.186 HD
ENDBRANCH  14  15
ENDBRANCH  10  14
BRANCH  13  18
HETATM   18  O4  UNL     1       5.833  14.975  43.250  1.00  0.00    -0.277 OA
ATOM     19  H4  UNL     1       5.583  14.527  44.049  1.00  0.00     0.245 HD
ENDBRANCH  13  18
BRANCH   1  20
HETATM   20  C2  UNL     1       6.736  16.276  36.879  1.00  0.00     0.130 C
HETATM   21  C1  UNL     1       8.218  16.250  36.572  1.00  0.00     0.027 C
ENDBRANCH   1  20
TORSDOF 4
ENDMDL