MODEL 1
REMARK VINA RESULT: -6.465856367      0.000      0.000
REMARK  2 active torsions:
REMARK  status: ('A' for Active; 'I' for Inactive)
REMARK    1  A    between atoms: C2_5  and  N3_6
REMARK    2  A    between atoms: C6_15  and  N6_16
ROOT
HETATM    1  C1  UNL     1       7.380  16.038  38.865  1.00  0.00     0.178 C
HETATM    2  N1  UNL     1       6.961  15.432  40.116  1.00  0.00    -0.288 N
HETATM    3  N2  UNL     1       7.157  15.919  41.341  1.00  0.00    -0.276 N
ATOM      4  H2  UNL     1       7.635  16.796  41.550  1.00  0.00     0.189 HD
HETATM    5  C2  UNL     1       6.635  15.092  42.265  1.00  0.00     0.217 A
HETATM    6  C3  UNL     1       6.095  14.049  41.547  1.00  0.00     0.119 A
HETATM    7  N4  UNL     1       5.464  12.988  42.109  1.00  0.00    -0.339 N
ATOM      8  H4  UNL     1       5.645  12.828  43.100  1.00  0.00     0.167 HD
HETATM    9  C4  UNL     1       4.627  12.120  41.510  1.00  0.00     0.158 C
HETATM   10  C5  UNL     1       3.515  11.603  42.263  1.00  0.00     0.121 C
HETATM   11  N5  UNL     1       2.610  11.196  42.870  1.00  0.00    -0.190 NA
HETATM   12  C6  UNL     1       4.754  11.671  40.191  1.00  0.00     0.140 C
HETATM   13  N7  UNL     1       5.389  12.228  39.143  1.00  0.00    -0.305 N
ATOM     14  H7  UNL     1       5.474  11.662  38.299  1.00  0.00     0.170 HD
HETATM   15  C7  UNL     1       5.923  13.467  39.105  1.00  0.00     0.277 C
HETATM   16  O3  UNL     1       6.102  13.967  37.977  1.00  0.00    -0.265 OA
HETATM   17  C8  UNL     1       6.300  14.262  40.188  1.00  0.00     0.149 A
ENDROOT
BRANCH  12  18
HETATM   18  N6  UNL     1       4.162  10.542  39.961  1.00  0.00    -0.383 N
ATOM     19  H62 UNL     1       3.143  10.557  39.995  1.00  0.00     0.157 HD
ATOM     20  H61 UNL     1       4.802   9.770  39.775  1.00  0.00     0.157 HD
ENDBRANCH  12  18
BRANCH   5  21
HETATM   21  N3  UNL     1       6.638  15.255  43.677  1.00  0.00    -0.094 N
HETATM   22  O1  UNL     1       5.915  14.565  44.409  1.00  0.00    -0.530 OA
HETATM   23  O2  UNL     1       7.451  16.189  44.246  1.00  0.00    -0.530 OA
ENDBRANCH   5  21
TORSDOF 2
ENDMDL