MODEL 2
REMARK VINA RESULT: -5.365186757      2.497      5.612
REMARK  6 active torsions:
REMARK  status: ('A' for Active; 'I' for Inactive)
REMARK    1  A    between atoms: O1_2  and  C2_3
REMARK    2  A    between atoms: C2_3  and  C3_5
REMARK    3  A    between atoms: N3_12  and  C7_13
REMARK    4  A    between atoms: C7_13  and  O3_14
REMARK    5  A    between atoms: C7_13  and  O4_16
REMARK    6  A    between atoms: C9_18  and  O5_20
ROOT
HETATM    1  C3  UNL     1       7.971  13.278  39.173  1.00  0.00     0.112 C
HETATM    2  C4  UNL     1       7.598  13.889  40.283  1.00  0.00     0.131 C
HETATM    3  N1  UNL     1       7.634  13.770  41.723  1.00  0.00    -0.373 N
ATOM      4  H1  UNL     1       8.102  13.041  42.260  1.00  0.00     0.161 HD
HETATM    5  C5  UNL     1       6.882  14.878  42.258  1.00  0.00     0.142 C
HETATM    6  C6  UNL     1       6.067  15.390  41.081  1.00  0.00     0.165 C
HETATM    7  N2  UNL     1       6.921  15.105  39.957  1.00  0.00    -0.287 N
HETATM    8  N3  UNL     1       7.442  15.411  38.684  1.00  0.00    -0.136 NA
HETATM    9  C9  UNL     1       7.488  14.142  38.066  1.00  0.00     0.169 C
HETATM   10  C10 UNL     1       8.340  14.039  36.844  1.00  0.00     0.072 C
ENDROOT
BRANCH   8  11
HETATM   11  C7  UNL     1       6.565  16.393  38.111  1.00  0.00     0.362 C
BRANCH  11  12
HETATM   12  O3  UNL     1       6.984  17.631  38.672  1.00  0.00    -0.357 OA
ATOM     13  H3  UNL     1       7.464  18.065  37.976  1.00  0.00     0.214 HD
ENDBRANCH  11  12
BRANCH  11  14
HETATM   14  O4  UNL     1       6.766  16.544  36.747  1.00  0.00    -0.352 OA
HETATM   15  C8  UNL     1       7.485  17.696  36.443  1.00  0.00     0.206 C
ENDBRANCH  11  14
ENDBRANCH   8  11
BRANCH   9  16
HETATM   16  O5  UNL     1       6.198  13.665  37.745  1.00  0.00    -0.369 OA
ATOM     17  H5  UNL     1       5.601  14.136  38.315  1.00  0.00     0.212 HD
ENDBRANCH   9  16
BRANCH   1  18
HETATM   18  C2  UNL     1       8.693  12.016  39.103  1.00  0.00     0.297 C
HETATM   19  O2  UNL     1       8.071  11.004  38.700  1.00  0.00    -0.259 OA
BRANCH  18  20
HETATM   20  O1  UNL     1      10.005  11.853  39.447  1.00  0.00    -0.323 OA
HETATM   21  C1  UNL     1      10.498  11.495  40.700  1.00  0.00     0.213 C
ENDBRANCH  18  20
ENDBRANCH   1  18
TORSDOF 6
ENDMDL