MODEL 4
REMARK VINA RESULT: -4.926303115      3.041      4.957
REMARK  5 active torsions:
REMARK  status: ('A' for Active; 'I' for Inactive)
REMARK    1  A    between atoms: N1_2  and  C2_4
REMARK    2  A    between atoms: N3_8  and  C4_9
REMARK    3  A    between atoms: C4_9  and  O1_10
REMARK    4  A    between atoms: C6_13  and  N4_14
REMARK    5  A    between atoms: C8_18  and  N6_19
ROOT
HETATM    1  C2  UNL     1       6.180  14.923  41.043  1.00  0.00     0.706 A
HETATM    2  N2  UNL     1       6.282  16.055  40.364  1.00  0.00    -0.020 N
ATOM      3  H2  UNL     1       5.942  16.912  40.802  1.00  0.00     0.203 HD
HETATM    4  C3  UNL     1       6.821  16.139  39.097  1.00  0.00     0.730 A
HETATM    5  N3  UNL     1       6.920  17.283  38.419  1.00  0.00    -0.124 N
HETATM    6  S1  UNL     1       7.635  16.803  36.973  1.00  0.00     0.045 SA
HETATM    7  C6  UNL     1       7.776  15.137  37.311  1.00  0.00     0.202 A
HETATM    8  N5  UNL     1       7.254  15.046  38.542  1.00  0.00     0.047 N
HETATM    9  C8  UNL     1       7.151  13.869  39.242  1.00  0.00     0.713 A
HETATM   10  N7  UNL     1       6.620  13.810  40.480  1.00  0.00    -0.021 N
ATOM     11  H7  UNL     1       6.558  12.920  40.974  1.00  0.00     0.203 HD
ENDROOT
BRANCH   1  12
HETATM   12  N1  UNL     1       5.659  14.916  42.239  1.00  0.00    -0.229 N
HETATM   13  C1  UNL     1       5.607  13.663  42.967  1.00  0.00     0.165 C
ATOM     14  H1  UNL     1       5.295  15.775  42.653  1.00  0.00     0.177 HD
ENDBRANCH   1  12
BRANCH   9  15
HETATM   15  N6  UNL     1       7.565  12.756  38.737  1.00  0.00    -0.233 N
ATOM     16  H62 UNL     1       7.908  12.790  37.777  1.00  0.00     0.174 HD
ATOM     17  H61 UNL     1       7.546  11.893  39.280  1.00  0.00     0.174 HD
ENDBRANCH   9  15
BRANCH   5  18
HETATM   18  C4  UNL     1       6.504  18.640  38.830  1.00  0.00     0.324 C
BRANCH  18  19
HETATM   19  O1  UNL     1       5.173  18.577  39.171  1.00  0.00    -0.375 OA
HETATM   20  C5  UNL     1       4.470  19.537  38.435  1.00  0.00     0.203 C
ENDBRANCH  18  19
ENDBRANCH   5  18
BRANCH   7  21
HETATM   21  N4  UNL     1       8.275  14.219  36.534  1.00  0.00    -0.372 N
HETATM   22  C7  UNL     1       9.330  14.584  35.642  1.00  0.00     0.148 C
ATOM     23  H4  UNL     1       7.921  13.263  36.561  1.00  0.00     0.161 HD
ENDBRANCH   7  21
TORSDOF 5
ENDMDL