MODEL 4
REMARK VINA RESULT: -5.449450034      2.121      5.380
REMARK  4 active torsions:
REMARK  status: ('A' for Active; 'I' for Inactive)
REMARK    1  A    between atoms: N1_2  and  O1_3
REMARK    2  A    between atoms: N1_2  and  C2_5
REMARK    3  A    between atoms: C3_8  and  N3_9
REMARK    4  A    between atoms: C5_16  and  C6_17
ROOT
HETATM    1  C2  UNL     1       5.807  12.800  39.594  1.00  0.00     0.160 A
HETATM    2  N2  UNL     1       5.878  13.491  38.412  1.00  0.00    -0.174 N
ATOM      3  H2  UNL     1       5.591  13.029  37.548  1.00  0.00     0.186 HD
HETATM    4  C3  UNL     1       6.315  14.759  38.359  1.00  0.00     0.678 A
HETATM    5  N4  UNL     1       6.695  15.368  39.506  1.00  0.00    -0.178 N
ATOM      6  H4  UNL     1       7.029  16.331  39.479  1.00  0.00     0.185 HD
HETATM    7  C4  UNL     1       6.636  14.715  40.686  1.00  0.00     0.149 A
HETATM    8  N5  UNL     1       7.041  15.376  41.880  1.00  0.00    -0.081 NA
HETATM    9  C5  UNL     1       6.189  13.411  40.761  1.00  0.00     0.098 A
ENDROOT
BRANCH   9  10
HETATM   10  C6  UNL     1       6.124  12.739  42.048  1.00  0.00     0.143 A
HETATM   11  N6  UNL     1       5.210  12.913  43.019  1.00  0.00    -0.279 N
HETATM   12  N7  UNL     1       5.454  12.121  44.048  1.00  0.00    -0.245 N
ATOM     13  H6  UNL     1       4.431  13.571  42.968  1.00  0.00     0.189 HD
HETATM   14  C7  UNL     1       4.664  12.045  45.277  1.00  0.00     0.183 C
HETATM   15  C8  UNL     1       6.553  11.424  43.723  1.00  0.00     0.344 A
HETATM   16  O2  UNL     1       7.061  10.565  44.499  1.00  0.00    -0.245 OA
HETATM   17  N8  UNL     1       6.970  11.797  42.498  1.00  0.00    -0.286 N
HETATM   18  C9  UNL     1       8.140  11.214  41.851  1.00  0.00     0.163 C
ENDBRANCH   9  10
BRANCH   1  19
HETATM   19  N1  UNL     1       5.350  11.461  39.582  1.00  0.00    -0.247 N
HETATM   20  C1  UNL     1       4.142  10.946  40.119  1.00  0.00     0.187 C
BRANCH  19  21
HETATM   21  O1  UNL     1       6.195  10.564  38.970  1.00  0.00    -0.286 OA
ATOM     22  H1  UNL     1       6.318   9.725  39.398  1.00  0.00     0.244 HD
ENDBRANCH  19  21
ENDBRANCH   1  19
BRANCH   4  23
HETATM   23  N3  UNL     1       6.379  15.408  37.226  1.00  0.00    -0.234 N
ATOM     24  H32 UNL     1       5.886  15.051  36.408  1.00  0.00     0.174 HD
ATOM     25  H31 UNL     1       6.916  16.271  37.141  1.00  0.00     0.174 HD
ENDBRANCH   4  23
TORSDOF 4
ENDMDL