MODEL 2
REMARK VINA RESULT: -6.519980718      2.141      6.032
REMARK  1 active torsions:
REMARK  status: ('A' for Active; 'I' for Inactive)
REMARK       I    between atoms: C1_2  and  N2_4
REMARK    1  A    between atoms: C5_11  and  N5_12
ROOT
HETATM    1  N1  UNL     1       8.241  19.498  36.109  1.00  0.00    -0.039 NA
HETATM    2  C1  UNL     1       7.601  19.087  37.310  1.00  0.00     0.343 C
HETATM    3  O1  UNL     1       7.211  19.997  38.090  1.00  0.00    -0.250 OA
HETATM    4  N2  UNL     1       7.416  17.710  37.607  1.00  0.00    -0.224 N
HETATM    5  C2  UNL     1       7.787  16.661  36.859  1.00  0.00     0.155 A
HETATM    6  C3  UNL     1       7.433  15.471  37.486  1.00  0.00     0.137 A
HETATM    7  N3  UNL     1       7.563  14.166  37.183  1.00  0.00    -0.327 N
ATOM      8  H3  UNL     1       8.018  13.918  36.304  1.00  0.00     0.168 HD
HETATM    9  C4  UNL     1       7.126  13.172  37.977  1.00  0.00     0.157 A
HETATM   10  N4  UNL     1       7.291  11.804  37.606  1.00  0.00    -0.080 NA
HETATM   11  C5  UNL     1       6.517  13.537  39.152  1.00  0.00     0.212 A
HETATM   12  C6  UNL     1       6.393  14.882  39.442  1.00  0.00     0.294 A
HETATM   13  O4  UNL     1       5.834  15.243  40.525  1.00  0.00    -0.265 OA
HETATM   14  N6  UNL     1       6.837  15.859  38.637  1.00  0.00    -0.211 N
HETATM   15  C7  UNL     1       6.829  17.208  38.706  1.00  0.00     0.345 A
HETATM   16  O5  UNL     1       6.358  17.921  39.632  1.00  0.00    -0.245 OA
ENDROOT
BRANCH  11  17
HETATM   17  N5  UNL     1       6.024  12.560  40.054  1.00  0.00    -0.106 N
HETATM   18  O2  UNL     1       4.871  12.136  39.906  1.00  0.00    -0.531 OA
HETATM   19  O3  UNL     1       6.840  12.121  41.055  1.00  0.00    -0.531 OA
ENDBRANCH  11  17
TORSDOF 1
ENDMDL