MODEL 1
REMARK VINA RESULT: -6.576882102      0.000      0.000
REMARK  8 active torsions:
REMARK  status: ('A' for Active; 'I' for Inactive)
REMARK    1  A    between atoms: C2_2  and  C3_3
REMARK    2  A    between atoms: C3_3  and  C4_4
REMARK    3  A    between atoms: C4_4  and  C5_5
REMARK    4  A    between atoms: C5_5  and  C11_15
REMARK    5  A    between atoms: C6_6  and  O1_7
REMARK    6  A    between atoms: C6_6  and  C7_9
REMARK    7  A    between atoms: C7_9  and  O2_11
REMARK    8  A    between atoms: C7_9  and  C9_13
ROOT
HETATM    1  C5  UNL     1      70.351  -4.788 -33.310  1.00  0.00    -0.039 C
HETATM    2  C6  UNL     1      70.617  -5.174 -34.674  1.00  0.00     0.080 C
ENDROOT
BRANCH   1   3
HETATM    3  C4  UNL     1      71.109  -5.717 -32.352  1.00  0.00     0.037 C
BRANCH   3   4
HETATM    4  C3  UNL     1      72.575  -5.691 -32.383  1.00  0.00     0.004 C
BRANCH   4   5
HETATM    5  C2  UNL     1      73.155  -6.752 -31.404  1.00  0.00    -0.004 C
HETATM    6  C1  UNL     1      72.243  -7.959 -31.406  1.00  0.00     0.005 C
ENDBRANCH   4   5
ENDBRANCH   3   4
ENDBRANCH   1   3
BRANCH   1   7
HETATM    7  C11 UNL     1      69.065  -4.372 -32.741  1.00  0.00    -0.013 C
HETATM    8  C12 UNL     1      68.516  -5.283 -31.643  1.00  0.00     0.019 C
HETATM    9  C13 UNL     1      67.166  -4.848 -31.153  1.00  0.00    -0.013 C
HETATM   10  C14 UNL     1      67.388  -3.516 -30.430  1.00  0.00     0.009 C
HETATM   11  C18 UNL     1      66.142  -4.606 -32.203  1.00  0.00     0.009 C
HETATM   12  C15 UNL     1      67.991  -2.533 -31.367  1.00  0.00    -0.013 C
HETATM   13  C16 UNL     1      66.952  -2.229 -32.458  1.00  0.00     0.009 C
HETATM   14  C20 UNL     1      69.208  -3.001 -32.110  1.00  0.00     0.019 C
HETATM   15  C17 UNL     1      66.717  -3.540 -33.115  1.00  0.00    -0.013 C
HETATM   16  C19 UNL     1      67.953  -4.163 -33.732  1.00  0.00     0.019 C
ENDBRANCH   1   7
BRANCH   2  17
HETATM   17  O1  UNL     1      70.184  -6.455 -35.096  1.00  0.00    -0.362 OA
ATOM     18  H1  UNL     1      70.685  -6.891 -35.775  1.00  0.00     0.217 HD
ENDBRANCH   2  17
BRANCH   2  19
HETATM   19  C7  UNL     1      70.799  -4.308 -35.840  1.00  0.00     0.102 C
HETATM   20  C8  UNL     1      72.203  -4.300 -36.406  1.00  0.00     0.053 C
BRANCH  19  21
HETATM   21  O2  UNL     1      70.723  -2.905 -35.413  1.00  0.00    -0.383 OA
ATOM     22  H2  UNL     1      71.249  -2.374 -35.998  1.00  0.00     0.211 HD
ENDBRANCH  19  21
BRANCH  19  23
HETATM   23  C9  UNL     1      69.810  -4.304 -36.944  1.00  0.00     0.040 C
HETATM   24  C10 UNL     1      69.158  -2.959 -37.169  1.00  0.00     0.008 C
ENDBRANCH  19  23
ENDBRANCH   2  19
TORSDOF 8
ENDMDL