MODEL 5
REMARK VINA RESULT: -9.404676029      0.824      1.977
REMARK  7 active torsions:
REMARK  status: ('A' for Active; 'I' for Inactive)
REMARK    1  A    between atoms: C2_2  and  N1_3
REMARK    2  A    between atoms: C2_2  and  C11_17
REMARK    3  A    between atoms: N1_3  and  C3_5
REMARK    4  A    between atoms: C3_5  and  C4_6
REMARK    5  A    between atoms: C4_6  and  O1_7
REMARK    6  A    between atoms: C4_6  and  C5_9
REMARK    7  A    between atoms: C5_9  and  N2_10
ROOT
HETATM    1  N1  UNL     1      64.346  -1.154 -30.313  1.00  0.00    -0.395 N
ATOM      2  H1  UNL     1      64.925  -0.746 -31.046  1.00  0.00     0.159 HD
ENDROOT
BRANCH   1   3
HETATM    3  C2  UNL     1      64.434  -2.535 -30.106  1.00  0.00     0.085 C
HETATM    4  C1  UNL     1      63.232  -3.364 -30.324  1.00  0.00     0.033 C
BRANCH   3   5
HETATM    5  C11 UNL     1      65.642  -3.035 -30.900  1.00  0.00    -0.019 C
HETATM    6  C12 UNL     1      65.334  -4.284 -31.698  1.00  0.00     0.016 C
HETATM    7  C13 UNL     1      66.654  -4.702 -32.363  1.00  0.00    -0.013 C
HETATM    8  C14 UNL     1      67.030  -3.611 -33.326  1.00  0.00     0.009 C
HETATM    9  C18 UNL     1      67.714  -4.994 -31.352  1.00  0.00     0.009 C
HETATM   10  C15 UNL     1      67.304  -2.350 -32.546  1.00  0.00    -0.013 C
HETATM   11  C16 UNL     1      68.383  -2.586 -31.541  1.00  0.00     0.009 C
HETATM   12  C20 UNL     1      65.998  -1.961 -31.891  1.00  0.00     0.016 C
HETATM   13  C17 UNL     1      68.013  -3.715 -30.606  1.00  0.00    -0.013 C
HETATM   14  C19 UNL     1      66.735  -3.302 -29.897  1.00  0.00     0.016 C
ENDBRANCH   3   5
ENDBRANCH   1   3
BRANCH   1  15
HETATM   15  C3  UNL     1      63.517  -0.296 -29.583  1.00  0.00     0.089 C
BRANCH  15  16
HETATM   16  C4  UNL     1      62.141  -0.172 -30.145  1.00  0.00     0.173 C
BRANCH  16  17
HETATM   17  O1  UNL     1      62.262   0.711 -31.256  1.00  0.00    -0.389 OA
ATOM     18  H1  UNL     1      61.469   1.233 -31.253  1.00  0.00     0.210 HD
ENDBRANCH  16  17
BRANCH  16  19
HETATM   19  C5  UNL     1      61.182   0.479 -29.141  1.00  0.00     0.156 C
BRANCH  19  20
HETATM   20  N2  UNL     1      60.991   1.836 -29.558  1.00  0.00    -0.394 N
HETATM   21  C6  UNL     1      60.005   2.496 -29.141  1.00  0.00    -0.018 C
HETATM   22  C7  UNL     1      58.954   1.987 -28.205  1.00  0.00     0.052 C
HETATM   23  C10 UNL     1      59.702   3.906 -29.507  1.00  0.00     0.052 C
HETATM   24  C8  UNL     1      57.772   2.856 -28.657  1.00  0.00     0.006 C
HETATM   25  C9  UNL     1      58.449   4.213 -28.728  1.00  0.00     0.006 C
ATOM     26  H2  UNL     1      61.658   2.269 -30.196  1.00  0.00     0.159 HD
ENDBRANCH  19  20
ENDBRANCH  16  19
ENDBRANCH  15  16
ENDBRANCH   1  15
TORSDOF 7
ENDMDL