MODEL 3
REMARK VINA RESULT: -7.163684823      0.852      2.102
REMARK  9 active torsions:
REMARK  status: ('A' for Active; 'I' for Inactive)
REMARK    1  A    between atoms: C2_2  and  S1_5
REMARK    2  A    between atoms: S1_5  and  C5_6
REMARK    3  A    between atoms: C5_6  and  C6_7
REMARK    4  A    between atoms: C6_7  and  C7_8
REMARK    5  A    between atoms: C7_8  and  N1_9
REMARK    6  A    between atoms: N1_9  and  C8_12
REMARK    7  A    between atoms: C8_12  and  O1_13
REMARK    8  A    between atoms: C8_12  and  C9_15
REMARK    9  A    between atoms: C9_15  and  C10_16
ROOT
HETATM    1  C8  UNL     1      65.046   0.083 -30.912  1.00  0.00     0.318 C
ENDROOT
BRANCH   1   2
HETATM    2  N1  UNL     1      63.978   0.200 -29.953  1.00  0.00    -0.049 N
ATOM      3  H12 UNL     1      63.647   1.164 -29.906  1.00  0.00     0.280 HD
ATOM      4  H11 UNL     1      64.339   0.092 -29.005  1.00  0.00     0.280 HD
BRANCH   2   5
HETATM    5  C7  UNL     1      62.882  -0.690 -30.170  1.00  0.00     0.236 C
BRANCH   5   6
HETATM    6  C6  UNL     1      61.696  -0.289 -29.284  1.00  0.00     0.038 C
BRANCH   6   7
HETATM    7  C5  UNL     1      60.805   0.598 -30.132  1.00  0.00     0.076 C
BRANCH   7   8
HETATM    8  S1  UNL     1      59.129   0.683 -29.502  1.00  0.00    -0.160 SA
BRANCH   8   9
HETATM    9  C2  UNL     1      58.823   2.097 -28.441  1.00  0.00    -0.003 C
HETATM   10  C1  UNL     1      57.452   2.072 -27.820  1.00  0.00     0.026 C
HETATM   11  C3  UNL     1      59.898   2.095 -27.344  1.00  0.00     0.026 C
HETATM   12  C4  UNL     1      58.989   3.421 -29.160  1.00  0.00     0.026 C
ENDBRANCH   8   9
ENDBRANCH   7   8
ENDBRANCH   6   7
ENDBRANCH   5   6
ENDBRANCH   2   5
ENDBRANCH   1   2
BRANCH   1  13
HETATM   13  O1  UNL     1      66.268   0.292 -30.214  1.00  0.00    -0.370 OA
ATOM     14  H1  UNL     1      66.048   0.582 -29.337  1.00  0.00     0.212 HD
ENDBRANCH   1  13
BRANCH   1  15
HETATM   15  C9  UNL     1      65.096  -1.320 -31.461  1.00  0.00     0.067 C
BRANCH  15  16
HETATM   16  C10 UNL     1      66.016  -2.251 -30.787  1.00  0.00     0.002 C
HETATM   17  C11 UNL     1      65.302  -3.503 -30.315  1.00  0.00    -0.009 C
HETATM   18  C12 UNL     1      64.880  -4.323 -31.478  1.00  0.00     0.005 C
HETATM   19  C15 UNL     1      66.562  -4.275 -29.851  1.00  0.00     0.010 C
HETATM   20  C13 UNL     1      66.117  -5.110 -31.945  1.00  0.00     0.006 C
HETATM   21  C14 UNL     1      67.204  -4.315 -31.242  1.00  0.00    -0.006 C
HETATM   22  C16 UNL     1      67.138  -2.834 -31.598  1.00  0.00    -0.040 C
HETATM   23  C17 UNL     1      68.466  -2.257 -31.092  1.00  0.00     0.015 C
HETATM   24  C18 UNL     1      67.061  -2.616 -33.064  1.00  0.00     0.015 C
ENDBRANCH  15  16
ENDBRANCH   1  15
TORSDOF 9
ENDMDL