MODEL 3
REMARK VINA RESULT: -9.013296350      0.185      1.587
REMARK  8 active torsions:
REMARK  status: ('A' for Active; 'I' for Inactive)
REMARK    1  A    between atoms: C2_2  and  C3_3
REMARK    2  A    between atoms: C2_2  and  C10_14
REMARK    3  A    between atoms: C3_3  and  C4_4
REMARK    4  A    between atoms: C4_4  and  C5_5
REMARK    5  A    between atoms: C5_5  and  C6_6
REMARK    6  A    between atoms: C6_6  and  N1_7
REMARK    7  A    between atoms: C10_14  and  N2_15
REMARK    8  A    between atoms: N2_15  and  C11_18
ROOT
HETATM    1  C10 UNL     1      64.116  -1.797 -29.860  1.00  0.00     0.237 C
ENDROOT
BRANCH   1   2
HETATM    2  C2  UNL     1      62.692  -1.720 -29.396  1.00  0.00     0.007 C
HETATM    3  C1  UNL     1      61.887  -2.751 -30.134  1.00  0.00     0.011 C
BRANCH   2   4
HETATM    4  C3  UNL     1      62.166  -0.334 -29.477  1.00  0.00     0.006 C
BRANCH   4   5
HETATM    5  C4  UNL     1      60.766  -0.068 -29.098  1.00  0.00     0.003 C
BRANCH   5   6
HETATM    6  C5  UNL     1      60.149   1.146 -29.680  1.00  0.00     0.038 C
BRANCH   6   7
HETATM    7  C6  UNL     1      59.867   2.200 -28.599  1.00  0.00     0.123 C
HETATM    8  C7  UNL     1      60.256   3.588 -28.898  1.00  0.00     0.038 C
HETATM    9  C8  UNL     1      58.822   3.944 -29.167  1.00  0.00     0.005 C
HETATM   10  C9  UNL     1      58.386   2.591 -28.685  1.00  0.00     0.038 C
BRANCH   7  11
HETATM   11  N1  UNL     1      60.161   1.678 -27.265  1.00  0.00    -0.070 N
ATOM     12  H13 UNL     1      60.944   2.169 -26.834  1.00  0.00     0.275 HD
ATOM     13  H12 UNL     1      59.433   1.928 -26.596  1.00  0.00     0.275 HD
ATOM     14  H11 UNL     1      60.318   0.671 -27.291  1.00  0.00     0.275 HD
ENDBRANCH   7  11
ENDBRANCH   6   7
ENDBRANCH   5   6
ENDBRANCH   4   5
ENDBRANCH   2   4
ENDBRANCH   1   2
BRANCH   1  15
HETATM   15  N2  UNL     1      64.448  -3.130 -30.183  1.00  0.00    -0.066 N
ATOM     16  H22 UNL     1      64.469  -3.707 -29.343  1.00  0.00     0.278 HD
ATOM     17  H21 UNL     1      63.680  -3.578 -30.683  1.00  0.00     0.278 HD
BRANCH  15  18
HETATM   18  C11 UNL     1      65.682  -3.271 -30.923  1.00  0.00     0.127 C
HETATM   19  C12 UNL     1      65.561  -4.554 -31.719  1.00  0.00     0.043 C
HETATM   20  C13 UNL     1      66.804  -4.813 -32.542  1.00  0.00    -0.012 C
HETATM   21  C14 UNL     1      67.953  -5.019 -31.578  1.00  0.00     0.009 C
HETATM   22  C18 UNL     1      67.057  -3.609 -33.403  1.00  0.00     0.009 C
HETATM   23  C15 UNL     1      68.105  -3.807 -30.701  1.00  0.00    -0.012 C
HETATM   24  C16 UNL     1      68.404  -2.609 -31.573  1.00  0.00     0.009 C
HETATM   25  C20 UNL     1      66.821  -3.490 -29.951  1.00  0.00     0.043 C
HETATM   26  C17 UNL     1      67.274  -2.395 -32.540  1.00  0.00    -0.012 C
HETATM   27  C19 UNL     1      66.006  -2.076 -31.771  1.00  0.00     0.043 C
ENDBRANCH  15  18
ENDBRANCH   1  15
TORSDOF 8
ENDMDL