MODEL 5
REMARK VINA RESULT: -5.939979973      1.721      8.237
REMARK  6 active torsions:
REMARK  status: ('A' for Active; 'I' for Inactive)
REMARK    1  A    between atoms: C2_2  and  C3_3
REMARK    2  A    between atoms: C3_3  and  C4_4
REMARK    3  A    between atoms: C4_4  and  C5_5
REMARK    4  A    between atoms: C5_5  and  C6_6
REMARK    5  A    between atoms: C6_6  and  N1_7
REMARK    6  A    between atoms: C20_22  and  O1_23
ROOT
HETATM    1  N1  UNL     1      62.043  -1.679 -29.670  1.00  0.00    -0.370 N
ATOM      2  H1  UNL     1      61.569  -2.558 -29.875  1.00  0.00     0.164 HD
HETATM    3  C7  UNL     1      61.329  -0.562 -29.896  1.00  0.00     0.040 C
HETATM    4  C8  UNL     1      61.443   0.412 -31.003  1.00  0.00    -0.058 C
HETATM    5  C9  UNL     1      62.444   0.262 -32.061  1.00  0.00     0.045 C
HETATM    6  C10 UNL     1      61.334   1.814 -30.398  1.00  0.00     0.041 C
HETATM    7  C11 UNL     1      60.211   1.770 -29.403  1.00  0.00     0.001 C
HETATM    8  C12 UNL     1      59.420   3.066 -29.601  1.00  0.00    -0.006 C
HETATM    9  C13 UNL     1      59.874   4.223 -28.727  1.00  0.00     0.006 C
HETATM   10  C14 UNL     1      58.431   4.402 -28.266  1.00  0.00     0.005 C
HETATM   11  C15 UNL     1      58.133   3.062 -28.850  1.00  0.00    -0.010 C
HETATM   12  C16 UNL     1      58.112   2.005 -27.762  1.00  0.00     0.010 C
HETATM   13  C17 UNL     1      58.368   0.642 -28.300  1.00  0.00    -0.011 C
HETATM   14  C18 UNL     1      57.090  -0.092 -28.656  1.00  0.00     0.010 C
HETATM   15  C19 UNL     1      59.235   0.662 -29.552  1.00  0.00     0.029 C
HETATM   16  C20 UNL     1      59.795  -0.718 -29.679  1.00  0.00     0.172 C
ENDROOT
BRANCH   1  17
HETATM   17  C6  UNL     1      63.333  -1.788 -29.197  1.00  0.00     0.061 C
BRANCH  17  18
HETATM   18  C5  UNL     1      64.385  -2.596 -29.840  1.00  0.00     0.044 C
BRANCH  18  19
HETATM   19  C4  UNL     1      65.312  -1.694 -30.689  1.00  0.00     0.005 C
BRANCH  19  20
HETATM   20  C3  UNL     1      66.311  -2.511 -31.403  1.00  0.00     0.000 C
BRANCH  20  21
HETATM   21  C2  UNL     1      65.968  -3.991 -31.117  1.00  0.00    -0.005 C
HETATM   22  C1  UNL     1      66.207  -4.726 -32.417  1.00  0.00     0.005 C
ENDBRANCH  20  21
ENDBRANCH  19  20
ENDBRANCH  18  19
ENDBRANCH  17  18
ENDBRANCH   1  17
BRANCH  16  23
HETATM   23  O1  UNL     1      59.538  -1.563 -28.632  1.00  0.00    -0.389 OA
ATOM     24  H1  UNL     1      59.064  -2.331 -28.929  1.00  0.00     0.210 HD
ENDBRANCH  16  23
TORSDOF 6
ENDMDL