MODEL 1
REMARK VINA RESULT: -9.782022713      0.000      0.000
REMARK  7 active torsions:
REMARK  status: ('A' for Active; 'I' for Inactive)
REMARK    1  A    between atoms: C2_2  and  C3_3
REMARK    2  A    between atoms: C7_7  and  C8_8
REMARK    3  A    between atoms: C8_8  and  C9_9
REMARK    4  A    between atoms: C9_9  and  C10_10
REMARK    5  A    between atoms: C10_10  and  C11_11
REMARK    6  A    between atoms: C11_11  and  N1_12
REMARK    7  A    between atoms: N1_12  and  C12_14
ROOT
HETATM    1  C11 UNL     1      63.381  -2.670 -30.252  1.00  0.00     0.114 C
ENDROOT
BRANCH   1   2
HETATM    2  C10 UNL     1      62.935  -2.049 -28.923  1.00  0.00     0.019 C
BRANCH   2   3
HETATM    3  C9  UNL     1      62.919  -0.556 -29.141  1.00  0.00     0.004 C
BRANCH   3   4
HETATM    4  C8  UNL     1      61.595   0.032 -28.722  1.00  0.00     0.024 C
BRANCH   4   5
HETATM    5  C7  UNL     1      60.989   0.940 -29.733  1.00  0.00     0.077 C
HETATM    6  C6  UNL     1      59.544   0.601 -30.030  1.00  0.00     0.025 C
HETATM    7  C5  UNL     1      58.656   0.888 -28.865  1.00  0.00     0.004 C
HETATM    8  C4  UNL     1      59.097   2.028 -28.010  1.00  0.00     0.024 C
HETATM    9  C3  UNL     1      60.123   2.914 -28.620  1.00  0.00     0.076 C
HETATM   10  N2  UNL     1      61.141   2.302 -29.385  1.00  0.00    -0.413 N
ATOM     11  H2  UNL     1      61.964   2.829 -29.677  1.00  0.00     0.154 HD
BRANCH   9  12
HETATM   12  C2  UNL     1      59.426   3.964 -29.457  1.00  0.00     0.020 C
HETATM   13  C1  UNL     1      58.091   4.331 -28.846  1.00  0.00     0.007 C
ENDBRANCH   9  12
ENDBRANCH   4   5
ENDBRANCH   3   4
ENDBRANCH   2   3
ENDBRANCH   1   2
BRANCH   1  14
HETATM   14  N1  UNL     1      64.454  -3.546 -29.978  1.00  0.00    -0.412 N
ATOM     15  H1  UNL     1      64.395  -4.236 -29.229  1.00  0.00     0.154 HD
BRANCH  14  16
HETATM   16  C12 UNL     1      65.616  -3.433 -30.782  1.00  0.00     0.026 C
HETATM   17  C13 UNL     1      65.562  -4.518 -31.849  1.00  0.00     0.035 C
HETATM   18  C14 UNL     1      66.853  -4.572 -32.638  1.00  0.00    -0.012 C
HETATM   19  C15 UNL     1      67.050  -3.246 -33.315  1.00  0.00     0.009 C
HETATM   20  C19 UNL     1      67.968  -4.869 -31.650  1.00  0.00     0.009 C
HETATM   21  C16 UNL     1      67.082  -2.151 -32.269  1.00  0.00    -0.012 C
HETATM   22  C17 UNL     1      68.277  -2.391 -31.394  1.00  0.00     0.009 C
HETATM   23  C21 UNL     1      65.782  -2.126 -31.481  1.00  0.00     0.035 C
HETATM   24  C18 UNL     1      68.087  -3.716 -30.697  1.00  0.00    -0.012 C
HETATM   25  C20 UNL     1      66.828  -3.627 -29.885  1.00  0.00     0.035 C
ENDBRANCH  14  16
ENDBRANCH   1  14
TORSDOF 7
ENDMDL