MODEL 3
REMARK VINA RESULT: -8.829305606      1.026      1.396
REMARK  7 active torsions:
REMARK  status: ('A' for Active; 'I' for Inactive)
REMARK    1  A    between atoms: C2_2  and  C4_4
REMARK    2  A    between atoms: C4_4  and  C5_5
REMARK    3  A    between atoms: C5_5  and  C7_7
REMARK    4  A    between atoms: C10_10  and  C11_11
REMARK    5  A    between atoms: C11_11  and  N1_12
REMARK       I    between atoms: N1_12  and  C12_14
REMARK       I    between atoms: C12_14  and  N2_16
REMARK    6  A    between atoms: N2_16  and  N3_18
REMARK    7  A    between atoms: N3_18  and  C14_20
ROOT
HETATM    1  C7  UNL     1      60.131   0.315 -29.653  1.00  0.00    -0.011 C
HETATM    2  C8  UNL     1      61.092  -0.046 -28.550  1.00  0.00     0.005 C
HETATM    3  C9  UNL     1      62.526   0.237 -28.961  1.00  0.00     0.006 C
HETATM    4  C10 UNL     1      62.795  -0.491 -30.249  1.00  0.00     0.003 C
HETATM    5  C17 UNL     1      61.864  -0.031 -31.338  1.00  0.00     0.006 C
HETATM    6  C18 UNL     1      60.883   0.972 -30.774  1.00  0.00     0.005 C
ENDROOT
BRANCH   4   7
HETATM    7  C11 UNL     1      64.242  -0.375 -30.676  1.00  0.00     0.129 C
BRANCH   7   8
HETATM    8  N1  UNL     1      64.940  -1.562 -30.299  1.00  0.00    -0.341 N
HETATM    9  C12 UNL     1      65.956  -2.170 -31.097  1.00  0.00     0.334 C
HETATM   10  O1  UNL     1      66.258  -1.630 -32.203  1.00  0.00    -0.246 OA
HETATM   11  N2  UNL     1      66.604  -3.352 -30.645  1.00  0.00    -0.254 N
ATOM     12  H2  UNL     1      66.291  -3.723 -29.747  1.00  0.00     0.191 HD
ATOM     13  H1  UNL     1      64.699  -2.000 -29.409  1.00  0.00     0.164 HD
BRANCH  11  14
HETATM   14  N3  UNL     1      67.582  -4.040 -31.264  1.00  0.00    -0.324 N
HETATM   15  C13 UNL     1      68.858  -3.429 -31.373  1.00  0.00     0.171 C
BRANCH  14  16
HETATM   16  C14 UNL     1      67.315  -4.973 -32.269  1.00  0.00     0.093 C
HETATM   17  C15 UNL     1      65.865  -5.060 -32.686  1.00  0.00     0.033 C
HETATM   18  C16 UNL     1      68.109  -4.663 -33.540  1.00  0.00     0.033 C
ENDBRANCH  14  16
ENDBRANCH  11  14
ENDBRANCH   7   8
ENDBRANCH   4   7
BRANCH   1  19
HETATM   19  C5  UNL     1      59.005   1.188 -29.143  1.00  0.00    -0.014 C
HETATM   20  C6  UNL     1      57.896   0.291 -28.696  1.00  0.00     0.010 C
BRANCH  19  21
HETATM   21  C4  UNL     1      59.502   2.120 -28.096  1.00  0.00     0.008 C
BRANCH  21  22
HETATM   22  C2  UNL     1      59.335   3.572 -28.447  1.00  0.00    -0.022 C
HETATM   23  C1  UNL     1      60.258   3.934 -29.591  1.00  0.00     0.009 C
HETATM   24  C3  UNL     1      57.919   3.861 -28.891  1.00  0.00     0.009 C
ENDBRANCH  21  22
ENDBRANCH  19  21
ENDBRANCH   1  19
TORSDOF 7
ENDMDL