MODEL 5
REMARK VINA RESULT: -7.994186169      2.914      8.361
REMARK  8 active torsions:
REMARK  status: ('A' for Active; 'I' for Inactive)
REMARK    1  A    between atoms: C2_2  and  C3_3
REMARK    2  A    between atoms: C3_3  and  C4_4
REMARK    3  A    between atoms: C4_4  and  C5_5
REMARK    4  A    between atoms: C5_5  and  O1_6
REMARK    5  A    between atoms: C9_11  and  N1_12
REMARK    6  A    between atoms: N1_12  and  C10_14
REMARK    7  A    between atoms: C10_14  and  C11_15
REMARK    8  A    between atoms: C11_15  and  C12_16
ROOT
HETATM    1  C4  UNL     1      67.802  -3.329 -32.053  1.00  0.00    -0.010 C
HETATM    2  C6  UNL     1      67.377  -4.172 -30.891  1.00  0.00    -0.003 C
HETATM    3  C7  UNL     1      65.893  -4.435 -30.867  1.00  0.00     0.007 C
HETATM    4  C8  UNL     1      65.098  -3.122 -30.722  1.00  0.00     0.026 C
HETATM    5  C9  UNL     1      65.801  -1.959 -31.326  1.00  0.00     0.085 C
HETATM    6  C19 UNL     1      67.310  -2.137 -31.274  1.00  0.00     0.019 C
HETATM    7  C20 UNL     1      67.578  -2.938 -30.009  1.00  0.00     0.013 C
ENDROOT
BRANCH   5   8
HETATM    8  N1  UNL     1      65.511  -0.714 -30.743  1.00  0.00    -0.397 N
ATOM      9  H1  UNL     1      66.279  -0.225 -30.285  1.00  0.00     0.159 HD
BRANCH   8  10
HETATM   10  C10 UNL     1      64.279  -0.095 -30.735  1.00  0.00     0.056 C
BRANCH  10  11
HETATM   11  C11 UNL     1      63.564  -0.061 -29.436  1.00  0.00     0.049 C
BRANCH  11  12
HETATM   12  C12 UNL     1      62.057  -0.245 -29.606  1.00  0.00    -0.005 C
HETATM   13  C13 UNL     1      61.423   0.118 -28.267  1.00  0.00     0.010 C
HETATM   14  C14 UNL     1      60.327   1.063 -28.695  1.00  0.00    -0.014 C
HETATM   15  C15 UNL     1      59.362   0.289 -29.531  1.00  0.00     0.005 C
HETATM   16  C18 UNL     1      61.061   1.856 -29.788  1.00  0.00     0.009 C
HETATM   17  C16 UNL     1      60.033   0.070 -30.885  1.00  0.00     0.005 C
HETATM   18  C17 UNL     1      61.426   0.617 -30.631  1.00  0.00    -0.010 C
ENDBRANCH  11  12
ENDBRANCH  10  11
ENDBRANCH   8  10
ENDBRANCH   5   8
BRANCH   1  19
HETATM   19  C3  UNL     1      69.299  -3.262 -32.151  1.00  0.00     0.012 C
BRANCH  19  20
HETATM   20  C2  UNL     1      69.945  -4.617 -32.303  1.00  0.00    -0.004 C
HETATM   21  C1  UNL     1      70.345  -4.904 -33.730  1.00  0.00     0.005 C
ENDBRANCH  19  20
ENDBRANCH   1  19
BRANCH   1  22
HETATM   22  C5  UNL     1      67.084  -3.552 -33.351  1.00  0.00     0.174 C
BRANCH  22  23
HETATM   23  O1  UNL     1      67.462  -2.655 -34.344  1.00  0.00    -0.400 OA
ATOM     24  H1  UNL     1      67.462  -3.040 -35.212  1.00  0.00     0.209 HD
ENDBRANCH  22  23
ENDBRANCH   1  22
TORSDOF 8
ENDMDL