MODEL 1
REMARK VINA RESULT: -9.676464770      0.000      0.000
REMARK  8 active torsions:
REMARK  status: ('A' for Active; 'I' for Inactive)
REMARK    1  A    between atoms: O1_1  and  C1_3
REMARK    2  A    between atoms: C1_3  and  C2_4
REMARK    3  A    between atoms: C2_4  and  C3_5
REMARK    4  A    between atoms: C3_5  and  N1_6
REMARK    5  A    between atoms: N1_6  and  C4_9
REMARK    6  A    between atoms: C4_9  and  C5_10
REMARK    7  A    between atoms: C5_10  and  C6_11
REMARK    8  A    between atoms: C6_11  and  C7_12
ROOT
HETATM    1  C4  UNL     1      63.094  -1.124 -28.996  1.00  0.00     0.232 C
ENDROOT
BRANCH   1   2
HETATM    2  N1  UNL     1      62.512   0.225 -29.252  1.00  0.00    -0.075 N
ATOM      3  H12 UNL     1      63.035   0.744 -29.957  1.00  0.00     0.277 HD
ATOM      4  H11 UNL     1      62.654   0.863 -28.469  1.00  0.00     0.277 HD
BRANCH   2   5
HETATM    5  C3  UNL     1      61.145   0.088 -29.591  1.00  0.00     0.235 C
BRANCH   5   6
HETATM    6  C2  UNL     1      60.500   1.398 -29.905  1.00  0.00     0.065 C
BRANCH   6   7
HETATM    7  C1  UNL     1      59.829   2.028 -28.741  1.00  0.00     0.059 C
HETATM    8  C17 UNL     1      58.325   1.759 -28.738  1.00  0.00     0.038 C
HETATM    9  C18 UNL     1      57.773   3.056 -28.203  1.00  0.00     0.003 C
HETATM   10  C19 UNL     1      58.551   4.060 -29.071  1.00  0.00     0.003 C
HETATM   11  C20 UNL     1      59.960   3.564 -28.806  1.00  0.00     0.038 C
BRANCH   7  12
HETATM   12  O1  UNL     1      60.297   1.620 -27.496  1.00  0.00    -0.390 OA
ATOM     13  H1  UNL     1      60.035   2.169 -26.766  1.00  0.00     0.210 HD
ENDBRANCH   7  12
ENDBRANCH   6   7
ENDBRANCH   5   6
ENDBRANCH   2   5
ENDBRANCH   1   2
BRANCH   1  14
HETATM   14  C5  UNL     1      63.902  -1.552 -30.159  1.00  0.00     0.028 C
BRANCH  14  15
HETATM   15  C6  UNL     1      64.369  -2.939 -30.142  1.00  0.00     0.011 C
BRANCH  15  16
HETATM   16  C7  UNL     1      65.622  -3.363 -30.796  1.00  0.00    -0.039 C
HETATM   17  C8  UNL     1      66.000  -2.118 -31.669  1.00  0.00     0.014 C
HETATM   18  C9  UNL     1      67.224  -2.348 -32.473  1.00  0.00    -0.013 C
HETATM   19  C10 UNL     1      68.411  -2.579 -31.552  1.00  0.00     0.009 C
HETATM   20  C14 UNL     1      67.021  -3.541 -33.368  1.00  0.00     0.009 C
HETATM   21  C11 UNL     1      68.068  -3.759 -30.700  1.00  0.00    -0.013 C
HETATM   22  C12 UNL     1      67.906  -4.965 -31.565  1.00  0.00     0.009 C
HETATM   23  C16 UNL     1      66.835  -3.451 -29.872  1.00  0.00     0.014 C
HETATM   24  C13 UNL     1      66.750  -4.735 -32.507  1.00  0.00    -0.013 C
HETATM   25  C15 UNL     1      65.517  -4.566 -31.656  1.00  0.00     0.014 C
ENDBRANCH  15  16
ENDBRANCH  14  15
ENDBRANCH   1  14
TORSDOF 8
ENDMDL