MODEL 4
REMARK VINA RESULT: -7.484862193      3.516      4.735
REMARK  12 active torsions:
REMARK  status: ('A' for Active; 'I' for Inactive)
REMARK    1  A    between atoms: C2_2  and  C4_4
REMARK    2  A    between atoms: C5_5  and  O1_6
REMARK    3  A    between atoms: C6_8  and  O2_9
REMARK    4  A    between atoms: O2_9  and  C7_10
REMARK    5  A    between atoms: C9_13  and  O4_14
REMARK    6  A    between atoms: O4_14  and  C10_15
REMARK    7  A    between atoms: C12_17  and  C13_18
REMARK    8  A    between atoms: C16_23  and  N1_24
REMARK    9  A    between atoms: C17_28  and  N2_29
REMARK   10  A    between atoms: C18_33  and  O7_34
REMARK   11  A    between atoms: C19_36  and  O8_37
REMARK   12  A    between atoms: C20_39  and  O9_40
ROOT
HETATM    1  C7  UNL     1      20.821  24.065  26.484  1.00  0.00     0.291 C
HETATM    2  O3  UNL     1      20.596  25.457  26.358  1.00  0.00    -0.356 OA
HETATM    3  C8  UNL     1      21.534  25.917  25.403  1.00  0.00     0.205 C
HETATM    4  C9  UNL     1      22.918  26.019  26.004  1.00  0.00     0.179 C
HETATM    5  C17 UNL     1      22.894  25.133  27.255  1.00  0.00     0.247 C
HETATM    6  C18 UNL     1      22.286  23.812  26.762  1.00  0.00     0.206 C
ENDROOT
BRANCH   1   7
HETATM    7  O2  UNL     1      20.112  23.501  27.519  1.00  0.00    -0.348 OA
BRANCH   7   8
HETATM    8  C6  UNL     1      20.612  22.292  27.954  1.00  0.00     0.185 C
HETATM    9  C5  UNL     1      19.631  21.203  27.614  1.00  0.00     0.160 C
HETATM   10  C4  UNL     1      19.817  20.151  28.649  1.00  0.00     0.076 C
HETATM   11  C20 UNL     1      20.805  20.718  29.651  1.00  0.00     0.162 C
HETATM   12  C19 UNL     1      20.710  22.222  29.466  1.00  0.00     0.179 C
BRANCH   9  13
HETATM   13  O1  UNL     1      18.333  21.718  27.539  1.00  0.00    -0.392 OA
ATOM     14  H1  UNL     1      18.122  22.133  26.711  1.00  0.00     0.210 HD
ENDBRANCH   9  13
BRANCH  10  15
HETATM   15  C2  UNL     1      18.603  19.614  29.282  1.00  0.00    -0.084 C
HETATM   16  C1  UNL     1      18.261  18.364  29.085  1.00  0.00     0.014 C
HETATM   17  C3  UNL     1      17.714  20.420  30.188  1.00  0.00     0.043 C
ENDBRANCH  10  15
BRANCH  11  18
HETATM   18  O9  UNL     1      20.651  20.279  30.929  1.00  0.00    -0.387 OA
HETATM   19  C21 UNL     1      21.642  20.844  31.770  1.00  0.00     0.202 C
ENDBRANCH  11  18
BRANCH  12  20
HETATM   20  O8  UNL     1      19.648  22.819  30.077  1.00  0.00    -0.390 OA
ATOM     21  H8  UNL     1      19.910  23.312  30.847  1.00  0.00     0.210 HD
ENDBRANCH  12  20
ENDBRANCH   7   8
ENDBRANCH   1   7
BRANCH   6  22
HETATM   22  O7  UNL     1      22.962  23.505  25.562  1.00  0.00    -0.388 OA
ATOM     23  H7  UNL     1      23.740  22.994  25.747  1.00  0.00     0.210 HD
ENDBRANCH   6  22
BRANCH   5  24
HETATM   24  N2  UNL     1      22.093  25.759  28.281  1.00  0.00    -0.070 N
ATOM     25  H23 UNL     1      21.494  26.493  27.904  1.00  0.00     0.274 HD
ATOM     26  H22 UNL     1      21.363  25.138  28.631  1.00  0.00     0.274 HD
ATOM     27  H21 UNL     1      22.696  26.102  29.028  1.00  0.00     0.274 HD
ENDBRANCH   5  24
BRANCH   4  28
HETATM   28  O4  UNL     1      23.293  27.308  26.273  1.00  0.00    -0.374 OA
BRANCH  28  29
HETATM   29  C10 UNL     1      22.488  28.259  25.659  1.00  0.00     0.153 C
HETATM   30  C11 UNL     1      23.129  28.973  24.518  1.00  0.00     0.049 C
HETATM   31  C12 UNL     1      22.081  29.886  23.900  1.00  0.00     0.089 C
HETATM   32  C14 UNL     1      21.817  30.978  24.941  1.00  0.00     0.017 C
HETATM   33  C15 UNL     1      21.243  30.380  26.182  1.00  0.00     0.036 C
HETATM   34  C16 UNL     1      21.982  29.211  26.733  1.00  0.00     0.212 C
BRANCH  31  35
HETATM   35  C13 UNL     1      22.512  30.463  22.637  1.00  0.00     0.177 C
HETATM   36  O5  UNL     1      23.011  29.770  21.735  1.00  0.00    -0.648 OA
HETATM   37  O6  UNL     1      22.371  31.820  22.417  1.00  0.00    -0.648 OA
ENDBRANCH  31  35
BRANCH  34  38
HETATM   38  N1  UNL     1      21.014  28.435  27.518  1.00  0.00    -0.073 N
ATOM     39  H13 UNL     1      20.624  27.637  27.017  1.00  0.00     0.274 HD
ATOM     40  H12 UNL     1      21.435  27.904  28.280  1.00  0.00     0.274 HD
ATOM     41  H11 UNL     1      20.312  29.108  27.827  1.00  0.00     0.274 HD
ENDBRANCH  34  38
ENDBRANCH  28  29
ENDBRANCH   4  28
TORSDOF 12
ENDMDL