MODEL 5
REMARK VINA RESULT: -7.526737880      3.785      6.730
REMARK  14 active torsions:
REMARK  status: ('A' for Active; 'I' for Inactive)
REMARK    1  A    between atoms: C1_2  and  O3_4
REMARK    2  A    between atoms: O3_4  and  C2_5
REMARK    3  A    between atoms: C3_6  and  O4_7
REMARK    4  A    between atoms: C4_9  and  O5_10
REMARK    5  A    between atoms: C5_12  and  O6_13
REMARK    6  A    between atoms: C6_15  and  O7_16
REMARK    7  A    between atoms: C6_15  and  C7_18
REMARK    8  A    between atoms: N1_23  and  C11_24
REMARK    9  A    between atoms: C11_24  and  C12_25
REMARK   10  A    between atoms: C12_25  and  C13_26
REMARK   11  A    between atoms: C13_26  and  C14_27
REMARK   12  A    between atoms: C14_27  and  C15_28
REMARK   13  A    between atoms: C15_28  and  N2_29
REMARK   14  A    between atoms: C21_35  and  O9_36
ROOT
HETATM    1  C2  UNL     1      23.529  26.945  26.701  1.00  0.00     0.198 C
HETATM    2  C3  UNL     1      22.822  28.201  26.398  1.00  0.00     0.181 C
HETATM    3  C4  UNL     1      21.437  27.983  25.918  1.00  0.00     0.181 C
HETATM    4  C5  UNL     1      20.619  26.978  26.692  1.00  0.00     0.188 C
HETATM    5  C6  UNL     1      21.451  25.787  27.113  1.00  0.00     0.147 C
HETATM    6  C21 UNL     1      22.717  25.747  26.273  1.00  0.00     0.189 C
ENDROOT
BRANCH   5   7
HETATM    7  O7  UNL     1      21.896  26.027  28.407  1.00  0.00    -0.382 OA
ATOM      8  H7  UNL     1      22.818  25.799  28.438  1.00  0.00     0.210 HD
ENDBRANCH   5   7
BRANCH   5   9
HETATM    9  C7  UNL     1      20.684  24.514  27.098  1.00  0.00     0.286 C
HETATM   10  C8  UNL     1      19.604  24.546  28.193  1.00  0.00     0.206 C
HETATM   11  O8  UNL     1      20.238  24.553  29.433  1.00  0.00    -0.387 OA
HETATM   12  C9  UNL     1      20.696  23.251  29.634  1.00  0.00     0.198 C
HETATM   13  C10 UNL     1      21.644  22.809  28.559  1.00  0.00     0.299 C
HETATM   14  N1  UNL     1      21.407  23.325  27.258  1.00  0.00     0.100 N
BRANCH  14  15
HETATM   15  C11 UNL     1      20.877  22.213  26.450  1.00  0.00     0.277 C
BRANCH  15  16
HETATM   16  C12 UNL     1      21.896  21.528  25.655  1.00  0.00     0.057 C
BRANCH  16  17
HETATM   17  C13 UNL     1      21.906  21.816  24.209  1.00  0.00    -0.027 C
BRANCH  17  18
HETATM   18  C14 UNL     1      22.004  23.154  23.637  1.00  0.00    -0.001 C
BRANCH  18  19
HETATM   19  C15 UNL     1      21.403  23.522  22.344  1.00  0.00     0.299 C
BRANCH  19  20
HETATM   20  N2  UNL     1      22.541  23.593  21.383  1.00  0.00     0.091 N
HETATM   21  C16 UNL     1      23.507  24.583  21.798  1.00  0.00     0.272 C
HETATM   22  C17 UNL     1      24.278  25.042  20.601  1.00  0.00     0.030 C
HETATM   23  C18 UNL     1      24.473  23.906  19.589  1.00  0.00     0.003 C
HETATM   24  C19 UNL     1      23.090  23.578  19.064  1.00  0.00     0.030 C
HETATM   25  C20 UNL     1      22.037  23.985  20.080  1.00  0.00     0.272 C
ENDBRANCH  19  20
ENDBRANCH  18  19
ENDBRANCH  17  18
ENDBRANCH  16  17
ENDBRANCH  15  16
ENDBRANCH  14  15
ENDBRANCH   5   9
BRANCH   4  26
HETATM   26  O6  UNL     1      19.640  26.536  25.759  1.00  0.00    -0.390 OA
ATOM     27  H6  UNL     1      18.929  26.219  26.302  1.00  0.00     0.210 HD
ENDBRANCH   4  26
BRANCH   6  28
HETATM   28  O9  UNL     1      22.514  25.645  24.930  1.00  0.00    -0.390 OA
ATOM     29  H9  UNL     1      21.617  25.469  24.675  1.00  0.00     0.210 HD
ENDBRANCH   6  28
BRANCH   3  30
HETATM   30  O5  UNL     1      20.760  29.221  26.069  1.00  0.00    -0.390 OA
ATOM     31  H5  UNL     1      20.682  29.373  27.003  1.00  0.00     0.210 HD
ENDBRANCH   3  30
BRANCH   1  32
HETATM   32  O3  UNL     1      24.853  26.889  26.204  1.00  0.00    -0.285 OA
BRANCH  32  33
HETATM   33  C1  UNL     1      25.256  27.549  25.053  1.00  0.00     0.333 C
HETATM   34  O1  UNL     1      26.109  28.489  25.215  1.00  0.00    -0.624 OA
HETATM   35  O2  UNL     1      24.775  27.225  23.780  1.00  0.00    -0.624 OA
ENDBRANCH  32  33
ENDBRANCH   1  32
BRANCH   2  36
HETATM   36  O4  UNL     1      22.856  29.040  27.541  1.00  0.00    -0.390 OA
ATOM     37  H4  UNL     1      22.351  29.826  27.365  1.00  0.00     0.210 HD
ENDBRANCH   2  36
TORSDOF 14
ENDMDL