MODEL 1
REMARK VINA RESULT: -7.251883828      0.000      0.000
REMARK  12 active torsions:
REMARK  status: ('A' for Active; 'I' for Inactive)
REMARK       I    between atoms: C2_2  and  N1_4
REMARK    1  A    between atoms: N1_4  and  C3_5
REMARK    2  A    between atoms: C4_6  and  O2_7
REMARK    3  A    between atoms: O2_7  and  C5_8
REMARK    4  A    between atoms: C7_10  and  N2_11
REMARK    5  A    between atoms: C9_16  and  C10_17
REMARK    6  A    between atoms: C10_17  and  N3_18
REMARK    7  A    between atoms: C11_23  and  N4_24
REMARK    8  A    between atoms: C13_29  and  N5_30
REMARK       I    between atoms: N5_30  and  C14_32
REMARK    9  A    between atoms: C14_32  and  O5_34
REMARK   10  A    between atoms: O5_34  and  C15_35
REMARK   11  A    between atoms: C18_38  and  O6_39
REMARK   12  A    between atoms: O6_39  and  C19_40
ROOT
HETATM    1  C3  UNL     1      22.424  23.024  26.373  1.00  0.00     0.229 C
HETATM    2  C4  UNL     1      22.046  23.334  27.782  1.00  0.00     0.193 C
HETATM    3  C11 UNL     1      22.535  24.710  28.214  1.00  0.00     0.217 C
HETATM    4  C12 UNL     1      23.399  25.409  27.230  1.00  0.00     0.063 C
HETATM    5  C13 UNL     1      22.904  25.415  25.821  1.00  0.00     0.121 C
HETATM    6  C18 UNL     1      22.211  24.162  25.393  1.00  0.00     0.193 C
ENDROOT
BRANCH   2   7
HETATM    7  O2  UNL     1      20.720  23.303  28.088  1.00  0.00    -0.351 OA
BRANCH   7   8
HETATM    8  C5  UNL     1      20.365  22.262  28.953  1.00  0.00     0.262 C
HETATM    9  C6  UNL     1      18.991  21.803  28.738  1.00  0.00     0.093 C
HETATM   10  C7  UNL     1      18.041  22.177  29.856  1.00  0.00     0.190 C
HETATM   11  C8  UNL     1      18.635  21.682  31.158  1.00  0.00     0.066 C
HETATM   12  C9  UNL     1      20.098  22.049  31.279  1.00  0.00     0.152 C
HETATM   13  O3  UNL     1      20.588  22.768  30.247  1.00  0.00    -0.354 OA
BRANCH  10  14
HETATM   14  N2  UNL     1      17.807  23.588  29.951  1.00  0.00    -0.075 N
ATOM     15  H23 UNL     1      18.678  24.108  29.844  1.00  0.00     0.274 HD
ATOM     16  H22 UNL     1      17.306  23.929  29.131  1.00  0.00     0.274 HD
ATOM     17  H21 UNL     1      17.326  23.859  30.808  1.00  0.00     0.274 HD
ENDBRANCH  10  14
BRANCH  12  18
HETATM   18  C10 UNL     1      20.862  20.847  31.714  1.00  0.00     0.261 C
BRANCH  18  19
HETATM   19  N3  UNL     1      22.272  20.937  31.702  1.00  0.00    -0.077 N
ATOM     20  H33 UNL     1      22.653  20.209  31.098  1.00  0.00     0.274 HD
ATOM     21  H32 UNL     1      22.553  21.775  31.191  1.00  0.00     0.274 HD
ATOM     22  H31 UNL     1      22.750  20.915  32.603  1.00  0.00     0.274 HD
ENDBRANCH  18  19
ENDBRANCH  12  18
ENDBRANCH   7   8
ENDBRANCH   2   7
BRANCH   1  23
HETATM   23  N1  UNL     1      21.958  21.855  25.835  1.00  0.00    -0.405 NA
HETATM   24  C2  UNL     1      21.497  20.693  25.302  1.00  0.00     0.282 C
HETATM   25  C1  UNL     1      21.009  19.592  26.250  1.00  0.00     0.134 C
HETATM   26  O1  UNL     1      21.392  20.335  24.085  1.00  0.00    -0.258 OA
ENDBRANCH   1  23
BRANCH   3  27
HETATM   27  N4  UNL     1      21.447  25.601  28.572  1.00  0.00    -0.072 N
ATOM     28  H43 UNL     1      20.708  25.577  27.870  1.00  0.00     0.274 HD
ATOM     29  H42 UNL     1      20.927  25.242  29.371  1.00  0.00     0.274 HD
ATOM     30  H41 UNL     1      21.762  26.557  28.738  1.00  0.00     0.274 HD
ENDBRANCH   3  27
BRANCH   6  31
HETATM   31  O6  UNL     1      22.844  23.736  24.182  1.00  0.00    -0.311 OA
BRANCH  31  32
HETATM   32  C19 UNL     1      22.390  24.015  22.924  1.00  0.00     0.255 C
HETATM   33  C20 UNL     1      23.220  24.910  22.072  1.00  0.00     0.126 C
HETATM   34  O7  UNL     1      21.315  23.511  22.549  1.00  0.00    -0.266 OA
ENDBRANCH  31  32
ENDBRANCH   6  31
BRANCH   5  35
HETATM   35  N5  UNL     1      22.001  26.512  25.512  1.00  0.00    -0.330 N
HETATM   36  C14 UNL     1      22.447  27.833  25.316  1.00  0.00     0.361 C
HETATM   37  O4  UNL     1      23.671  28.171  25.402  1.00  0.00    -0.238 OA
ATOM     38  H5  UNL     1      21.002  26.317  25.435  1.00  0.00     0.165 HD
BRANCH  36  39
HETATM   39  O5  UNL     1      21.567  28.862  25.009  1.00  0.00    -0.299 OA
BRANCH  39  40
HETATM   40  C15 UNL     1      21.953  30.229  25.096  1.00  0.00     0.125 C
HETATM   41  C16 UNL     1      22.049  30.849  23.721  1.00  0.00     0.040 C
HETATM   42  C17 UNL     1      20.910  30.959  25.891  1.00  0.00     0.040 C
ENDBRANCH  39  40
ENDBRANCH  36  39
ENDBRANCH   5  35
TORSDOF 12
ENDMDL