MODEL 2
REMARK VINA RESULT: -8.096389720      0.206      1.335
REMARK  13 active torsions:
REMARK  status: ('A' for Active; 'I' for Inactive)
REMARK    1  A    between atoms: O1_1  and  C1_3
REMARK    2  A    between atoms: C1_3  and  C2_4
REMARK    3  A    between atoms: C3_6  and  O3_7
REMARK    4  A    between atoms: O3_7  and  C4_8
REMARK    5  A    between atoms: C4_8  and  C5_9
REMARK    6  A    between atoms: C6_11  and  O5_12
REMARK    7  A    between atoms: O5_12  and  C7_13
REMARK    8  A    between atoms: C7_13  and  C8_14
REMARK    9  A    between atoms: C18_24  and  O6_25
REMARK   10  A    between atoms: C19_27  and  O7_28
REMARK   11  A    between atoms: C20_30  and  O8_31
REMARK   12  A    between atoms: C21_33  and  O9_34
REMARK   13  A    between atoms: C22_36  and  O10_37
ROOT
HETATM    1  C5  UNL     1      22.745  27.909  26.456  1.00  0.00     0.180 C
HETATM    2  O4  UNL     1      22.415  28.153  25.164  1.00  0.00    -0.348 OA
HETATM    3  C6  UNL     1      23.306  28.043  24.166  1.00  0.00     0.291 C
HETATM    4  C18 UNL     1      24.740  28.325  24.536  1.00  0.00     0.204 C
HETATM    5  C19 UNL     1      25.075  27.373  25.697  1.00  0.00     0.183 C
HETATM    6  C20 UNL     1      24.179  27.852  26.820  1.00  0.00     0.180 C
ENDROOT
BRANCH   1   7
HETATM    7  C4  UNL     1      21.827  26.928  27.148  1.00  0.00     0.205 C
BRANCH   7   8
HETATM    8  O3  UNL     1      22.022  25.630  27.061  1.00  0.00    -0.356 OA
BRANCH   8   9
HETATM    9  C3  UNL     1      21.802  24.795  26.067  1.00  0.00     0.291 C
HETATM   10  O2  UNL     1      22.734  24.893  25.006  1.00  0.00    -0.348 OA
HETATM   11  C2  UNL     1      22.319  23.886  24.155  1.00  0.00     0.179 C
HETATM   12  C22 UNL     1      21.789  22.742  25.016  1.00  0.00     0.182 C
HETATM   13  C21 UNL     1      22.080  23.314  26.412  1.00  0.00     0.204 C
BRANCH  11  14
HETATM   14  C1  UNL     1      21.236  24.322  23.184  1.00  0.00     0.198 C
BRANCH  14  15
HETATM   15  O1  UNL     1      21.224  23.490  22.054  1.00  0.00    -0.398 OA
ATOM     16  H1  UNL     1      20.439  23.637  21.539  1.00  0.00     0.209 HD
ENDBRANCH  14  15
ENDBRANCH  11  14
BRANCH  12  17
HETATM   17  O10 UNL     1      22.461  21.568  24.789  1.00  0.00    -0.390 OA
ATOM     18  H10 UNL     1      22.119  20.852  25.312  1.00  0.00     0.210 HD
ENDBRANCH  12  17
BRANCH  13  19
HETATM   19  O9  UNL     1      23.424  23.177  26.650  1.00  0.00    -0.388 OA
ATOM     20  H9  UNL     1      23.533  22.643  27.428  1.00  0.00     0.210 HD
ENDBRANCH  13  19
ENDBRANCH   8   9
ENDBRANCH   7   8
ENDBRANCH   1   7
BRANCH   6  21
HETATM   21  O8  UNL     1      24.448  27.236  28.001  1.00  0.00    -0.390 OA
ATOM     22  H8  UNL     1      25.336  26.910  28.091  1.00  0.00     0.210 HD
ENDBRANCH   6  21
BRANCH   3  23
HETATM   23  O5  UNL     1      22.991  28.998  23.179  1.00  0.00    -0.358 OA
BRANCH  23  24
HETATM   24  C7  UNL     1      22.700  30.228  23.731  1.00  0.00     0.180 C
BRANCH  24  25
HETATM   25  C8  UNL     1      21.793  31.061  22.883  1.00  0.00    -0.018 C
HETATM   26  C9  UNL     1      22.268  32.499  22.900  1.00  0.00     0.016 C
HETATM   27  C10 UNL     1      21.278  33.403  22.194  1.00  0.00    -0.013 C
HETATM   28  C11 UNL     1      19.893  33.287  22.795  1.00  0.00     0.009 C
HETATM   29  C15 UNL     1      21.164  32.952  20.748  1.00  0.00     0.009 C
HETATM   30  C12 UNL     1      19.442  31.858  22.741  1.00  0.00    -0.013 C
HETATM   31  C13 UNL     1      19.372  31.403  21.303  1.00  0.00     0.009 C
HETATM   32  C17 UNL     1      20.406  31.007  23.516  1.00  0.00     0.016 C
HETATM   33  C14 UNL     1      20.766  31.494  20.712  1.00  0.00    -0.013 C
HETATM   34  C16 UNL     1      21.744  30.618  21.449  1.00  0.00     0.016 C
ENDBRANCH  24  25
ENDBRANCH  23  24
ENDBRANCH   3  23
BRANCH   5  35
HETATM   35  O7  UNL     1      26.386  27.484  26.088  1.00  0.00    -0.390 OA
ATOM     36  H7  UNL     1      26.908  26.749  25.791  1.00  0.00     0.210 HD
ENDBRANCH   5  35
BRANCH   4  37
HETATM   37  O6  UNL     1      25.591  28.134  23.477  1.00  0.00    -0.388 OA
ATOM     38  H6  UNL     1      25.472  28.791  22.802  1.00  0.00     0.210 HD
ENDBRANCH   4  37
TORSDOF 13
ENDMDL