MODEL 1
REMARK VINA RESULT: -8.233135690      0.000      0.000
REMARK  11 active torsions:
REMARK  status: ('A' for Active; 'I' for Inactive)
REMARK    1  A    between atoms: C2_2  and  C3_3
REMARK    2  A    between atoms: C4_4  and  C5_5
REMARK    3  A    between atoms: C8_10  and  C9_11
REMARK    4  A    between atoms: C10_13  and  C11_14
REMARK    5  A    between atoms: C11_14  and  C12_15
REMARK    6  A    between atoms: C16_20  and  N1_21
REMARK    7  A    between atoms: C18_25  and  O5_26
REMARK    8  A    between atoms: C19_31  and  N3_32
REMARK    9  A    between atoms: N3_32  and  C20_34
REMARK   10  A    between atoms: C21_36  and  O7_37
REMARK   11  A    between atoms: C22_39  and  O8_40
ROOT
HETATM    1  C5  UNL     1      23.604  26.678  23.048  1.00  0.00     0.179 C
HETATM    2  O1  UNL     1      23.729  26.139  24.294  1.00  0.00    -0.339 OA
HETATM    3  C6  UNL     1      23.271  26.872  25.349  1.00  0.00     0.274 C
HETATM    4  C7  UNL     1      24.029  26.370  26.585  1.00  0.00     0.241 C
HETATM    5  O2  UNL     1      23.154  25.592  27.315  1.00  0.00    -0.352 OA
HETATM    6  C8  UNL     1      22.200  25.231  26.404  1.00  0.00     0.356 C
HETATM    7  N2  UNL     1      21.906  26.482  25.742  1.00  0.00    -0.010 N
ATOM      8  H21 UNL     1      21.217  26.441  24.991  1.00  0.00     0.284 HD
ATOM      9  H22 UNL     1      21.384  27.166  26.289  1.00  0.00     0.284 HD
HETATM   10  C19 UNL     1      23.444  28.342  25.291  1.00  0.00     0.180 C
HETATM   11  C21 UNL     1      23.423  28.929  23.900  1.00  0.00     0.177 C
HETATM   12  C22 UNL     1      24.292  28.049  23.021  1.00  0.00     0.181 C
ENDROOT
BRANCH  10  13
HETATM   13  N3  UNL     1      22.355  28.955  26.013  1.00  0.00    -0.356 N
ATOM     14  H3  UNL     1      21.595  29.411  25.506  1.00  0.00     0.162 HD
BRANCH  13  15
HETATM   15  C20 UNL     1      22.349  28.921  27.428  1.00  0.00     0.349 C
HETATM   16  O6  UNL     1      21.403  28.375  28.040  1.00  0.00    -0.284 OA
ENDBRANCH  13  15
ENDBRANCH  10  13
BRANCH   1  17
HETATM   17  C4  UNL     1      24.334  25.830  22.081  1.00  0.00     0.007 C
HETATM   18  C3  UNL     1      23.699  25.170  21.140  1.00  0.00    -0.002 C
BRANCH  18  19
HETATM   19  C2  UNL     1      24.357  24.326  20.169  1.00  0.00    -0.010 C
HETATM   20  C1  UNL     1      23.659  23.672  19.269  1.00  0.00     0.011 C
ENDBRANCH  18  19
ENDBRANCH   1  17
BRANCH   6  21
HETATM   21  C9  UNL     1      20.985  24.590  26.989  1.00  0.00     0.209 C
HETATM   22  O3  UNL     1      21.182  23.996  28.211  1.00  0.00    -0.371 OA
HETATM   23  C10 UNL     1      20.086  23.202  28.436  1.00  0.00     0.159 C
HETATM   24  C16 UNL     1      19.525  22.793  27.096  1.00  0.00     0.245 C
HETATM   25  C18 UNL     1      20.536  23.410  26.151  1.00  0.00     0.184 C
BRANCH  23  26
HETATM   26  C11 UNL     1      20.414  21.937  29.194  1.00  0.00     0.074 C
BRANCH  26  27
HETATM   27  C12 UNL     1      20.091  22.039  30.639  1.00  0.00    -0.032 A
HETATM   28  C13 UNL     1      19.094  22.788  31.228  1.00  0.00     0.033 A
HETATM   29  C14 UNL     1      19.185  22.560  32.586  1.00  0.00     0.142 A
HETATM   30  O4  UNL     1      20.179  21.723  32.802  1.00  0.00    -0.334 OA
HETATM   31  C15 UNL     1      20.751  21.385  31.657  1.00  0.00     0.148 A
ENDBRANCH  26  27
ENDBRANCH  23  26
BRANCH  24  32
HETATM   32  N1  UNL     1      18.233  23.443  26.836  1.00  0.00    -0.070 N
HETATM   33  C17 UNL     1      17.201  22.759  27.590  1.00  0.00     0.267 C
ATOM     34  H12 UNL     1      18.257  24.444  27.029  1.00  0.00     0.277 HD
ATOM     35  H11 UNL     1      18.018  23.495  25.840  1.00  0.00     0.277 HD
ENDBRANCH  24  32
BRANCH  25  36
HETATM   36  O5  UNL     1      21.647  22.586  25.985  1.00  0.00    -0.391 OA
ATOM     37  H5  UNL     1      21.406  21.728  26.314  1.00  0.00     0.210 HD
ENDBRANCH  25  36
ENDBRANCH   6  21
BRANCH  11  38
HETATM   38  O7  UNL     1      22.122  28.878  23.393  1.00  0.00    -0.391 OA
ATOM     39  H7  UNL     1      21.874  29.738  23.075  1.00  0.00     0.210 HD
ENDBRANCH  11  38
BRANCH  12  40
HETATM   40  O8  UNL     1      25.527  27.920  23.663  1.00  0.00    -0.390 OA
ATOM     41  H8  UNL     1      26.032  28.704  23.481  1.00  0.00     0.210 HD
ENDBRANCH  12  40
TORSDOF 11
ENDMDL