MODEL 2
REMARK VINA RESULT: -8.888805223      5.558     10.648
REMARK  11 active torsions:
REMARK  status: ('A' for Active; 'I' for Inactive)
REMARK    1  A    between atoms: C1_2  and  C2_4
REMARK    2  A    between atoms: C3_6  and  O4_7
REMARK    3  A    between atoms: O4_7  and  C4_8
REMARK    4  A    between atoms: C4_8  and  C5_9
REMARK    5  A    between atoms: C7_11  and  O5_12
REMARK    6  A    between atoms: C8_14  and  O6_15
REMARK    7  A    between atoms: C9_17  and  O7_18
REMARK    8  A    between atoms: O7_18  and  C10_19
REMARK    9  A    between atoms: C10_19  and  C11_20
REMARK   10  A    between atoms: C19_28  and  O8_29
REMARK   11  A    between atoms: C21_34  and  O11_35
ROOT
HETATM    1  C5  UNL     1      19.989  21.798  27.421  1.00  0.00     0.151 C
HETATM    2  C6  UNL     1      20.615  20.838  26.448  1.00  0.00     0.068 C
HETATM    3  C7  UNL     1      22.000  21.348  26.026  1.00  0.00     0.154 C
HETATM    4  C8  UNL     1      22.046  22.851  26.084  1.00  0.00     0.202 C
HETATM    5  C9  UNL     1      21.560  23.428  27.372  1.00  0.00     0.291 C
HETATM    6  O10 UNL     1      21.018  22.411  28.150  1.00  0.00    -0.351 OA
ENDROOT
BRANCH   5   7
HETATM    7  O7  UNL     1      22.517  24.155  28.036  1.00  0.00    -0.356 OA
BRANCH   7   8
HETATM    8  C10 UNL     1      22.128  25.472  28.266  1.00  0.00     0.203 C
BRANCH   8   9
HETATM    9  C11 UNL     1      22.203  26.253  26.975  1.00  0.00     0.148 C
HETATM   10  C12 UNL     1      21.607  27.623  27.097  1.00  0.00     0.039 C
HETATM   11  C13 UNL     1      22.525  28.589  26.385  1.00  0.00    -0.003 C
HETATM   12  C14 UNL     1      21.877  29.914  26.125  1.00  0.00     0.005 C
HETATM   13  C18 UNL     1      22.914  27.990  25.053  1.00  0.00     0.045 C
HETATM   14  C15 UNL     1      21.531  30.155  24.674  1.00  0.00     0.000 C
HETATM   15  C16 UNL     1      22.744  30.036  23.776  1.00  0.00     0.001 C
HETATM   16  C17 UNL     1      23.753  29.051  24.343  1.00  0.00     0.010 C
HETATM   17  C19 UNL     1      23.699  26.734  25.287  1.00  0.00     0.261 C
HETATM   18  O9  UNL     1      23.515  26.319  26.582  1.00  0.00    -0.354 OA
BRANCH  17  19
HETATM   19  O8  UNL     1      23.255  25.709  24.427  1.00  0.00    -0.371 OA
ATOM     20  H8  UNL     1      23.032  24.931  24.925  1.00  0.00     0.212 HD
ENDBRANCH  17  19
ENDBRANCH   8   9
ENDBRANCH   7   8
ENDBRANCH   5   7
BRANCH   4  21
HETATM   21  O6  UNL     1      23.378  23.222  25.830  1.00  0.00    -0.388 OA
ATOM     22  H6  UNL     1      23.371  23.729  25.027  1.00  0.00     0.210 HD
ENDBRANCH   4  21
BRANCH   3  23
HETATM   23  O5  UNL     1      22.225  20.984  24.692  1.00  0.00    -0.393 OA
ATOM     24  H5  UNL     1      22.978  21.464  24.368  1.00  0.00     0.210 HD
ENDBRANCH   3  23
BRANCH   1  25
HETATM   25  C4  UNL     1      19.058  21.111  28.382  1.00  0.00     0.203 C
BRANCH  25  26
HETATM   26  O4  UNL     1      19.619  20.099  29.113  1.00  0.00    -0.359 OA
BRANCH  26  27
HETATM   27  C3  UNL     1      18.831  19.575  30.113  1.00  0.00     0.263 C
HETATM   28  O3  UNL     1      19.627  19.293  31.198  1.00  0.00    -0.343 OA
HETATM   29  C2  UNL     1      19.628  20.358  32.063  1.00  0.00     0.254 C
HETATM   30  C21 UNL     1      18.377  21.167  31.821  1.00  0.00     0.162 C
HETATM   31  C20 UNL     1      17.773  20.559  30.584  1.00  0.00     0.095 C
BRANCH  29  32
HETATM   32  C1  UNL     1      20.850  21.158  31.851  1.00  0.00     0.205 C
HETATM   33  O1  UNL     1      20.753  22.353  31.511  1.00  0.00    -0.646 OA
HETATM   34  O2  UNL     1      22.093  20.598  32.027  1.00  0.00    -0.646 OA
ENDBRANCH  29  32
BRANCH  30  35
HETATM   35  O11 UNL     1      17.547  21.021  32.928  1.00  0.00    -0.392 OA
ATOM     36  H11 UNL     1      17.897  21.555  33.631  1.00  0.00     0.210 HD
ENDBRANCH  30  35
ENDBRANCH  26  27
ENDBRANCH  25  26
ENDBRANCH   1  25
TORSDOF 11
ENDMDL