MODEL 2
REMARK VINA RESULT: -7.385919047      1.219      1.296
REMARK  12 active torsions:
REMARK  status: ('A' for Active; 'I' for Inactive)
REMARK    1  A    between atoms: O1_2  and  C2_3
REMARK    2  A    between atoms: C2_3  and  C3_5
REMARK    3  A    between atoms: C6_8  and  O3_9
REMARK    4  A    between atoms: C7_11  and  N1_12
REMARK    5  A    between atoms: N1_12  and  C8_13
REMARK    6  A    between atoms: C9_15  and  O5_16
REMARK    7  A    between atoms: O5_16  and  C10_17
REMARK    8  A    between atoms: C12_19  and  N2_20
REMARK    9  A    between atoms: C13_24  and  O6_25
REMARK   10  A    between atoms: O6_25  and  C14_26
REMARK   11  A    between atoms: C19_31  and  N3_32
REMARK   12  A    between atoms: C21_37  and  N4_38
ROOT
HETATM    1  C10 UNL     1      21.394  28.129  25.660  1.00  0.00     0.154 C
HETATM    2  C11 UNL     1      22.894  27.965  25.683  1.00  0.00     0.069 C
HETATM    3  C12 UNL     1      23.423  27.279  24.456  1.00  0.00     0.216 C
HETATM    4  C13 UNL     1      22.798  25.994  24.116  1.00  0.00     0.182 C
HETATM    5  C19 UNL     1      22.388  25.181  25.322  1.00  0.00     0.216 C
HETATM    6  C20 UNL     1      21.024  25.577  25.714  1.00  0.00     0.070 C
HETATM    7  C21 UNL     1      20.670  26.930  26.125  1.00  0.00     0.214 C
ENDROOT
BRANCH   1   8
HETATM    8  O5  UNL     1      20.952  29.215  26.402  1.00  0.00    -0.375 OA
BRANCH   8   9
HETATM    9  C9  UNL     1      20.564  30.348  25.794  1.00  0.00     0.161 C
HETATM   10  C7  UNL     1      19.058  30.680  25.936  1.00  0.00     0.223 C
HETATM   11  C6  UNL     1      18.414  30.516  24.527  1.00  0.00     0.157 C
HETATM   12  C5  UNL     1      18.924  31.701  23.738  1.00  0.00     0.054 C
HETATM   13  C3  UNL     1      20.384  31.549  23.568  1.00  0.00     0.049 C
HETATM   14  C4  UNL     1      21.059  32.825  24.013  1.00  0.00     0.026 C
HETATM   15  C22 UNL     1      20.983  30.425  24.366  1.00  0.00     0.054 C
BRANCH  10  16
HETATM   16  N1  UNL     1      18.406  29.966  26.865  1.00  0.00    -0.412 NA
BRANCH  16  17
HETATM   17  C8  UNL     1      17.739  29.236  27.814  1.00  0.00     0.435 C
HETATM   18  O4  UNL     1      17.539  28.003  27.947  1.00  0.00    -0.269 OA
ENDBRANCH  16  17
ENDBRANCH  10  16
BRANCH  11  19
HETATM   19  O3  UNL     1      17.062  30.681  24.689  1.00  0.00    -0.392 OA
ATOM     20  H3  UNL     1      16.641  29.875  24.414  1.00  0.00     0.210 HD
ENDBRANCH  11  19
BRANCH  13  21
HETATM   21  C2  UNL     1      20.692  31.383  22.109  1.00  0.00     0.267 C
HETATM   22  O2  UNL     1      21.854  31.320  21.644  1.00  0.00    -0.264 OA
BRANCH  21  23
HETATM   23  O1  UNL     1      19.651  31.290  21.178  1.00  0.00    -0.326 OA
HETATM   24  C1  UNL     1      19.845  30.903  19.831  1.00  0.00     0.213 C
ENDBRANCH  21  23
ENDBRANCH  13  21
ENDBRANCH   8   9
ENDBRANCH   1   8
BRANCH   7  25
HETATM   25  N4  UNL     1      19.268  27.105  25.615  1.00  0.00    -0.072 N
ATOM     26  H43 UNL     1      18.684  26.276  25.719  1.00  0.00     0.274 HD
ATOM     27  H42 UNL     1      18.694  27.724  26.187  1.00  0.00     0.274 HD
ATOM     28  H41 UNL     1      19.377  27.415  24.650  1.00  0.00     0.274 HD
ENDBRANCH   7  25
BRANCH   3  29
HETATM   29  N2  UNL     1      24.854  27.067  24.684  1.00  0.00    -0.072 N
ATOM     30  H23 UNL     1      25.058  26.215  25.207  1.00  0.00     0.274 HD
ATOM     31  H22 UNL     1      25.366  26.822  23.837  1.00  0.00     0.274 HD
ATOM     32  H21 UNL     1      25.203  27.912  25.136  1.00  0.00     0.274 HD
ENDBRANCH   3  29
BRANCH   4  33
HETATM   33  O6  UNL     1      23.609  25.357  23.217  1.00  0.00    -0.376 OA
BRANCH  33  34
HETATM   34  C14 UNL     1      23.125  25.211  21.960  1.00  0.00     0.122 C
HETATM   35  C15 UNL     1      22.261  23.976  21.919  1.00  0.00     0.032 C
HETATM   36  C16 UNL     1      22.132  23.633  20.485  1.00  0.00     0.002 C
HETATM   37  C17 UNL     1      23.303  24.239  19.792  1.00  0.00     0.002 C
HETATM   38  C18 UNL     1      24.172  24.852  20.902  1.00  0.00     0.032 C
ENDBRANCH  33  34
ENDBRANCH   4  33
BRANCH   5  39
HETATM   39  N3  UNL     1      23.365  25.059  26.344  1.00  0.00    -0.072 N
ATOM     40  H33 UNL     1      24.242  24.721  25.948  1.00  0.00     0.274 HD
ATOM     41  H32 UNL     1      23.653  25.985  26.662  1.00  0.00     0.274 HD
ATOM     42  H31 UNL     1      23.100  24.483  27.143  1.00  0.00     0.274 HD
ENDBRANCH   5  39
TORSDOF 12
ENDMDL