MODEL 2
REMARK VINA RESULT: -8.740893756      3.506      7.273
REMARK  10 active torsions:
REMARK  status: ('A' for Active; 'I' for Inactive)
REMARK    1  A    between atoms: N2_3  and  C2_5
REMARK    2  A    between atoms: C3_7  and  C4_8
REMARK    3  A    between atoms: C4_8  and  C5_9
REMARK       I    between atoms: C5_9  and  N3_11
REMARK    4  A    between atoms: C6_13  and  C7_14
REMARK    5  A    between atoms: C11_24  and  C12_25
REMARK    6  A    between atoms: C12_25  and  N9_32
REMARK    7  A    between atoms: N6_26  and  N7_28
REMARK    8  A    between atoms: N9_32  and  C14_34
REMARK    9  A    between atoms: C14_34  and  C15_35
REMARK   10  A    between atoms: C18_38  and  N10_39
ROOT
HETATM    1  N1  UNL     1      18.121  27.488  26.369  1.00  0.00    -0.172 NA
HETATM    2  C1  UNL     1      19.239  27.364  26.028  1.00  0.00     0.179 C
HETATM    3  N2  UNL     1      20.564  27.193  25.623  1.00  0.00    -0.300 N
ATOM      4  H2  UNL     1      20.765  27.187  24.622  1.00  0.00     0.174 HD
ENDROOT
BRANCH   3   5
HETATM    5  C2  UNL     1      21.661  27.023  26.539  1.00  0.00     0.245 C
HETATM    6  O1  UNL     1      21.643  25.702  26.983  1.00  0.00    -0.332 OA
HETATM    7  C3  UNL     1      22.540  25.504  28.033  1.00  0.00     0.331 C
HETATM    8  N5  UNL     1      23.744  26.257  27.862  1.00  0.00    -0.047 N
HETATM    9  C10 UNL     1      24.047  26.495  26.470  1.00  0.00     0.252 C
ATOM     10  H52 UNL     1      23.709  27.132  28.385  1.00  0.00     0.280 HD
ATOM     11  H51 UNL     1      24.528  25.813  28.339  1.00  0.00     0.280 HD
HETATM   12  C11 UNL     1      22.959  27.424  25.938  1.00  0.00     0.129 C
BRANCH   7  13
HETATM   13  C4  UNL     1      22.765  24.011  28.158  1.00  0.00     0.164 C
BRANCH  13  14
HETATM   14  C5  UNL     1      21.657  23.303  28.827  1.00  0.00     0.225 C
HETATM   15  O2  UNL     1      21.900  22.494  29.786  1.00  0.00    -0.273 OA
HETATM   16  N3  UNL     1      20.322  23.495  28.434  1.00  0.00    -0.334 N
HETATM   17  C6  UNL     1      19.645  22.791  27.639  1.00  0.00     0.128 C
ATOM     18  H3  UNL     1      19.844  24.299  28.841  1.00  0.00     0.168 HD
BRANCH  17  19
HETATM   19  C7  UNL     1      20.247  21.617  27.006  1.00  0.00     0.089 A
HETATM   20  N4  UNL     1      21.023  21.545  25.936  1.00  0.00    -0.359 N
HETATM   21  C8  UNL     1      21.462  20.398  25.523  1.00  0.00     0.096 A
ATOM     22  H4  UNL     1      21.277  22.396  25.435  1.00  0.00     0.166 HD
HETATM   23  C9  UNL     1      21.094  19.283  26.230  1.00  0.00     0.069 A
HETATM   24  S1  UNL     1      20.124  19.963  27.461  1.00  0.00    -0.082 SA
ENDBRANCH  17  19
ENDBRANCH  13  14
ENDBRANCH   7  13
BRANCH  12  25
HETATM   25  C12 UNL     1      22.977  27.468  24.457  1.00  0.00     0.102 C
HETATM   26  N6  UNL     1      22.830  28.584  23.800  1.00  0.00    -0.288 N
ATOM     27  H6  UNL     1      22.848  28.567  22.780  1.00  0.00     0.188 HD
BRANCH  26  28
HETATM   28  N7  UNL     1      22.646  29.809  24.459  1.00  0.00    -0.297 N
HETATM   29  C13 UNL     1      21.550  30.440  24.277  1.00  0.00     0.206 C
HETATM   30  N8  UNL     1      21.313  31.684  24.920  1.00  0.00    -0.095 NA
ATOM     31  H7  UNL     1      23.371  30.188  25.070  1.00  0.00     0.187 HD
ENDBRANCH  26  28
BRANCH  25  32
HETATM   32  N9  UNL     1      23.167  26.301  23.667  1.00  0.00    -0.374 N
ATOM     33  H9  UNL     1      22.721  25.441  23.985  1.00  0.00     0.161 HD
BRANCH  32  34
HETATM   34  C14 UNL     1      23.936  26.240  22.457  1.00  0.00     0.161 C
BRANCH  34  35
HETATM   35  C15 UNL     1      23.601  25.088  21.581  1.00  0.00    -0.025 A
HETATM   36  C16 UNL     1      24.365  24.781  20.461  1.00  0.00     0.014 A
HETATM   37  C17 UNL     1      24.042  23.705  19.664  1.00  0.00     0.048 A
HETATM   38  C18 UNL     1      22.958  22.901  19.950  1.00  0.00     0.098 A
HETATM   39  N11 UNL     1      22.217  23.193  21.032  1.00  0.00    -0.352 N
HETATM   40  C19 UNL     1      22.531  24.254  21.821  1.00  0.00     0.098 A
ATOM     41  H11 UNL     1      21.410  22.613  21.262  1.00  0.00     0.166 HD
BRANCH  38  42
HETATM   42  N10 UNL     1      22.653  21.878  19.191  1.00  0.00    -0.385 N
ATOM     43 2H10 UNL     1      21.858  21.925  18.554  1.00  0.00     0.157 HD
ATOM     44 1H10 UNL     1      23.199  21.017  19.220  1.00  0.00     0.157 HD
ENDBRANCH  38  42
ENDBRANCH  34  35
ENDBRANCH  32  34
ENDBRANCH  25  32
ENDBRANCH  12  25
ENDBRANCH   3   5
TORSDOF 10
ENDMDL