MODEL 1
REMARK VINA RESULT: -8.387092359      0.000      0.000
REMARK  12 active torsions:
REMARK  status: ('A' for Active; 'I' for Inactive)
REMARK    1  A    between atoms: C4_4  and  C5_5
REMARK    2  A    between atoms: C5_5  and  C6_6
REMARK    3  A    between atoms: C7_8  and  N1_9
REMARK    4  A    between atoms: N1_9  and  N3_12
REMARK    5  A    between atoms: C9_17  and  O2_18
REMARK    6  A    between atoms: O2_18  and  C10_19
REMARK    7  A    between atoms: C13_22  and  O3_23
REMARK    8  A    between atoms: O3_23  and  C14_24
REMARK    9  A    between atoms: C17_28  and  O5_29
REMARK   10  A    between atoms: C18_31  and  O6_32
REMARK   11  A    between atoms: C19_34  and  O7_35
REMARK   12  A    between atoms: C20_37  and  O8_38
ROOT
HETATM    1  N1  UNL     1      22.346  23.887  22.172  1.00  0.00    -0.181 N
HETATM    2  C8  UNL     1      23.407  24.426  21.425  1.00  0.00     0.204 C
HETATM    3  N2  UNL     1      24.282  24.852  20.796  1.00  0.00    -0.170 NA
ENDROOT
BRANCH   1   4
HETATM    4  C7  UNL     1      21.740  24.467  23.320  1.00  0.00     0.288 C
HETATM    5  O1  UNL     1      21.133  23.430  24.047  1.00  0.00    -0.353 OA
HETATM    6  C6  UNL     1      22.072  22.843  24.845  1.00  0.00     0.159 C
HETATM    7  C20 UNL     1      22.475  23.693  26.000  1.00  0.00     0.179 C
HETATM    8  C13 UNL     1      22.453  25.171  25.635  1.00  0.00     0.189 C
HETATM    9  C9  UNL     1      22.582  25.379  24.142  1.00  0.00     0.204 C
BRANCH   6  10
HETATM   10  C5  UNL     1      21.534  21.525  25.330  1.00  0.00     0.062 C
BRANCH  10  11
HETATM   11  C4  UNL     1      20.844  21.677  26.611  1.00  0.00    -0.022 C
HETATM   12  C2  UNL     1      20.435  20.599  27.281  1.00  0.00    -0.091 C
HETATM   13  C1  UNL     1      20.689  19.259  26.710  1.00  0.00     0.042 C
HETATM   14  C3  UNL     1      19.742  20.800  28.571  1.00  0.00     0.042 C
ENDBRANCH  10  11
ENDBRANCH   6  10
BRANCH   7  15
HETATM   15  O8  UNL     1      23.771  23.333  26.367  1.00  0.00    -0.390 OA
ATOM     16  H8  UNL     1      23.851  23.448  27.306  1.00  0.00     0.210 HD
ENDBRANCH   7  15
BRANCH   8  17
HETATM   17  O3  UNL     1      21.242  25.631  26.128  1.00  0.00    -0.348 OA
BRANCH  17  18
HETATM   18  C14 UNL     1      21.306  26.376  27.275  1.00  0.00     0.292 C
HETATM   19  O4  UNL     1      20.030  26.705  27.766  1.00  0.00    -0.351 OA
HETATM   20  C15 UNL     1      19.285  27.393  26.817  1.00  0.00     0.152 C
HETATM   21  C16 UNL     1      18.161  28.105  27.536  1.00  0.00     0.042 C
HETATM   22  C17 UNL     1      20.098  28.436  26.098  1.00  0.00     0.178 C
HETATM   23  C18 UNL     1      21.307  28.832  26.897  1.00  0.00     0.183 C
HETATM   24  C19 UNL     1      22.158  27.576  27.076  1.00  0.00     0.204 C
BRANCH  22  25
HETATM   25  O5  UNL     1      19.344  29.533  25.718  1.00  0.00    -0.390 OA
ATOM     26  H5  UNL     1      19.773  30.061  25.056  1.00  0.00     0.210 HD
ENDBRANCH  22  25
BRANCH  23  27
HETATM   27  O6  UNL     1      20.948  29.344  28.141  1.00  0.00    -0.390 OA
ATOM     28  H6  UNL     1      21.698  29.712  28.595  1.00  0.00     0.210 HD
ENDBRANCH  23  27
BRANCH  24  29
HETATM   29  O7  UNL     1      22.961  27.746  28.213  1.00  0.00    -0.388 OA
ATOM     30  H7  UNL     1      23.484  26.963  28.333  1.00  0.00     0.210 HD
ENDBRANCH  24  29
ENDBRANCH  17  18
ENDBRANCH   8  17
BRANCH   9  31
HETATM   31  O2  UNL     1      22.224  26.685  23.902  1.00  0.00    -0.374 OA
BRANCH  31  32
HETATM   32  C10 UNL     1      23.089  27.509  23.279  1.00  0.00     0.114 C
HETATM   33  C11 UNL     1      24.552  27.245  23.600  1.00  0.00     0.039 C
HETATM   34  C12 UNL     1      22.894  28.986  23.534  1.00  0.00     0.039 C
ENDBRANCH  31  32
ENDBRANCH   9  31
ENDBRANCH   1   4
BRANCH   1  35
HETATM   35  N3  UNL     1      21.844  22.664  21.669  1.00  0.00    -0.236 N
HETATM   36  N4  UNL     1      22.190  22.232  20.532  1.00  0.00    -0.330 N
ATOM     37  H42 UNL     1      22.844  22.787  19.980  1.00  0.00     0.178 HD
ATOM     38  H41 UNL     1      21.828  21.350  20.169  1.00  0.00     0.178 HD
ATOM     39  H3  UNL     1      21.191  22.121  22.234  1.00  0.00     0.208 HD
ENDBRANCH   1  35
TORSDOF 12
ENDMDL