MODEL 3
REMARK VINA RESULT: -7.272099528      1.140      2.474
REMARK  13 active torsions:
REMARK  status: ('A' for Active; 'I' for Inactive)
REMARK    1  A    between atoms: C2_2  and  O1_3
REMARK    2  A    between atoms: O1_3  and  N1_4
REMARK    3  A    between atoms: N1_4  and  C3_5
REMARK    4  A    between atoms: C3_5  and  N2_6
REMARK    5  A    between atoms: C3_5  and  C5_10
REMARK       I    between atoms: C5_10  and  N4_12
REMARK    6  A    between atoms: N4_12  and  C6_14
REMARK    7  A    between atoms: C10_18  and  N5_19
REMARK       I    between atoms: N5_19  and  C11_21
REMARK    8  A    between atoms: C11_21  and  C12_23
REMARK    9  A    between atoms: C12_23  and  N6_26
REMARK   10  A    between atoms: C15_30  and  O4_31
REMARK   11  A    between atoms: O4_31  and  C16_32
REMARK   12  A    between atoms: C18_35  and  O6_36
REMARK   13  A    between atoms: C19_38  and  O7_39
ROOT
HETATM    1  N2  UNL     1      22.940  24.581  20.809  1.00  0.00    -0.261 N
ATOM      2  H2  UNL     1      21.995  24.522  20.431  1.00  0.00     0.181 HD
HETATM    3  C4  UNL     1      24.007  24.277  19.979  1.00  0.00     0.184 C
HETATM    4  N3  UNL     1      24.914  24.041  19.300  1.00  0.00    -0.172 NA
ENDROOT
BRANCH   1   5
HETATM    5  C3  UNL     1      23.112  24.982  22.198  1.00  0.00     0.289 C
BRANCH   5   6
HETATM    6  N1  UNL     1      23.870  25.845  22.484  1.00  0.00    -0.256 NA
BRANCH   6   7
HETATM    7  O1  UNL     1      24.608  26.806  22.824  1.00  0.00    -0.208 OA
BRANCH   7   8
HETATM    8  C2  UNL     1      24.157  27.793  23.778  1.00  0.00     0.213 C
HETATM    9  C1  UNL     1      25.219  28.032  24.802  1.00  0.00     0.037 C
ENDBRANCH   7   8
ENDBRANCH   6   7
ENDBRANCH   5   6
BRANCH   5  10
HETATM   10  C5  UNL     1      22.254  24.255  23.126  1.00  0.00     0.303 C
HETATM   11  O2  UNL     1      21.127  23.918  22.700  1.00  0.00    -0.263 OA
HETATM   12  N4  UNL     1      22.653  23.956  24.399  1.00  0.00    -0.346 N
ATOM     13  H4  UNL     1      23.583  24.276  24.668  1.00  0.00     0.163 HD
BRANCH  12  14
HETATM   14  C6  UNL     1      21.898  23.229  25.419  1.00  0.00     0.116 C
HETATM   15  C7  UNL     1      22.246  21.758  25.141  1.00  0.00     0.028 C
HETATM   16  C8  UNL     1      21.067  20.858  25.442  1.00  0.00     0.004 C
HETATM   17  C9  UNL     1      21.247  20.330  26.814  1.00  0.00     0.028 C
HETATM   18  C10 UNL     1      20.674  21.045  27.952  1.00  0.00     0.116 C
HETATM   19  C15 UNL     1      20.335  22.470  27.886  1.00  0.00     0.185 C
HETATM   20  C18 UNL     1      21.455  23.474  27.907  1.00  0.00     0.180 C
HETATM   21  C19 UNL     1      22.303  23.688  26.757  1.00  0.00     0.172 C
BRANCH  18  22
HETATM   22  N5  UNL     1      19.467  20.317  28.384  1.00  0.00    -0.352 N
HETATM   23  C11 UNL     1      19.349  19.879  29.739  1.00  0.00     0.253 C
HETATM   24  O3  UNL     1      20.256  20.122  30.546  1.00  0.00    -0.271 OA
ATOM     25  H5  UNL     1      18.718  20.126  27.718  1.00  0.00     0.163 HD
BRANCH  23  26
HETATM   26  C12 UNL     1      18.153  19.138  30.184  1.00  0.00     0.196 C
HETATM   27  C13 UNL     1      18.317  18.658  31.635  1.00  0.00     0.056 C
HETATM   28  C14 UNL     1      18.059  17.884  29.329  1.00  0.00     0.056 C
BRANCH  26  29
HETATM   29  N6  UNL     1      16.931  19.857  30.108  1.00  0.00    -0.062 N
ATOM     30  H63 UNL     1      17.085  20.835  30.354  1.00  0.00     0.275 HD
ATOM     31  H62 UNL     1      16.645  19.960  29.134  1.00  0.00     0.275 HD
ATOM     32  H61 UNL     1      16.165  19.473  30.659  1.00  0.00     0.275 HD
ENDBRANCH  26  29
ENDBRANCH  23  26
ENDBRANCH  18  22
BRANCH  19  33
HETATM   33  O4  UNL     1      19.292  22.843  27.009  1.00  0.00    -0.311 OA
BRANCH  33  34
HETATM   34  C16 UNL     1      17.999  23.087  27.373  1.00  0.00     0.255 C
HETATM   35  C17 UNL     1      17.563  24.505  27.506  1.00  0.00     0.126 C
HETATM   36  O5  UNL     1      17.226  22.122  27.593  1.00  0.00    -0.266 OA
ENDBRANCH  33  34
ENDBRANCH  19  33
BRANCH  20  37
HETATM   37  O6  UNL     1      22.203  23.217  29.059  1.00  0.00    -0.390 OA
ATOM     38  H6  UNL     1      21.641  22.725  29.645  1.00  0.00     0.210 HD
ENDBRANCH  20  37
BRANCH  21  39
HETATM   39  O7  UNL     1      23.632  23.240  26.971  1.00  0.00    -0.391 OA
ATOM     40  H7  UNL     1      24.214  23.915  26.642  1.00  0.00     0.210 HD
ENDBRANCH  21  39
ENDBRANCH  12  14
ENDBRANCH   5  10
ENDBRANCH   1   5
TORSDOF 13
ENDMDL