MODEL 5
REMARK VINA RESULT: -7.608171083      4.239      7.703
REMARK  2 active torsions:
REMARK  status: ('A' for Active; 'I' for Inactive)
REMARK    1  A    between atoms: C2_2  and  C3_4
REMARK    2  A    between atoms: C3_4  and  C4_5
ROOT
HETATM    1  C4  UNL     1      25.179  29.912  41.302  1.00  0.00    -0.008 C
HETATM    2  C5  UNL     1      25.178  29.255  42.645  1.00  0.00     0.005 C
HETATM    3  C6  UNL     1      25.417  30.143  43.812  1.00  0.00     0.000 C
HETATM    4  C7  UNL     1      26.812  30.273  44.288  1.00  0.00     0.000 C
HETATM    5  C8  UNL     1      27.367  29.190  45.123  1.00  0.00     0.000 C
HETATM    6  C9  UNL     1      26.441  28.604  46.162  1.00  0.00     0.002 C
HETATM    7  C10 UNL     1      25.718  27.418  45.614  1.00  0.00     0.020 C
HETATM    8  C11 UNL     1      25.714  26.200  46.512  1.00  0.00     0.138 C
HETATM    9  N1  UNL     1      25.528  24.979  45.749  1.00  0.00    -0.225 N
ATOM     10  H1  UNL     1      25.238  24.161  46.285  1.00  0.00     0.177 HD
HETATM   11  C12 UNL     1      25.696  24.776  44.350  1.00  0.00     0.694 A
HETATM   12  N2  UNL     1      26.505  23.710  43.962  1.00  0.00    -0.131 N
ATOM     13  H2  UNL     1      26.969  23.053  44.590  1.00  0.00     0.205 HD
HETATM   14  N3  UNL     1      26.569  23.694  42.679  1.00  0.00    -0.274 N
ATOM     15  H3  UNL     1      27.088  23.028  42.109  1.00  0.00     0.189 HD
HETATM   16  C13 UNL     1      25.796  24.758  42.213  1.00  0.00     0.112 A
HETATM   17  N4  UNL     1      25.270  25.405  43.245  1.00  0.00    -0.178 N
ATOM     18  H4  UNL     1      24.660  26.221  43.205  1.00  0.00     0.185 HD
HETATM   19  C14 UNL     1      25.745  25.002  40.730  1.00  0.00     0.082 C
HETATM   20  C15 UNL     1      24.396  25.285  40.154  1.00  0.00    -0.012 C
HETATM   21  C16 UNL     1      24.051  24.232  39.132  1.00  0.00     0.010 C
HETATM   22  C17 UNL     1      24.530  26.612  39.390  1.00  0.00     0.005 C
HETATM   23  C18 UNL     1      24.251  27.806  40.266  1.00  0.00     0.001 C
HETATM   24  C19 UNL     1      25.350  28.824  40.247  1.00  0.00     0.005 C
ENDROOT
BRANCH   1  25
HETATM   25  C3  UNL     1      23.965  30.758  41.069  1.00  0.00     0.082 C
BRANCH  25  26
HETATM   26  C2  UNL     1      24.169  32.197  41.365  1.00  0.00     0.123 C
HETATM   27  C1  UNL     1      25.515  32.785  41.096  1.00  0.00     0.091 C
HETATM   28  O1  UNL     1      23.322  32.932  41.810  1.00  0.00    -0.298 OA
ENDBRANCH  25  26
ENDBRANCH   1  25
TORSDOF 2
ENDMDL