MODEL 3
REMARK VINA RESULT: -6.590290647      0.916      1.102
REMARK  3 active torsions:
REMARK  status: ('A' for Active; 'I' for Inactive)
REMARK    1  A    between atoms: C8_11  and  C9_12
REMARK    2  A    between atoms: C13_17  and  N3_18
REMARK    3  A    between atoms: N3_18  and  C14_21
ROOT
HETATM    1  C9  UNL     1      28.129  22.155  42.121  1.00  0.00     0.080 C
HETATM    2  C10 UNL     1      28.124  20.713  41.912  1.00  0.00     0.071 C
HETATM    3  N2  UNL     1      28.233  19.588  41.726  1.00  0.00    -0.196 NA
HETATM    4  C11 UNL     1      28.133  22.445  43.584  1.00  0.00     0.029 C
HETATM    5  C12 UNL     1      29.136  23.538  43.847  1.00  0.00     0.035 C
HETATM    6  C13 UNL     1      30.139  23.363  42.748  1.00  0.00     0.188 C
HETATM    7  C18 UNL     1      29.420  22.776  41.569  1.00  0.00     0.059 C
ENDROOT
BRANCH   1   8
HETATM    8  C8  UNL     1      26.975  22.828  41.477  1.00  0.00     0.219 C
HETATM    9  N1  UNL     1      26.240  23.619  42.447  1.00  0.00    -0.050 N
HETATM   10  C5  UNL     1      25.275  24.413  41.687  1.00  0.00     0.174 C
ATOM     11  H12 UNL     1      26.842  24.181  43.049  1.00  0.00     0.279 HD
ATOM     12  H11 UNL     1      25.812  23.059  43.184  1.00  0.00     0.279 HD
HETATM   13  C4  UNL     1      24.147  24.908  42.518  1.00  0.00     0.050 C
HETATM   14  C6  UNL     1      26.044  25.448  40.951  1.00  0.00     0.050 C
HETATM   15  S1  UNL     1      24.615  23.102  40.589  1.00  0.00    -0.128 SA
HETATM   16  C3  UNL     1      24.436  26.271  43.082  1.00  0.00     0.007 C
HETATM   17  C2  UNL     1      24.700  27.295  42.021  1.00  0.00    -0.019 C
HETATM   18  C1  UNL     1      25.458  28.460  42.651  1.00  0.00     0.010 C
HETATM   19  C7  UNL     1      25.376  26.770  40.801  1.00  0.00     0.007 C
HETATM   20  C19 UNL     1      25.930  21.868  40.935  1.00  0.00     0.111 C
ENDBRANCH   1   8
BRANCH   6  21
HETATM   21  N3  UNL     1      31.240  22.501  43.089  1.00  0.00    -0.063 N
ATOM     22  H32 UNL     1      31.035  21.960  43.930  1.00  0.00     0.278 HD
ATOM     23  H31 UNL     1      31.329  21.737  42.420  1.00  0.00     0.278 HD
BRANCH  21  24
HETATM   24  C14 UNL     1      32.490  23.225  43.226  1.00  0.00     0.115 C
HETATM   25  C15 UNL     1      32.797  23.806  41.859  1.00  0.00     0.045 C
HETATM   26  C16 UNL     1      32.373  24.391  44.180  1.00  0.00     0.045 C
HETATM   27  C17 UNL     1      33.584  22.308  43.717  1.00  0.00     0.045 C
ENDBRANCH  21  24
ENDBRANCH   6  21
TORSDOF 3
ENDMDL