MODEL 1
REMARK VINA RESULT: -6.802426354      0.000      0.000
REMARK  2 active torsions:
REMARK  status: ('A' for Active; 'I' for Inactive)
REMARK    1  A    between atoms: N1_2  and  C2_4
REMARK    2  A    between atoms: C3_8  and  C4_9
ROOT
HETATM    1  C4  UNL     1      26.164  24.451  43.651  1.00  0.00     0.071 C
HETATM    2  C5  UNL     1      26.589  25.291  44.773  1.00  0.00     0.187 C
HETATM    3  O1  UNL     1      25.685  26.368  45.063  1.00  0.00    -0.329 OA
HETATM    4  C6  UNL     1      25.465  27.426  44.175  1.00  0.00     0.192 A
HETATM    5  O2  UNL     1      25.477  28.717  44.418  1.00  0.00    -0.299 OA
HETATM    6  C7  UNL     1      25.230  29.415  43.314  1.00  0.00     0.152 A
HETATM    7  C8  UNL     1      25.036  28.562  42.245  1.00  0.00    -0.024 A
HETATM    8  C9  UNL     1      25.190  27.328  42.829  1.00  0.00     0.017 A
HETATM    9  C10 UNL     1      25.035  26.106  41.991  1.00  0.00    -0.008 C
HETATM   10  C11 UNL     1      23.594  26.196  41.439  1.00  0.00     0.021 C
HETATM   11  C12 UNL     1      25.894  26.378  40.781  1.00  0.00     0.015 C
HETATM   12  C13 UNL     1      25.456  27.613  40.038  1.00  0.00     0.006 C
HETATM   13  C14 UNL     1      24.759  28.671  40.795  1.00  0.00     0.041 C
HETATM   14  C15 UNL     1      25.132  24.855  42.701  1.00  0.00     0.005 C
HETATM   15  C16 UNL     1      23.765  24.676  43.428  1.00  0.00     0.011 C
ENDROOT
BRANCH   1  16
HETATM   16  C3  UNL     1      27.381  23.817  43.006  1.00  0.00     0.330 C
HETATM   17  N2  UNL     1      27.326  22.361  43.112  1.00  0.00    -0.025 N
HETATM   18  C2  UNL     1      28.703  21.937  42.756  1.00  0.00     0.316 C
ATOM     19  H22 UNL     1      26.592  21.923  42.555  1.00  0.00     0.282 HD
ATOM     20  H21 UNL     1      26.998  22.015  44.013  1.00  0.00     0.282 HD
HETATM   21  C17 UNL     1      29.439  23.194  42.950  1.00  0.00     0.102 C
HETATM   22  O3  UNL     1      28.574  24.086  43.617  1.00  0.00    -0.344 OA
HETATM   23  C18 UNL     1      30.074  23.783  41.745  1.00  0.00     0.050 C
HETATM   24  C19 UNL     1      30.613  22.870  43.912  1.00  0.00     0.050 C
BRANCH  18  25
HETATM   25  N1  UNL     1      28.650  21.279  41.521  1.00  0.00    -0.397 N
HETATM   26  C1  UNL     1      28.010  20.022  41.428  1.00  0.00     0.142 C
ATOM     27  H1  UNL     1      29.070  21.704  40.694  1.00  0.00     0.154 HD
ENDBRANCH  18  25
ENDBRANCH   1  16
TORSDOF 2
ENDMDL