MODEL 4
REMARK VINA RESULT: -5.276654076      3.292      5.019
REMARK  4 active torsions:
REMARK  status: ('A' for Active; 'I' for Inactive)
REMARK    1  A    between atoms: C2_2  and  C3_3
REMARK    2  A    between atoms: C7_7  and  N1_8
REMARK    3  A    between atoms: N1_8  and  C8_10
REMARK    4  A    between atoms: C13_18  and  O1_19
ROOT
HETATM    1  C3  UNL     1      24.498  22.112  39.846  1.00  0.00    -0.027 C
HETATM    2  C4  UNL     1      24.831  20.680  40.209  1.00  0.00     0.019 C
HETATM    3  C5  UNL     1      23.473  22.723  40.754  1.00  0.00     0.017 C
HETATM    4  C6  UNL     1      23.937  22.950  42.147  1.00  0.00     0.055 C
HETATM    5  C7  UNL     1      24.727  24.257  42.300  1.00  0.00     0.111 C
HETATM    6  N2  UNL     1      24.375  24.843  43.521  1.00  0.00    -0.376 N
ATOM      7  H2  UNL     1      23.401  25.093  43.689  1.00  0.00     0.161 HD
HETATM    8  C9  UNL     1      25.318  25.092  44.509  1.00  0.00     0.063 C
HETATM    9  C10 UNL     1      26.756  25.067  44.116  1.00  0.00     0.029 C
HETATM   10  C11 UNL     1      27.634  25.126  45.331  1.00  0.00     0.013 C
HETATM   11  C12 UNL     1      29.057  24.671  45.032  1.00  0.00     0.032 C
HETATM   12  C13 UNL     1      28.945  23.256  44.500  1.00  0.00     0.118 C
HETATM   13  C14 UNL     1      28.337  23.393  43.105  1.00  0.00     0.038 C
HETATM   14  C15 UNL     1      26.932  23.832  43.294  1.00  0.00     0.009 C
HETATM   15  C16 UNL     1      26.170  24.060  42.010  1.00  0.00     0.004 C
HETATM   16  C17 UNL     1      26.753  25.322  41.361  1.00  0.00     0.020 C
HETATM   17  C18 UNL     1      26.479  22.921  41.089  1.00  0.00     0.015 C
HETATM   18  C19 UNL     1      25.770  22.932  39.793  1.00  0.00     0.014 C
ENDROOT
BRANCH   5  19
HETATM   19  N1  UNL     1      24.190  25.132  41.240  1.00  0.00    -0.363 N
ATOM     20  H1  UNL     1      24.093  24.765  40.293  1.00  0.00     0.162 HD
BRANCH  19  21
HETATM   21  C8  UNL     1      23.844  26.330  41.480  1.00  0.00     0.167 C
HETATM   22  S1  UNL     1      23.912  27.958  41.440  1.00  0.00    -0.075 SA
ENDBRANCH  19  21
ENDBRANCH   5  19
BRANCH   1  23
HETATM   23  C2  UNL     1      23.951  22.090  38.461  1.00  0.00    -0.028 C
HETATM   24  C1  UNL     1      22.692  21.732  38.223  1.00  0.00     0.007 C
ENDBRANCH   1  23
BRANCH  12  25
HETATM   25  O1  UNL     1      30.140  22.580  44.487  1.00  0.00    -0.396 OA
ATOM     26  H1  UNL     1      30.893  23.145  44.360  1.00  0.00     0.210 HD
ENDBRANCH  12  25
TORSDOF 4
ENDMDL