MODEL 1
REMARK VINA RESULT: -9.065814550      0.000      0.000
REMARK  3 active torsions:
REMARK  status: ('A' for Active; 'I' for Inactive)
REMARK    1  A    between atoms: N1_1  and  C1_4
REMARK    2  A    between atoms: C2_7  and  C3_8
REMARK    3  A    between atoms: N4_20  and  C12_21
ROOT
HETATM    1  C1  UNL     1      25.155  23.922  41.911  1.00  0.00     0.114 A
HETATM    2  N2  UNL     1      25.328  22.723  41.272  1.00  0.00    -0.331 N
ATOM      3  H2  UNL     1      25.643  21.939  41.842  1.00  0.00     0.168 HD
HETATM    4  C2  UNL     1      25.127  22.482  39.994  1.00  0.00     0.087 A
HETATM    5  N3  UNL     1      24.713  23.515  39.249  1.00  0.00    -0.339 N
ATOM      6  H3  UNL     1      24.543  23.383  38.252  1.00  0.00     0.168 HD
HETATM    7  C6  UNL     1      24.516  24.748  39.814  1.00  0.00     0.090 A
HETATM    8  S1  UNL     1      24.001  26.249  39.177  1.00  0.00    -0.070 SA
HETATM    9  C7  UNL     1      24.050  27.185  40.576  1.00  0.00     0.029 A
HETATM   10  C8  UNL     1      24.485  26.276  41.557  1.00  0.00    -0.021 A
HETATM   11  C9  UNL     1      24.719  25.023  41.143  1.00  0.00     0.049 A
HETATM   12  C10 UNL     1      24.585  27.013  42.884  1.00  0.00     0.061 C
HETATM   13  C11 UNL     1      25.502  28.200  42.554  1.00  0.00     0.127 C
HETATM   14  N4  UNL     1      24.776  29.118  41.786  1.00  0.00    -0.384 N
HETATM   15  C18 UNL     1      23.756  28.620  40.966  1.00  0.00     0.105 C
ENDROOT
BRANCH  14  16
HETATM   16  C12 UNL     1      24.718  30.453  42.215  1.00  0.00     0.083 C
HETATM   17  C13 UNL     1      24.098  31.417  41.234  1.00  0.00     0.025 C
HETATM   18  C14 UNL     1      25.127  32.127  40.380  1.00  0.00     0.002 C
HETATM   19  C15 UNL     1      25.843  33.121  41.266  1.00  0.00     0.000 C
HETATM   20  C16 UNL     1      25.897  32.558  42.669  1.00  0.00     0.002 C
HETATM   21  C17 UNL     1      26.031  31.032  42.648  1.00  0.00     0.025 C
ENDBRANCH  14  16
BRANCH   1  22
HETATM   22  N1  UNL     1      25.404  23.897  43.135  1.00  0.00    -0.385 N
ATOM     23  H12 UNL     1      25.817  23.135  43.671  1.00  0.00     0.157 HD
ATOM     24  H11 UNL     1      25.163  24.753  43.634  1.00  0.00     0.157 HD
ENDBRANCH   1  22
BRANCH   4  25
HETATM   25  C3  UNL     1      25.332  21.157  39.356  1.00  0.00     0.053 A
HETATM   26  C4  UNL     1      25.475  19.935  40.183  1.00  0.00     0.013 A
HETATM   27  C5  UNL     1      24.155  20.207  39.553  1.00  0.00     0.013 A
ENDBRANCH   4  25
TORSDOF 3
ENDMDL