MODEL 1
REMARK VINA RESULT: -6.302439220      0.000      0.000
REMARK  4 active torsions:
REMARK  status: ('A' for Active; 'I' for Inactive)
REMARK    1  A    between atoms: C2_2  and  C3_3
REMARK    2  A    between atoms: C14_15  and  C16_17
REMARK    3  A    between atoms: C16_17  and  O1_18
REMARK    4  A    between atoms: C17_20  and  O2_21
ROOT
HETATM    1  C3  UNL     1      25.122  25.736  43.119  1.00  0.00     0.137 C
HETATM    2  C4  UNL     1      24.709  24.432  42.584  1.00  0.00     0.060 C
HETATM    3  N1  UNL     1      24.376  23.385  42.178  1.00  0.00    -0.197 NA
ENDROOT
BRANCH   1   4
HETATM    4  C2  UNL     1      25.047  26.767  41.969  1.00  0.00    -0.008 C
HETATM    5  C1  UNL     1      25.974  26.265  40.933  1.00  0.00     0.021 C
HETATM    6  C5  UNL     1      23.601  26.685  41.525  1.00  0.00     0.014 C
HETATM    7  C6  UNL     1      23.282  27.804  40.615  1.00  0.00     0.002 C
HETATM    8  C7  UNL     1      23.581  29.182  41.135  1.00  0.00     0.014 C
HETATM    9  C8  UNL     1      25.040  29.309  41.599  1.00  0.00    -0.012 C
HETATM   10  C9  UNL     1      25.876  29.197  40.325  1.00  0.00     0.021 C
HETATM   11  C10 UNL     1      25.259  28.136  42.475  1.00  0.00    -0.065 C
HETATM   12  C20 UNL     1      25.287  30.646  42.198  1.00  0.00    -0.028 C
HETATM   13  C11 UNL     1      25.627  28.289  43.719  1.00  0.00    -0.022 C
HETATM   14  C12 UNL     1      25.877  29.613  44.374  1.00  0.00     0.033 C
HETATM   15  C13 UNL     1      25.057  30.693  43.684  1.00  0.00     0.011 C
HETATM   16  C14 UNL     1      25.342  31.971  44.367  1.00  0.00     0.008 C
HETATM   17  C15 UNL     1      25.834  31.678  45.809  1.00  0.00     0.020 C
HETATM   18  C17 UNL     1      26.430  32.786  43.748  1.00  0.00     0.128 C
HETATM   19  C18 UNL     1      27.320  32.048  42.804  1.00  0.00     0.033 C
HETATM   20  C19 UNL     1      26.631  31.185  41.802  1.00  0.00     0.013 C
HETATM   21  C21 UNL     1      24.279  31.601  41.527  1.00  0.00     0.016 C
BRANCH  16  22
HETATM   22  C16 UNL     1      24.151  32.874  44.604  1.00  0.00     0.176 C
BRANCH  22  23
HETATM   23  O1  UNL     1      23.459  32.511  45.766  1.00  0.00    -0.400 OA
ATOM     24  H1  UNL     1      23.810  32.951  46.531  1.00  0.00     0.209 HD
ENDBRANCH  22  23
ENDBRANCH  16  22
BRANCH  18  25
HETATM   25  O2  UNL     1      27.273  33.345  44.735  1.00  0.00    -0.395 OA
ATOM     26  H2  UNL     1      28.102  33.621  44.361  1.00  0.00     0.210 HD
ENDBRANCH  18  25
ENDBRANCH   1   4
TORSDOF 4
ENDMDL