MODEL 3
REMARK VINA RESULT: -4.799832058      1.484      2.082
REMARK  4 active torsions:
REMARK  status: ('A' for Active; 'I' for Inactive)
REMARK    1  A    between atoms: C2_2  and  C3_3
REMARK    2  A    between atoms: C16_16  and  O1_17
REMARK    3  A    between atoms: C17_19  and  O2_20
REMARK    4  A    between atoms: O2_20  and  O3_21
ROOT
HETATM    1  C3  UNL     1      24.920  29.422  41.784  1.00  0.00    -0.021 C
HETATM    2  C4  UNL     1      25.573  29.503  40.418  1.00  0.00     0.020 C
HETATM    3  C5  UNL     1      25.836  28.751  42.727  1.00  0.00     0.016 C
HETATM    4  C6  UNL     1      25.626  29.112  44.175  1.00  0.00     0.043 C
HETATM    5  C7  UNL     1      26.454  30.325  44.510  1.00  0.00     0.163 C
HETATM    6  C8  UNL     1      27.907  29.800  44.535  1.00  0.00     0.049 C
HETATM    7  C9  UNL     1      26.398  31.270  43.378  1.00  0.00     0.065 C
HETATM    8  C10 UNL     1      27.340  32.453  43.626  1.00  0.00     0.013 C
HETATM    9  C11 UNL     1      27.415  32.886  45.041  1.00  0.00     0.042 C
HETATM   10  C12 UNL     1      26.505  32.228  46.000  1.00  0.00     0.157 C
HETATM   11  C13 UNL     1      27.133  32.406  47.399  1.00  0.00     0.049 C
HETATM   12  C14 UNL     1      25.197  33.020  46.133  1.00  0.00     0.044 C
HETATM   13  C15 UNL     1      24.658  33.434  44.775  1.00  0.00     0.037 C
HETATM   14  C16 UNL     1      24.173  32.250  44.071  1.00  0.00     0.157 C
HETATM   15  C17 UNL     1      25.020  31.717  42.932  1.00  0.00     0.132 C
HETATM   16  C18 UNL     1      24.266  30.701  42.188  1.00  0.00     0.034 C
HETATM   17  C19 UNL     1      23.541  31.164  40.940  1.00  0.00     0.014 C
HETATM   18  N1  UNL     1      26.233  30.859  45.811  1.00  0.00     0.103 N
HETATM   19  C20 UNL     1      26.736  29.991  46.839  1.00  0.00     0.312 C
ENDROOT
BRANCH   1  20
HETATM   20  C2  UNL     1      23.769  28.451  41.572  1.00  0.00    -0.027 C
HETATM   21  C1  UNL     1      23.903  27.160  41.526  1.00  0.00     0.007 C
ENDBRANCH   1  20
BRANCH  15  22
HETATM   22  O2  UNL     1      25.319  32.793  42.111  1.00  0.00    -0.228 OA
BRANCH  22  23
HETATM   23  O3  UNL     1      24.397  33.331  41.429  1.00  0.00    -0.250 OA
ATOM     24  H3  UNL     1      24.166  32.965  40.584  1.00  0.00     0.253 HD
ENDBRANCH  22  23
ENDBRANCH  15  22
BRANCH  14  25
HETATM   25  O1  UNL     1      22.913  32.532  43.478  1.00  0.00    -0.392 OA
ATOM     26  H1  UNL     1      23.012  33.224  42.834  1.00  0.00     0.210 HD
ENDBRANCH  14  25
TORSDOF 4
ENDMDL