MODEL 3
REMARK VINA RESULT: -4.091054604      7.321     10.075
REMARK  4 active torsions:
REMARK  status: ('A' for Active; 'I' for Inactive)
REMARK    1  A    between atoms: S1_2  and  C2_3
REMARK    2  A    between atoms: C5_6  and  O1_7
REMARK    3  A    between atoms: O1_7  and  O2_8
REMARK    4  A    between atoms: C9_13  and  O3_14
ROOT
HETATM    1  C2  UNL     1      33.262  21.253  42.373  1.00  0.00     0.074 C
HETATM    2  C3  UNL     1      33.744  20.741  43.666  1.00  0.00    -0.013 C
HETATM    3  C4  UNL     1      33.397  21.434  44.735  1.00  0.00     0.006 C
HETATM    4  C5  UNL     1      32.576  22.655  44.669  1.00  0.00     0.191 C
HETATM    5  C6  UNL     1      32.553  23.338  43.346  1.00  0.00    -0.003 C
HETATM    6  C7  UNL     1      31.074  23.316  42.901  1.00  0.00     0.019 C
HETATM    7  C8  UNL     1      32.814  24.810  43.571  1.00  0.00     0.051 C
HETATM    8  C9  UNL     1      34.259  25.151  43.669  1.00  0.00     0.066 C
HETATM    9  C10 UNL     1      34.390  26.660  43.613  1.00  0.00     0.016 C
HETATM   10  C11 UNL     1      33.124  27.381  43.929  1.00  0.00     0.013 C
HETATM   11  C12 UNL     1      34.799  27.011  42.205  1.00  0.00     0.008 C
HETATM   12  C13 UNL     1      34.530  25.737  41.431  1.00  0.00     0.009 C
HETATM   13  C14 UNL     1      34.957  24.703  42.464  1.00  0.00     0.028 C
HETATM   14  C15 UNL     1      34.729  23.292  42.012  1.00  0.00    -0.035 C
HETATM   15  C16 UNL     1      35.048  23.395  40.502  1.00  0.00     0.016 C
HETATM   16  C17 UNL     1      35.889  22.481  42.574  1.00  0.00     0.016 C
HETATM   17  C18 UNL     1      33.382  22.747  42.249  1.00  0.00     0.022 C
ENDROOT
BRANCH   4  18
HETATM   18  O1  UNL     1      31.302  22.301  45.145  1.00  0.00    -0.233 OA
BRANCH  18  19
HETATM   19  O2  UNL     1      31.294  21.766  46.318  1.00  0.00    -0.250 OA
ATOM     20  H2  UNL     1      30.921  22.312  47.001  1.00  0.00     0.253 HD
ENDBRANCH  18  19
ENDBRANCH   4  18
BRANCH   1  21
HETATM   21  S1  UNL     1      33.809  20.322  40.957  1.00  0.00    -0.164 SA
HETATM   22  C1  UNL     1      32.423  19.412  40.254  1.00  0.00     0.090 C
ENDBRANCH   1  21
BRANCH   8  23
HETATM   23  O3  UNL     1      34.897  24.712  44.798  1.00  0.00    -0.389 OA
ATOM     24  H3  UNL     1      35.366  25.375  45.291  1.00  0.00     0.210 HD
ENDBRANCH   8  23
TORSDOF 4
ENDMDL