MODEL 5
REMARK VINA RESULT: -6.744274943      2.270      4.270
REMARK  4 active torsions:
REMARK  status: ('A' for Active; 'I' for Inactive)
REMARK    1  A    between atoms: C8_8  and  C9_9
REMARK    2  A    between atoms: C17_19  and  O3_20
REMARK    3  A    between atoms: C18_23  and  C19_24
REMARK    4  A    between atoms: C19_24  and  O5_25
ROOT
HETATM    1  C9  UNL     1      25.276  25.522  43.369  1.00  0.00     0.196 C
HETATM    2  O1  UNL     1      24.125  24.767  43.029  1.00  0.00    -0.229 OA
HETATM    3  O2  UNL     1      24.529  23.847  42.224  1.00  0.00    -0.197 OA
HETATM    4  C10 UNL     1      25.278  24.222  41.148  1.00  0.00     0.223 C
HETATM    5  C11 UNL     1      26.680  23.586  41.176  1.00  0.00     0.074 C
HETATM    6  C12 UNL     1      26.711  22.273  41.878  1.00  0.00     0.006 C
HETATM    7  C13 UNL     1      26.765  21.077  40.992  1.00  0.00     0.000 C
HETATM    8  C14 UNL     1      25.746  21.049  39.903  1.00  0.00     0.000 C
HETATM    9  C15 UNL     1      24.402  21.358  40.484  1.00  0.00     0.003 C
HETATM   10  C16 UNL     1      23.764  22.598  39.966  1.00  0.00     0.037 C
HETATM   11  C17 UNL     1      24.640  23.787  39.826  1.00  0.00     0.183 C
HETATM   12  O4  UNL     1      25.505  25.577  40.996  1.00  0.00    -0.340 OA
HETATM   13  C18 UNL     1      25.527  26.343  42.127  1.00  0.00     0.181 C
ENDROOT
BRANCH  11  14
HETATM   14  O3  UNL     1      23.823  24.850  39.397  1.00  0.00    -0.390 OA
ATOM     15  H3  UNL     1      24.343  25.642  39.467  1.00  0.00     0.210 HD
ENDBRANCH  11  14
BRANCH  13  16
HETATM   16  C19 UNL     1      24.417  27.384  41.915  1.00  0.00     0.199 C
BRANCH  16  17
HETATM   17  O5  UNL     1      23.343  26.655  41.351  1.00  0.00    -0.398 OA
ATOM     18  H5  UNL     1      22.775  27.316  40.973  1.00  0.00     0.209 HD
ENDBRANCH  16  17
ENDBRANCH  13  16
BRANCH   1  19
HETATM   19  C8  UNL     1      25.063  26.303  44.621  1.00  0.00     0.028 C
HETATM   20  C2  UNL     1      24.814  25.318  45.735  1.00  0.00    -0.012 C
HETATM   21  C1  UNL     1      25.577  24.049  45.662  1.00  0.00     0.010 C
HETATM   22  C3  UNL     1      24.969  26.028  47.046  1.00  0.00     0.005 C
HETATM   23  C4  UNL     1      26.404  26.434  47.280  1.00  0.00     0.001 C
HETATM   24  C5  UNL     1      27.117  26.793  46.016  1.00  0.00     0.005 C
HETATM   25  C6  UNL     1      26.171  27.260  44.932  1.00  0.00    -0.012 C
HETATM   26  C7  UNL     1      25.638  28.616  45.426  1.00  0.00     0.010 C
ENDBRANCH   1  19
TORSDOF 4
ENDMDL