MODEL 2
REMARK VINA RESULT: -8.275939164      2.256      4.040
REMARK  15 active torsions:
REMARK  status: ('A' for Active; 'I' for Inactive)
REMARK    1  A    between atoms: C2_2  and  C3_3
REMARK    2  A    between atoms: C3_3  and  N1_4
REMARK    3  A    between atoms: C10_11  and  C11_12
REMARK    4  A    between atoms: C11_12  and  O1_13
REMARK    5  A    between atoms: O1_13  and  C12_14
REMARK    6  A    between atoms: C12_14  and  C13_16
REMARK    7  A    between atoms: C13_16  and  C14_17
REMARK    8  A    between atoms: C13_16  and  C16_19
REMARK    9  A    between atoms: C13_16  and  C20_23
REMARK   10  A    between atoms: C16_19  and  C17_20
REMARK   11  A    between atoms: C17_20  and  C18_21
REMARK   12  A    between atoms: C21_24  and  C22_25
REMARK   13  A    between atoms: C22_25  and  C23_26
REMARK   14  A    between atoms: C24_27  and  C25_28
REMARK   15  A    between atoms: N3_35  and  N4_36
ROOT
HETATM    1  C13 UNL     1       9.531  -3.134   6.853  1.00  0.00     0.065 C
ENDROOT
BRANCH   1   2
HETATM    2  C12 UNL     1      10.016  -2.992   8.301  1.00  0.00     0.271 C
HETATM    3  O2  UNL     1       9.360  -3.514   9.255  1.00  0.00    -0.264 OA
BRANCH   2   4
HETATM    4  O1  UNL     1      11.147  -2.316   8.653  1.00  0.00    -0.317 OA
BRANCH   4   5
HETATM    5  C11 UNL     1      11.690  -2.486   9.948  1.00  0.00     0.206 C
BRANCH   5   6
HETATM    6  C10 UNL     1      12.790  -3.454   9.975  1.00  0.00     0.004 C
HETATM    7  C9  UNL     1      13.293  -4.032  11.052  1.00  0.00    -0.052 C
HETATM    8  C6  UNL     1      12.806  -3.779  12.433  1.00  0.00     0.019 C
HETATM    9  C30 UNL     1      14.426  -5.017  10.952  1.00  0.00     0.272 C
HETATM   10  C5  UNL     1      12.088  -5.043  12.876  1.00  0.00     0.037 C
HETATM   11  C7  UNL     1      14.068  -3.711  13.304  1.00  0.00     0.037 C
HETATM   12  C4  UNL     1      12.943  -6.205  12.414  1.00  0.00     0.239 C
HETATM   13  N1  UNL     1      14.318  -5.823  12.167  1.00  0.00    -0.060 N
HETATM   14  C8  UNL     1      14.786  -5.042  13.271  1.00  0.00     0.239 C
BRANCH  13  15
HETATM   15  C3  UNL     1      15.090  -7.020  11.961  1.00  0.00     0.264 C
BRANCH  15  16
HETATM   16  C2  UNL     1      16.265  -7.114  12.840  1.00  0.00    -0.009 C
HETATM   17  C1  UNL     1      16.966  -8.240  12.869  1.00  0.00     0.008 C
ENDBRANCH  15  16
ENDBRANCH  13  15
ENDBRANCH   5   6
ENDBRANCH   4   5
ENDBRANCH   2   4
ENDBRANCH   1   2
BRANCH   1  18
HETATM   18  C14 UNL     1       9.293  -1.845   6.184  1.00  0.00     0.019 C
HETATM   19  C15 UNL     1       9.213  -0.600   6.971  1.00  0.00     0.006 C
ENDBRANCH   1  18
BRANCH   1  20
HETATM   20  C16 UNL     1       8.385  -4.099   6.864  1.00  0.00     0.024 C
BRANCH  20  21
HETATM   21  C17 UNL     1       8.471  -5.258   5.919  1.00  0.00     0.001 C
BRANCH  21  22
HETATM   22  C18 UNL     1       7.504  -6.317   6.488  1.00  0.00    -0.005 C
HETATM   23  C19 UNL     1       6.704  -5.783   7.627  1.00  0.00     0.005 C
ENDBRANCH  21  22
ENDBRANCH  20  21
ENDBRANCH   1  20
BRANCH   1  24
HETATM   24  C20 UNL     1      10.705  -3.798   6.180  1.00  0.00    -0.010 C
HETATM   25  C21 UNL     1      11.473  -3.231   5.109  1.00  0.00    -0.018 C
BRANCH  25  26
HETATM   26  C22 UNL     1      10.877  -2.853   3.790  1.00  0.00     0.121 C
BRANCH  26  27
HETATM   27  C23 UNL     1      10.807  -4.153   3.017  1.00  0.00    -0.097 C
HETATM   28  C24 UNL     1      10.764  -5.196   2.418  1.00  0.00    -0.061 C
BRANCH  28  29
HETATM   29  C25 UNL     1      10.738  -6.445   1.696  1.00  0.00     0.080 A
HETATM   30  C26 UNL     1      10.205  -7.567   2.293  1.00  0.00     0.029 A
HETATM   31  C27 UNL     1       9.654  -7.506   3.682  1.00  0.00     0.070 C
HETATM   32  N2  UNL     1      10.198  -8.712   1.590  1.00  0.00    -0.334 N
HETATM   33  C28 UNL     1      10.694  -8.794   0.325  1.00  0.00     0.198 A
ATOM     34  H2  UNL     1       9.807  -9.550   2.020  1.00  0.00     0.168 HD
HETATM   35  S1  UNL     1      10.651 -10.218  -0.465  1.00  0.00    -0.039 SA
HETATM   36  N3  UNL     1      11.218  -7.708  -0.274  1.00  0.00    -0.224 N
HETATM   37  C29 UNL     1      11.232  -6.555   0.416  1.00  0.00     0.145 A
HETATM   38  S2  UNL     1      11.868  -5.203  -0.290  1.00  0.00    -0.057 SA
BRANCH  36  39
HETATM   39  N4  UNL     1      11.741  -7.738  -1.573  1.00  0.00    -0.335 N
ATOM     40  H42 UNL     1      11.138  -8.008  -2.350  1.00  0.00     0.177 HD
ATOM     41  H41 UNL     1      12.710  -7.498  -1.782  1.00  0.00     0.177 HD
ENDBRANCH  36  39
ENDBRANCH  28  29
ENDBRANCH  26  27
ENDBRANCH  25  26
ENDBRANCH   1  24
TORSDOF 15
ENDMDL