MODEL 2
REMARK VINA RESULT: -8.736708113      1.142      1.580
REMARK  15 active torsions:
REMARK  status: ('A' for Active; 'I' for Inactive)
REMARK    1  A    between atoms: C2_2  and  C3_3
REMARK    2  A    between atoms: C6_6  and  O1_8
REMARK    3  A    between atoms: C8_10  and  C9_11
REMARK    4  A    between atoms: C10_12  and  C11_13
REMARK    5  A    between atoms: C11_13  and  C12_14
REMARK    6  A    between atoms: C12_14  and  C13_15
REMARK    7  A    between atoms: C12_14  and  C21_23
REMARK    8  A    between atoms: C13_15  and  C15_17
REMARK    9  A    between atoms: C15_17  and  C16_18
REMARK   10  A    between atoms: C17_19  and  C18_20
REMARK   11  A    between atoms: C22_25  and  C23_26
REMARK   12  A    between atoms: C23_26  and  C24_27
REMARK   13  A    between atoms: C28_31  and  O3_32
REMARK   14  A    between atoms: C31_37  and  C32_38
REMARK   15  A    between atoms: C32_38  and  O6_40
ROOT
HETATM    1  C12 UNL     1      11.172  -2.821   3.492  1.00  0.00     0.029 C
ENDROOT
BRANCH   1   2
HETATM    2  C11 UNL     1      11.209  -4.340   3.592  1.00  0.00     0.035 C
BRANCH   2   3
HETATM    3  C10 UNL     1      10.399  -5.009   2.535  1.00  0.00    -0.030 C
HETATM    4  C9  UNL     1      10.915  -6.011   1.865  1.00  0.00    -0.022 C
BRANCH   4   5
HETATM    5  C8  UNL     1      10.145  -6.723   0.789  1.00  0.00     0.056 C
HETATM    6  C6  UNL     1      10.485  -8.164   0.715  1.00  0.00     0.062 C
HETATM    7  C5  UNL     1      10.560  -8.787  -0.628  1.00  0.00     0.038 C
HETATM    8  C7  UNL     1       9.469  -8.928   1.584  1.00  0.00     0.046 C
HETATM    9  C4  UNL     1       9.852  -8.115  -1.738  1.00  0.00     0.008 C
HETATM   10  C3  UNL     1       9.583  -6.658  -1.594  1.00  0.00    -0.001 C
HETATM   11  C31 UNL     1      10.309  -5.951  -0.504  1.00  0.00     0.100 C
BRANCH   6  12
HETATM   12  O1  UNL     1      11.724  -8.451   1.347  1.00  0.00    -0.390 OA
ATOM     13  H1  UNL     1      11.978  -7.654   1.797  1.00  0.00     0.210 HD
ENDBRANCH   6  12
BRANCH  10  14
HETATM   14  C2  UNL     1       9.570  -5.908  -2.899  1.00  0.00     0.001 C
HETATM   15  C1  UNL     1       8.732  -4.685  -2.944  1.00  0.00     0.005 C
ENDBRANCH  10  14
BRANCH  11  16
HETATM   16  C32 UNL     1      11.681  -5.540  -0.768  1.00  0.00     0.263 C
HETATM   17  O5  UNL     1      11.963  -4.290  -0.879  1.00  0.00    -0.265 OA
BRANCH  16  18
HETATM   18  O6  UNL     1      12.757  -6.394  -0.916  1.00  0.00    -0.326 OA
HETATM   19  C33 UNL     1      13.952  -6.118  -0.217  1.00  0.00     0.213 C
ENDBRANCH  16  18
ENDBRANCH  11  16
ENDBRANCH   4   5
ENDBRANCH   2   3
ENDBRANCH   1   2
BRANCH   1  20
HETATM   20  C13 UNL     1      12.225  -2.363   2.580  1.00  0.00    -0.008 C
HETATM   21  C14 UNL     1      13.387  -3.297   2.388  1.00  0.00     0.011 C
BRANCH  20  22
HETATM   22  C15 UNL     1      12.743  -0.965   2.772  1.00  0.00     0.031 C
BRANCH  22  23
HETATM   23  C16 UNL     1      14.223  -0.909   2.485  1.00  0.00    -0.030 C
HETATM   24  C17 UNL     1      14.804  -0.201   1.566  1.00  0.00    -0.027 C
BRANCH  24  25
HETATM   25  C18 UNL     1      14.202   0.710   0.582  1.00  0.00    -0.001 C
HETATM   26  C19 UNL     1      15.255   1.780   0.260  1.00  0.00     0.013 C
HETATM   27  C20 UNL     1      13.938   0.009  -0.739  1.00  0.00     0.013 C
ENDBRANCH  24  25
ENDBRANCH  22  23
ENDBRANCH  20  22
ENDBRANCH   1  20
BRANCH   1  28
HETATM   28  C21 UNL     1      10.964  -2.175   4.800  1.00  0.00     0.196 C
HETATM   29  O2  UNL     1      10.375  -2.981   5.774  1.00  0.00    -0.370 OA
HETATM   30  C22 UNL     1      10.399  -2.220   6.944  1.00  0.00     0.155 C
HETATM   31  C28 UNL     1       9.144  -1.386   6.930  1.00  0.00     0.154 C
HETATM   32  C29 UNL     1       9.216  -0.482   5.716  1.00  0.00     0.115 C
HETATM   33  C30 UNL     1      10.344  -0.834   4.813  1.00  0.00     0.158 C
HETATM   34  O4  UNL     1      10.758   0.027   4.066  1.00  0.00    -0.295 OA
BRANCH  30  35
HETATM   35  C23 UNL     1      10.522  -3.086   8.176  1.00  0.00     0.061 C
BRANCH  35  36
HETATM   36  C24 UNL     1      11.861  -2.854   8.776  1.00  0.00    -0.022 C
HETATM   37  C25 UNL     1      12.067  -2.968  10.081  1.00  0.00    -0.091 C
HETATM   38  C26 UNL     1      13.427  -2.726  10.648  1.00  0.00     0.042 C
HETATM   39  C27 UNL     1      10.980  -3.336  11.024  1.00  0.00     0.042 C
ENDBRANCH  35  36
ENDBRANCH  30  35
BRANCH  31  40
HETATM   40  O3  UNL     1       8.002  -2.216   6.851  1.00  0.00    -0.393 OA
ATOM     41  H3  UNL     1       7.447  -1.948   6.127  1.00  0.00     0.210 HD
ENDBRANCH  31  40
ENDBRANCH   1  28
TORSDOF 15
ENDMDL