MODEL 5
REMARK VINA RESULT: -6.704111478      1.668      2.808
REMARK  13 active torsions:
REMARK  status: ('A' for Active; 'I' for Inactive)
REMARK    1  A    between atoms: C2_2  and  C3_6
REMARK    2  A    between atoms: C3_6  and  C4_7
REMARK    3  A    between atoms: C4_7  and  C5_8
REMARK    4  A    between atoms: C5_8  and  O2_10
REMARK    5  A    between atoms: O2_10  and  C6_11
REMARK    6  A    between atoms: C18_24  and  C19_25
REMARK    7  A    between atoms: C19_25  and  C21_27
REMARK    8  A    between atoms: C21_27  and  C22_28
REMARK    9  A    between atoms: C22_28  and  C23_29
REMARK   10  A    between atoms: C23_29  and  C24_30
REMARK   11  A    between atoms: C24_30  and  C26_32
REMARK   12  A    between atoms: C26_32  and  O4_33
REMARK   13  A    between atoms: O4_33  and  C27_34
ROOT
HETATM    1  C6  UNL     1      14.479  -0.360  -2.043  1.00  0.00     0.206 C
HETATM    2  C7  UNL     1      13.901   0.062  -0.765  1.00  0.00     0.156 C
HETATM    3  O3  UNL     1      13.249   1.081  -0.723  1.00  0.00    -0.295 OA
HETATM    4  C8  UNL     1      14.129  -0.769   0.448  1.00  0.00     0.082 C
HETATM    5  C9  UNL     1      15.369  -1.579   0.209  1.00  0.00     0.017 C
HETATM    6  C10 UNL     1      15.252  -2.521  -0.959  1.00  0.00    -0.033 C
HETATM    7  C11 UNL     1      16.659  -3.066  -1.193  1.00  0.00     0.016 C
HETATM    8  C12 UNL     1      14.722  -1.842  -2.164  1.00  0.00     0.031 C
HETATM    9  C13 UNL     1      13.438  -2.470  -2.688  1.00  0.00     0.009 C
HETATM   10  C14 UNL     1      13.723  -3.895  -3.025  1.00  0.00     0.006 C
HETATM   11  C15 UNL     1      14.058  -4.590  -1.721  1.00  0.00    -0.005 C
HETATM   12  C16 UNL     1      13.003  -5.588  -1.420  1.00  0.00    -0.001 C
HETATM   13  C17 UNL     1      11.824  -5.200  -0.634  1.00  0.00     0.011 C
HETATM   14  C18 UNL     1      12.081  -6.374   0.329  1.00  0.00    -0.002 C
HETATM   15  C29 UNL     1      13.447  -6.459  -0.276  1.00  0.00    -0.036 C
HETATM   16  C30 UNL     1      13.821  -7.836  -0.817  1.00  0.00     0.016 C
HETATM   17  C31 UNL     1      14.592  -5.895   0.484  1.00  0.00     0.010 C
HETATM   18  C32 UNL     1      14.659  -4.414   0.612  1.00  0.00     0.006 C
HETATM   19  C33 UNL     1      14.281  -3.629  -0.593  1.00  0.00    -0.001 C
ENDROOT
BRANCH  14  20
HETATM   20  C19 UNL     1      11.077  -7.426   0.051  1.00  0.00    -0.014 C
HETATM   21  C20 UNL     1       9.745  -6.703  -0.210  1.00  0.00     0.010 C
BRANCH  20  22
HETATM   22  C21 UNL     1      10.792  -8.363   1.207  1.00  0.00     0.005 C
BRANCH  22  23
HETATM   23  C22 UNL     1       9.647  -7.829   2.048  1.00  0.00     0.001 C
BRANCH  23  24
HETATM   24  C23 UNL     1      10.074  -7.372   3.395  1.00  0.00     0.006 C
BRANCH  24  25
HETATM   25  C24 UNL     1       9.352  -6.143   3.891  1.00  0.00     0.006 C
HETATM   26  C25 UNL     1       8.549  -6.377   5.140  1.00  0.00     0.012 C
BRANCH  25  27
HETATM   27  C26 UNL     1      10.422  -5.090   4.200  1.00  0.00     0.183 C
BRANCH  27  28
HETATM   28  O4  UNL     1      11.063  -4.642   3.025  1.00  0.00    -0.321 OA
BRANCH  28  29
HETATM   29  C27 UNL     1      11.238  -3.259   2.911  1.00  0.00     0.254 C
HETATM   30  C28 UNL     1      11.046  -2.354   4.067  1.00  0.00     0.126 C
HETATM   31  O5  UNL     1      11.570  -2.756   1.810  1.00  0.00    -0.266 OA
ENDBRANCH  28  29
ENDBRANCH  27  28
ENDBRANCH  25  27
ENDBRANCH  24  25
ENDBRANCH  23  24
ENDBRANCH  22  23
ENDBRANCH  20  22
ENDBRANCH  14  20
BRANCH   1  32
HETATM   32  O2  UNL     1      15.621   0.396  -2.431  1.00  0.00    -0.308 OA
BRANCH  32  33
HETATM   33  C5  UNL     1      15.899   0.660  -3.762  1.00  0.00     0.259 C
HETATM   34  O1  UNL     1      14.929   0.582  -4.591  1.00  0.00    -0.265 OA
BRANCH  33  35
HETATM   35  C4  UNL     1      17.219   1.019  -4.295  1.00  0.00     0.117 C
BRANCH  35  36
HETATM   36  C3  UNL     1      17.809   2.190  -3.513  1.00  0.00     0.061 C
BRANCH  36  37
HETATM   37  C2  UNL     1      18.834   1.608  -2.609  1.00  0.00    -0.024 C
HETATM   38  C1  UNL     1      20.236   1.384  -3.123  1.00  0.00     0.062 C
HETATM   39  N1  UNL     1      18.483   1.313  -1.406  1.00  0.00    -0.406 N
ATOM     40  H12 UNL     1      19.187   0.913  -0.785  1.00  0.00     0.155 HD
ATOM     41  H11 UNL     1      17.536   1.465  -1.059  1.00  0.00     0.155 HD
ENDBRANCH  36  37
ENDBRANCH  35  36
ENDBRANCH  33  35
ENDBRANCH  32  33
ENDBRANCH   1  32
TORSDOF 13
ENDMDL