MODEL 1
REMARK VINA RESULT: -9.255599127      0.000      0.000
REMARK  15 active torsions:
REMARK  status: ('A' for Active; 'I' for Inactive)
REMARK    1  A    between atoms: C2_2  and  C3_3
REMARK    2  A    between atoms: C3_3  and  C4_4
REMARK    3  A    between atoms: C4_4  and  C5_5
REMARK    4  A    between atoms: C6_6  and  C8_8
REMARK    5  A    between atoms: C8_8  and  C9_9
REMARK    6  A    between atoms: C9_9  and  C10_10
REMARK    7  A    between atoms: C13_13  and  C14_14
REMARK    8  A    between atoms: C15_15  and  C16_16
REMARK    9  A    between atoms: C19_19  and  S1_20
REMARK   10  A    between atoms: S1_20  and  C20_21
REMARK   11  A    between atoms: C20_21  and  C21_22
REMARK   12  A    between atoms: C23_25  and  C24_26
REMARK   13  A    between atoms: C24_26  and  N1_27
REMARK   14  A    between atoms: C28_33  and  O2_34
REMARK   15  A    between atoms: C29_36  and  O3_37
ROOT
HETATM    1  C16 UNL     1      10.893  -3.194   5.293  1.00  0.00     0.012 C
HETATM    2  C17 UNL     1      10.098  -1.947   5.295  1.00  0.00     0.010 C
HETATM    3  C18 UNL     1       9.158  -1.773   6.420  1.00  0.00     0.016 C
HETATM    4  C19 UNL     1       9.018  -2.876   7.403  1.00  0.00     0.047 C
HETATM    5  C30 UNL     1       9.011  -4.197   6.620  1.00  0.00     0.020 C
HETATM    6  C31 UNL     1      10.118  -4.387   5.680  1.00  0.00    -0.010 C
HETATM    7  C32 UNL     1       9.599  -5.169   4.483  1.00  0.00     0.010 C
ENDROOT
BRANCH   4   8
HETATM    8  S1  UNL     1      10.100  -3.029   8.737  1.00  0.00    -0.164 SA
BRANCH   8   9
HETATM    9  C20 UNL     1       9.861  -4.028  10.123  1.00  0.00     0.083 C
BRANCH   9  10
HETATM   10  C21 UNL     1      10.515  -3.685  11.435  1.00  0.00     0.050 C
HETATM   11  C22 UNL     1      10.558  -4.941  12.331  1.00  0.00     0.176 C
HETATM   12  O1  UNL     1      11.805  -5.210  12.824  1.00  0.00    -0.381 OA
HETATM   13  C23 UNL     1      12.703  -5.592  11.818  1.00  0.00     0.170 C
HETATM   14  C28 UNL     1      12.769  -4.478  10.761  1.00  0.00     0.177 C
HETATM   15  C29 UNL     1      11.993  -3.314  11.288  1.00  0.00     0.156 C
BRANCH  13  16
HETATM   16  C24 UNL     1      14.091  -5.653  12.419  1.00  0.00     0.163 C
BRANCH  16  17
HETATM   17  N1  UNL     1      14.796  -6.781  11.896  1.00  0.00    -0.349 N
HETATM   18  C25 UNL     1      14.231  -8.018  11.737  1.00  0.00     0.108 A
HETATM   19  C26 UNL     1      15.211  -8.815  11.209  1.00  0.00     0.106 A
HETATM   20  N2  UNL     1      16.344  -8.089  11.050  1.00  0.00    -0.361 N
HETATM   21  C27 UNL     1      16.064  -6.833  11.480  1.00  0.00     0.182 A
ATOM     22  H2  UNL     1      17.234  -8.422  10.679  1.00  0.00     0.166 HD
ENDBRANCH  16  17
ENDBRANCH  13  16
BRANCH  14  23
HETATM   23  O2  UNL     1      14.061  -4.083  10.500  1.00  0.00    -0.390 OA
ATOM     24  H2  UNL     1      14.096  -3.307   9.952  1.00  0.00     0.210 HD
ENDBRANCH  14  23
BRANCH  15  25
HETATM   25  O3  UNL     1      12.445  -3.013  12.584  1.00  0.00    -0.392 OA
ATOM     26  H3  UNL     1      13.318  -3.383  12.647  1.00  0.00     0.210 HD
ENDBRANCH  15  25
ENDBRANCH   9  10
ENDBRANCH   8   9
ENDBRANCH   4   8
BRANCH   1  27
HETATM   27  C15 UNL     1      11.465  -3.339   3.918  1.00  0.00    -0.022 C
HETATM   28  C14 UNL     1      11.909  -2.306   3.210  1.00  0.00    -0.003 C
BRANCH  28  29
HETATM   29  C13 UNL     1      12.434  -2.590   1.903  1.00  0.00     0.007 C
HETATM   30  C2  UNL     1      13.481  -1.940   1.359  1.00  0.00    -0.055 C
HETATM   31  C1  UNL     1      14.141  -0.886   2.108  1.00  0.00     0.049 C
BRANCH  30  32
HETATM   32  C3  UNL     1      13.851  -2.398   0.008  1.00  0.00     0.062 C
BRANCH  32  33
HETATM   33  C4  UNL     1      13.446  -3.418  -0.590  1.00  0.00    -0.127 C
BRANCH  33  34
HETATM   34  C5  UNL     1      12.998  -4.538  -1.244  1.00  0.00     0.058 C
HETATM   35  C6  UNL     1      13.263  -5.824  -1.042  1.00  0.00    -0.076 C
HETATM   36  C7  UNL     1      14.177  -6.348   0.008  1.00  0.00     0.044 C
BRANCH  35  37
HETATM   37  C8  UNL     1      12.576  -6.856  -1.838  1.00  0.00     0.034 C
BRANCH  37  38
HETATM   38  C9  UNL     1      11.228  -6.591  -2.368  1.00  0.00     0.008 C
BRANCH  38  39
HETATM   39  C10 UNL     1      10.140  -7.071  -1.449  1.00  0.00    -0.023 C
HETATM   40  C11 UNL     1      10.587  -8.446  -0.941  1.00  0.00     0.009 C
HETATM   41  C12 UNL     1       8.830  -7.166  -2.217  1.00  0.00     0.009 C
ENDBRANCH  38  39
ENDBRANCH  37  38
ENDBRANCH  35  37
ENDBRANCH  33  34
ENDBRANCH  32  33
ENDBRANCH  30  32
ENDBRANCH  28  29
ENDBRANCH   1  27
TORSDOF 15
ENDMDL