MODEL 1
REMARK VINA RESULT: -8.654759103      0.000      0.000
REMARK  13 active torsions:
REMARK  status: ('A' for Active; 'I' for Inactive)
REMARK    1  A    between atoms: C2_2  and  C4_4
REMARK    2  A    between atoms: C4_4  and  O1_5
REMARK    3  A    between atoms: C4_4  and  C5_10
REMARK    4  A    between atoms: O1_5  and  S1_6
REMARK    5  A    between atoms: C5_10  and  C6_11
REMARK    6  A    between atoms: C5_10  and  C26_33
REMARK    7  A    between atoms: C7_12  and  C8_13
REMARK    8  A    between atoms: C8_13  and  C9_14
REMARK    9  A    between atoms: C8_13  and  C13_18
REMARK   10  A    between atoms: C9_14  and  C10_15
REMARK   11  A    between atoms: C16_21  and  C17_22
REMARK   12  A    between atoms: C26_33  and  C27_34
REMARK   13  A    between atoms: C27_34  and  C28_35
ROOT
HETATM    1  C8  UNL     1      12.453  -3.549   2.273  1.00  0.00    -0.076 C
ENDROOT
BRANCH   1   2
HETATM    2  C7  UNL     1      12.039  -4.485   1.171  1.00  0.00    -0.001 C
HETATM    3  C6  UNL     1      10.993  -5.247   1.139  1.00  0.00    -0.019 C
BRANCH   3   4
HETATM    4  C5  UNL     1      10.686  -6.129  -0.023  1.00  0.00     0.043 C
BRANCH   4   5
HETATM    5  C4  UNL     1      11.608  -7.350   0.197  1.00  0.00     0.180 C
BRANCH   5   6
HETATM    6  C2  UNL     1      10.806  -8.569   0.353  1.00  0.00    -0.062 C
HETATM    7  C1  UNL     1      10.744  -9.564  -0.495  1.00  0.00     0.016 C
HETATM    8  C3  UNL     1       9.946  -8.686   1.586  1.00  0.00     0.045 C
ENDBRANCH   5   6
BRANCH   5   9
HETATM    9  O1  UNL     1      12.532  -7.499  -0.811  1.00  0.00    -0.246 OA
BRANCH   9  10
HETATM   10  S1  UNL     1      14.050  -7.845  -0.202  1.00  0.00     0.252 S
HETATM   11  O2  UNL     1      14.912  -8.399  -1.324  1.00  0.00    -0.572 OA
HETATM   12  O3  UNL     1      14.048  -8.880   0.873  1.00  0.00    -0.572 OA
HETATM   13  O4  UNL     1      14.762  -6.416   0.354  1.00  0.00    -0.572 OA
ENDBRANCH   9  10
ENDBRANCH   5   9
ENDBRANCH   4   5
BRANCH   4  14
HETATM   14  C26 UNL     1      10.989  -5.587  -1.359  1.00  0.00     0.015 C
BRANCH  14  15
HETATM   15  C27 UNL     1      10.185  -6.092  -2.506  1.00  0.00     0.028 C
BRANCH  15  16
HETATM   16  C28 UNL     1       8.739  -5.736  -2.382  1.00  0.00    -0.025 C
HETATM   17  C29 UNL     1       8.188  -4.665  -2.929  1.00  0.00    -0.091 C
HETATM   18  C30 UNL     1       8.999  -3.690  -3.743  1.00  0.00     0.042 C
HETATM   19  C31 UNL     1       6.740  -4.362  -2.772  1.00  0.00     0.042 C
ENDBRANCH  15  16
ENDBRANCH  14  15
ENDBRANCH   4  14
ENDBRANCH   3   4
ENDBRANCH   1   2
BRANCH   1  20
HETATM   20  C9  UNL     1      11.375  -2.699   2.811  1.00  0.00     0.038 C
BRANCH  20  21
HETATM   21  C10 UNL     1      11.283  -2.894   4.318  1.00  0.00    -0.019 C
HETATM   22  C11 UNL     1      10.516  -4.172   4.588  1.00  0.00     0.010 C
HETATM   23  C12 UNL     1      10.380  -1.787   4.914  1.00  0.00     0.010 C
ENDBRANCH  20  21
ENDBRANCH   1  20
BRANCH   1  24
HETATM   24  C13 UNL     1      13.771  -2.918   1.977  1.00  0.00     0.015 C
HETATM   25  C14 UNL     1      14.296  -3.238   0.597  1.00  0.00     0.010 C
HETATM   26  C15 UNL     1      13.920  -2.163  -0.405  1.00  0.00     0.013 C
HETATM   27  C16 UNL     1      14.483  -0.819  -0.009  1.00  0.00    -0.008 C
HETATM   28  C22 UNL     1      13.442   0.281  -0.004  1.00  0.00     0.013 C
HETATM   29  C24 UNL     1      14.664  -0.608   1.444  1.00  0.00    -0.003 C
HETATM   30  C23 UNL     1      13.973   0.744   1.320  1.00  0.00     0.006 C
HETATM   31  C25 UNL     1      13.849  -1.496   2.349  1.00  0.00     0.014 C
BRANCH  27  32
HETATM   32  C17 UNL     1      15.627  -0.463  -0.906  1.00  0.00     0.158 C
HETATM   33  C18 UNL     1      16.062  -1.544  -1.846  1.00  0.00     0.204 C
HETATM   34  O5  UNL     1      16.913  -0.801  -2.701  1.00  0.00    -0.353 OA
HETATM   35  C19 UNL     1      16.553   0.514  -2.588  1.00  0.00     0.157 C
HETATM   36  C20 UNL     1      16.286   1.063  -3.959  1.00  0.00     0.078 C
HETATM   37  C21 UNL     1      17.698   1.294  -1.977  1.00  0.00     0.078 C
HETATM   38  O6  UNL     1      15.417   0.593  -1.755  1.00  0.00    -0.348 OA
ENDBRANCH  27  32
ENDBRANCH   1  24
TORSDOF 13
ENDMDL