MODEL 3
REMARK VINA RESULT: -7.789305400      0.791      1.261
REMARK  14 active torsions:
REMARK  status: ('A' for Active; 'I' for Inactive)
REMARK    1  A    between atoms: C3_3  and  C4_4
REMARK    2  A    between atoms: C4_4  and  C5_6
REMARK    3  A    between atoms: C5_6  and  C6_7
REMARK    4  A    between atoms: C6_7  and  C7_8
REMARK    5  A    between atoms: C7_8  and  C8_10
REMARK    6  A    between atoms: C8_10  and  O3_11
REMARK    7  A    between atoms: C19_23  and  O4_24
REMARK    8  A    between atoms: C23_29  and  C24_30
REMARK    9  A    between atoms: C24_30  and  C26_32
REMARK   10  A    between atoms: C26_32  and  C27_33
REMARK   11  A    between atoms: C27_33  and  C28_34
REMARK   12  A    between atoms: C28_34  and  O6_36
REMARK   13  A    between atoms: O6_36  and  C29_37
REMARK   14  A    between atoms: C29_37  and  C30_38
ROOT
HETATM    1  C8  UNL     1      14.359  -1.032  -1.493  1.00  0.00     0.122 C
HETATM    2  C9  UNL     1      13.997  -1.885  -2.672  1.00  0.00     0.047 C
HETATM    3  C10 UNL     1      13.986  -3.360  -2.455  1.00  0.00     0.009 C
HETATM    4  C11 UNL     1      13.113  -3.664  -1.303  1.00  0.00    -0.001 C
HETATM    5  C12 UNL     1      13.745  -3.007  -0.065  1.00  0.00    -0.002 C
HETATM    6  C13 UNL     1      14.974  -3.747   0.270  1.00  0.00     0.006 C
HETATM    7  C14 UNL     1      14.499  -5.138   0.784  1.00  0.00     0.007 C
HETATM    8  C15 UNL     1      13.969  -5.782  -0.439  1.00  0.00     0.004 C
HETATM    9  C16 UNL     1      13.582  -7.192  -0.388  1.00  0.00    -0.017 C
HETATM   10  C17 UNL     1      14.855  -8.037  -0.562  1.00  0.00     0.018 C
HETATM   11  C18 UNL     1      12.940  -7.654   0.880  1.00  0.00     0.018 C
HETATM   12  C19 UNL     1      12.681  -7.354  -1.604  1.00  0.00     0.127 C
HETATM   13  C20 UNL     1      12.427  -5.940  -2.142  1.00  0.00     0.042 C
HETATM   14  C21 UNL     1      12.771  -5.051  -0.993  1.00  0.00    -0.033 C
HETATM   15  C22 UNL     1      11.593  -5.067  -0.040  1.00  0.00     0.016 C
HETATM   16  C23 UNL     1      13.783  -1.529  -0.211  1.00  0.00     0.036 C
ENDROOT
BRANCH  16  17
HETATM   17  C24 UNL     1      14.293  -0.873   1.039  1.00  0.00    -0.010 C
HETATM   18  C25 UNL     1      13.696  -1.730   2.175  1.00  0.00     0.010 C
BRANCH  17  19
HETATM   19  C26 UNL     1      13.757   0.501   1.265  1.00  0.00     0.014 C
BRANCH  19  20
HETATM   20  C27 UNL     1      13.718   0.822   2.733  1.00  0.00     0.111 C
BRANCH  20  21
HETATM   21  C28 UNL     1      12.621   1.789   3.049  1.00  0.00     0.259 C
HETATM   22  O5  UNL     1      12.938   2.988   3.248  1.00  0.00    -0.265 OA
BRANCH  21  23
HETATM   23  O6  UNL     1      11.301   1.422   3.127  1.00  0.00    -0.318 OA
BRANCH  23  24
HETATM   24  C29 UNL     1      10.761   0.912   4.326  1.00  0.00     0.206 C
BRANCH  24  25
HETATM   25  C30 UNL     1      10.734  -0.565   4.393  1.00  0.00     0.002 C
HETATM   26  C31 UNL     1      10.185  -1.165   5.429  1.00  0.00    -0.089 C
HETATM   27  C32 UNL     1       9.600  -0.360   6.520  1.00  0.00     0.042 C
HETATM   28  C33 UNL     1      10.124  -2.655   5.562  1.00  0.00     0.042 C
ENDBRANCH  24  25
ENDBRANCH  23  24
ENDBRANCH  21  23
ENDBRANCH  20  21
ENDBRANCH  19  20
ENDBRANCH  17  19
ENDBRANCH  16  17
BRANCH   1  29
HETATM   29  C7  UNL     1      15.789  -0.737  -1.541  1.00  0.00     0.161 C
HETATM   30  O2  UNL     1      16.668  -1.562  -1.752  1.00  0.00    -0.295 OA
BRANCH  29  31
HETATM   31  C6  UNL     1      16.326   0.643  -1.335  1.00  0.00     0.089 C
BRANCH  31  32
HETATM   32  C5  UNL     1      17.083   1.175  -2.520  1.00  0.00     0.090 C
BRANCH  32  33
HETATM   33  C4  UNL     1      18.320   1.839  -1.975  1.00  0.00     0.149 C
HETATM   34  O1  UNL     1      18.247   3.064  -1.721  1.00  0.00    -0.293 OA
BRANCH  33  35
HETATM   35  C3  UNL     1      19.538   1.121  -1.747  1.00  0.00     0.045 C
HETATM   36  C2  UNL     1      20.517   1.056  -2.599  1.00  0.00    -0.027 C
HETATM   37  C1  UNL     1      20.504   1.714  -3.922  1.00  0.00     0.036 C
ENDBRANCH  33  35
ENDBRANCH  32  33
ENDBRANCH  31  32
ENDBRANCH  29  31
ENDBRANCH   1  29
BRANCH   1  38
HETATM   38  O3  UNL     1      13.700   0.197  -1.798  1.00  0.00    -0.382 OA
ATOM     39  H3  UNL     1      12.774   0.035  -1.658  1.00  0.00     0.211 HD
ENDBRANCH   1  38
BRANCH  12  40
HETATM   40  O4  UNL     1      11.518  -8.026  -1.316  1.00  0.00    -0.395 OA
ATOM     41  H4  UNL     1      11.000  -8.210  -2.090  1.00  0.00     0.210 HD
ENDBRANCH  12  40
TORSDOF 14
ENDMDL