MODEL 2
REMARK VINA RESULT: -8.589240738      2.542      5.415
REMARK  15 active torsions:
REMARK  status: ('A' for Active; 'I' for Inactive)
REMARK    1  A    between atoms: C2_2  and  C4_4
REMARK    2  A    between atoms: C4_4  and  C5_5
REMARK    3  A    between atoms: C5_5  and  C6_6
REMARK    4  A    between atoms: C5_5  and  C15_21
REMARK    5  A    between atoms: C7_7  and  N1_8
REMARK    6  A    between atoms: N1_8  and  C8_9
REMARK    7  A    between atoms: N1_8  and  O2_18
REMARK    8  A    between atoms: C8_9  and  C9_10
REMARK    9  A    between atoms: C9_10  and  C10_11
REMARK   10  A    between atoms: C10_11  and  C11_12
REMARK   11  A    between atoms: C11_12  and  C12_13
REMARK   12  A    between atoms: C12_13  and  C13_14
REMARK   13  A    between atoms: C13_14  and  S1_15
REMARK   14  A    between atoms: O2_18  and  O3_19
REMARK   15  A    between atoms: C25_32  and  O5_33
ROOT
HETATM    1  C15 UNL     1      11.682  -3.292   2.164  1.00  0.00     0.023 C
HETATM    2  C16 UNL     1      11.278  -4.458   1.304  1.00  0.00     0.010 C
HETATM    3  C17 UNL     1      12.554  -4.798   0.498  1.00  0.00     0.007 C
HETATM    4  C18 UNL     1      13.073  -3.393   0.363  1.00  0.00     0.003 C
HETATM    5  C19 UNL     1      14.207  -3.141  -0.490  1.00  0.00    -0.032 C
HETATM    6  C20 UNL     1      13.682  -3.200  -1.945  1.00  0.00     0.016 C
HETATM    7  C21 UNL     1      15.371  -4.043  -0.453  1.00  0.00     0.015 C
HETATM    8  C22 UNL     1      16.556  -3.479  -1.187  1.00  0.00     0.042 C
HETATM    9  C23 UNL     1      16.292  -2.249  -1.922  1.00  0.00    -0.024 A
HETATM   10  C24 UNL     1      16.797  -1.732  -3.088  1.00  0.00     0.152 A
HETATM   11  O4  UNL     1      16.215  -0.557  -3.335  1.00  0.00    -0.299 OA
HETATM   12  C25 UNL     1      15.342  -0.280  -2.374  1.00  0.00     0.190 A
HETATM   13  C26 UNL     1      15.358  -1.296  -1.482  1.00  0.00     0.013 A
HETATM   14  C27 UNL     1      14.724  -1.727  -0.208  1.00  0.00     0.033 C
HETATM   15  C28 UNL     1      13.583  -0.924   0.259  1.00  0.00     0.011 C
HETATM   16  C29 UNL     1      13.202  -1.369   1.654  1.00  0.00     0.011 C
HETATM   17  C30 UNL     1      13.036  -2.876   1.786  1.00  0.00    -0.032 C
HETATM   18  C31 UNL     1      14.114  -3.423   2.670  1.00  0.00     0.016 C
ENDROOT
BRANCH   1  19
HETATM   19  C5  UNL     1      11.265  -3.535   3.566  1.00  0.00    -0.073 C
BRANCH  19  20
HETATM   20  C4  UNL     1      11.361  -2.445   4.550  1.00  0.00     0.038 C
BRANCH  20  21
HETATM   21  C2  UNL     1      10.267  -1.474   4.718  1.00  0.00    -0.019 C
HETATM   22  C1  UNL     1      10.505  -0.026   4.617  1.00  0.00     0.010 C
HETATM   23  C3  UNL     1       9.738  -1.698   6.164  1.00  0.00     0.010 C
ENDBRANCH  20  21
ENDBRANCH  19  20
BRANCH  19  24
HETATM   24  C6  UNL     1      10.226  -4.567   3.741  1.00  0.00     0.022 C
HETATM   25  C7  UNL     1      10.038  -5.268   4.827  1.00  0.00     0.120 C
BRANCH  25  26
HETATM   26  N1  UNL     1       9.076  -6.272   5.088  1.00  0.00    -0.238 N
BRANCH  26  27
HETATM   27  C8  UNL     1       9.177  -7.550   4.435  1.00  0.00     0.158 C
BRANCH  27  28
HETATM   28  C9  UNL     1      10.059  -7.676   3.271  1.00  0.00     0.022 C
BRANCH  28  29
HETATM   29  C10 UNL     1       9.630  -8.465   2.098  1.00  0.00     0.002 C
BRANCH  29  30
HETATM   30  C11 UNL     1       9.692  -7.759   0.772  1.00  0.00     0.001 C
BRANCH  30  31
HETATM   31  C12 UNL     1      10.837  -8.247  -0.085  1.00  0.00     0.012 C
BRANCH  31  32
HETATM   32  C13 UNL     1      10.879  -7.476  -1.382  1.00  0.00     0.108 C
BRANCH  32  33
HETATM   33  S1  UNL     1       9.300  -6.746  -1.754  1.00  0.00     0.010 S
HETATM   34  C14 UNL     1       9.484  -5.181  -2.549  1.00  0.00     0.127 C
HETATM   35  O1  UNL     1       8.365  -7.789  -2.659  1.00  0.00    -0.258 OA
ENDBRANCH  32  33
ENDBRANCH  31  32
ENDBRANCH  30  31
ENDBRANCH  29  30
ENDBRANCH  28  29
ENDBRANCH  27  28
ENDBRANCH  26  27
BRANCH  26  36
HETATM   36  O2  UNL     1       8.064  -6.045   5.941  1.00  0.00    -0.113 OA
BRANCH  36  37
HETATM   37  O3  UNL     1       8.286  -4.914   6.565  1.00  0.00    -0.227 OA
ATOM     38  H3  UNL     1       7.795  -4.225   6.132  1.00  0.00     0.256 HD
ENDBRANCH  36  37
ENDBRANCH  26  36
ENDBRANCH  25  26
ENDBRANCH  19  24
ENDBRANCH   1  19
BRANCH  12  39
HETATM   39  O5  UNL     1      14.523   0.839  -2.240  1.00  0.00    -0.340 OA
ATOM     40  H5  UNL     1      14.102   1.175  -1.457  1.00  0.00     0.220 HD
ENDBRANCH  12  39
TORSDOF 15
ENDMDL