MODEL 3
REMARK VINA RESULT: -8.283682894      0.825      2.051
REMARK  15 active torsions:
REMARK  status: ('A' for Active; 'I' for Inactive)
REMARK    1  A    between atoms: C2_2  and  C3_3
REMARK    2  A    between atoms: C3_3  and  O1_4
REMARK    3  A    between atoms: C3_3  and  C4_6
REMARK    4  A    between atoms: C3_3  and  C15_19
REMARK    5  A    between atoms: C4_6  and  C5_7
REMARK    6  A    between atoms: C5_7  and  C6_8
REMARK    7  A    between atoms: C6_8  and  C7_9
REMARK    8  A    between atoms: C7_9  and  C9_11
REMARK    9  A    between atoms: C7_9  and  O2_15
REMARK   10  A    between atoms: C9_11  and  C10_12
REMARK   11  A    between atoms: O2_15  and  C13_16
REMARK   12  A    between atoms: C16_20  and  C17_21
REMARK   13  A    between atoms: C17_21  and  C18_22
REMARK   14  A    between atoms: C17_21  and  C28_32
REMARK   15  A    between atoms: C32_36  and  O4_37
ROOT
HETATM    1  C17 UNL     1      14.889  -2.442  -0.177  1.00  0.00     0.028 C
ENDROOT
BRANCH   1   2
HETATM    2  C16 UNL     1      13.737  -1.622   0.131  1.00  0.00    -0.022 C
HETATM    3  C15 UNL     1      13.447  -0.424   0.807  1.00  0.00     0.007 C
BRANCH   3   4
HETATM    4  C3  UNL     1      13.513  -0.176   2.309  1.00  0.00     0.078 C
BRANCH   4   5
HETATM    5  C2  UNL     1      12.701   0.960   2.713  1.00  0.00     0.038 C
HETATM    6  C1  UNL     1      13.280   2.347   2.674  1.00  0.00     0.008 C
ENDBRANCH   4   5
BRANCH   4   7
HETATM    7  O1  UNL     1      14.886   0.012   2.637  1.00  0.00    -0.386 OA
ATOM      8  H1  UNL     1      15.079  -0.273   3.522  1.00  0.00     0.211 HD
ENDBRANCH   4   7
BRANCH   4   9
HETATM    9  C4  UNL     1      13.149  -1.509   2.897  1.00  0.00     0.068 C
BRANCH   9  10
HETATM   10  C5  UNL     1      11.845  -1.724   3.500  1.00  0.00    -0.024 C
BRANCH  10  11
HETATM   11  C6  UNL     1      11.486  -2.982   4.185  1.00  0.00     0.007 C
BRANCH  11  12
HETATM   12  C7  UNL     1      10.519  -3.020   5.316  1.00  0.00     0.085 C
HETATM   13  C8  UNL     1       9.898  -1.641   5.460  1.00  0.00     0.051 C
BRANCH  12  14
HETATM   14  C9  UNL     1      11.247  -3.454   6.533  1.00  0.00     0.046 C
BRANCH  14  15
HETATM   15  C10 UNL     1      10.904  -2.986   7.860  1.00  0.00    -0.020 C
HETATM   16  C11 UNL     1       9.629  -3.471   8.493  1.00  0.00     0.009 C
HETATM   17  C12 UNL     1      11.969  -3.053   8.933  1.00  0.00     0.009 C
ENDBRANCH  14  15
ENDBRANCH  12  14
BRANCH  12  18
HETATM   18  O2  UNL     1       9.395  -3.831   5.015  1.00  0.00    -0.307 OA
BRANCH  18  19
HETATM   19  C13 UNL     1       9.273  -5.169   5.138  1.00  0.00     0.255 C
HETATM   20  C14 UNL     1      10.035  -6.160   4.320  1.00  0.00     0.126 C
HETATM   21  O3  UNL     1       8.487  -5.629   5.972  1.00  0.00    -0.266 OA
ENDBRANCH  18  19
ENDBRANCH  12  18
ENDBRANCH  11  12
ENDBRANCH  10  11
ENDBRANCH   9  10
ENDBRANCH   4   9
ENDBRANCH   3   4
ENDBRANCH   1   2
BRANCH   1  22
HETATM   22  C18 UNL     1      14.667  -3.927   0.117  1.00  0.00     0.004 C
HETATM   23  C19 UNL     1      14.282  -4.018   1.626  1.00  0.00     0.007 C
HETATM   24  C20 UNL     1      13.041  -4.704   1.269  1.00  0.00     0.011 C
HETATM   25  C21 UNL     1      13.602  -4.800  -0.188  1.00  0.00    -0.028 C
HETATM   26  C22 UNL     1      12.476  -4.749  -1.094  1.00  0.00     0.011 C
HETATM   27  C26 UNL     1      14.075  -6.281  -0.265  1.00  0.00    -0.032 A
HETATM   28  C23 UNL     1      12.386  -6.044  -1.920  1.00  0.00     0.006 C
HETATM   29  C24 UNL     1      13.347  -6.977  -1.301  1.00  0.00    -0.005 A
HETATM   30  C25 UNL     1      13.053  -7.296   0.172  1.00  0.00     0.015 A
HETATM   31  C27 UNL     1      15.488  -6.629   0.020  1.00  0.00     0.016 C
ENDBRANCH   1  22
BRANCH   1  32
HETATM   32  C28 UNL     1      15.536  -2.344  -1.530  1.00  0.00     0.024 C
HETATM   33  C29 UNL     1      16.820  -3.148  -1.707  1.00  0.00     0.024 C
HETATM   34  C30 UNL     1      14.654  -3.002  -2.615  1.00  0.00     0.020 C
HETATM   35  C31 UNL     1      15.216  -2.747  -4.003  1.00  0.00     0.033 C
HETATM   36  C32 UNL     1      15.008  -1.313  -4.335  1.00  0.00     0.125 C
HETATM   37  C33 UNL     1      15.197  -0.359  -3.186  1.00  0.00     0.111 C
HETATM   38  C34 UNL     1      15.873  -1.007  -2.027  1.00  0.00     0.138 C
HETATM   39  O5  UNL     1      16.755  -0.375  -1.478  1.00  0.00    -0.297 OA
BRANCH  36  40
HETATM   40  O4  UNL     1      13.738  -1.165  -4.905  1.00  0.00    -0.395 OA
ATOM     41  H4  UNL     1      13.274  -0.480  -4.439  1.00  0.00     0.210 HD
ENDBRANCH  36  40
ENDBRANCH   1  32
TORSDOF 15
ENDMDL