MODEL 5
REMARK VINA RESULT: -8.516004093      0.952      1.169
REMARK  12 active torsions:
REMARK  status: ('A' for Active; 'I' for Inactive)
REMARK    1  A    between atoms: C2_2  and  C4_4
REMARK    2  A    between atoms: C6_6  and  C7_7
REMARK    3  A    between atoms: C7_7  and  C8_8
REMARK    4  A    between atoms: C8_8  and  C10_10
REMARK    5  A    between atoms: C10_10  and  O1_11
REMARK    6  A    between atoms: C12_14  and  C13_15
REMARK    7  A    between atoms: C17_19  and  C18_20
REMARK    8  A    between atoms: C18_20  and  C19_21
REMARK    9  A    between atoms: C19_21  and  C20_22
REMARK   10  A    between atoms: C20_22  and  C21_23
REMARK   11  A    between atoms: C21_23  and  C22_24
REMARK   12  A    between atoms: C24_26  and  C25_27
ROOT
HETATM    1  C10 UNL     1      12.827  -4.956   0.156  1.00  0.00     0.100 C
HETATM    2  C11 UNL     1      12.248  -4.044   1.218  1.00  0.00     0.076 C
HETATM    3  C12 UNL     1      11.680  -5.085   2.156  1.00  0.00     0.155 C
HETATM    4  O5  UNL     1      11.556  -6.261   1.495  1.00  0.00    -0.364 OA
HETATM    5  C26 UNL     1      11.814  -6.053   0.142  1.00  0.00     0.142 C
HETATM    6  C27 UNL     1      10.528  -5.733  -0.522  1.00  0.00     0.047 C
HETATM    7  C28 UNL     1       9.386  -6.617  -0.152  1.00  0.00     0.009 C
HETATM    8  C29 UNL     1       9.731  -7.960   0.363  1.00  0.00     0.068 C
HETATM    9  C30 UNL     1      10.929  -8.604  -0.245  1.00  0.00     0.166 C
HETATM   10  C31 UNL     1      10.751 -10.091  -0.500  1.00  0.00     0.079 C
HETATM   11  O6  UNL     1      11.435  -7.925  -1.341  1.00  0.00    -0.322 OA
HETATM   12  C32 UNL     1      12.362  -7.329  -0.481  1.00  0.00     0.304 C
HETATM   13  O7  UNL     1      12.115  -8.373   0.406  1.00  0.00    -0.322 OA
ENDROOT
BRANCH   3  14
HETATM   14  C13 UNL     1      10.423  -4.606   2.835  1.00  0.00     0.158 C
HETATM   15  C14 UNL     1      10.797  -3.946   4.132  1.00  0.00     0.041 C
HETATM   16  C15 UNL     1      10.456  -4.977   5.171  1.00  0.00     0.067 C
HETATM   17  C16 UNL     1       9.358  -5.722   4.534  1.00  0.00     0.043 C
HETATM   18  C17 UNL     1       8.326  -6.290   5.088  1.00  0.00     0.005 C
HETATM   19  O4  UNL     1       9.639  -5.709   3.164  1.00  0.00    -0.348 OA
BRANCH  18  20
HETATM   20  C18 UNL     1       8.081  -6.269   6.556  1.00  0.00     0.029 C
BRANCH  20  21
HETATM   21  C19 UNL     1       6.883  -5.417   6.875  1.00  0.00     0.004 C
BRANCH  21  22
HETATM   22  C20 UNL     1       7.262  -3.989   7.204  1.00  0.00     0.005 C
BRANCH  22  23
HETATM   23  C21 UNL     1       8.485  -3.909   8.057  1.00  0.00     0.034 C
BRANCH  23  24
HETATM   24  C22 UNL     1       9.384  -2.786   7.619  1.00  0.00    -0.077 C
HETATM   25  C23 UNL     1      10.771  -2.783   8.118  1.00  0.00     0.043 C
HETATM   26  C24 UNL     1       8.951  -1.836   6.818  1.00  0.00     0.086 C
BRANCH  26  27
HETATM   27  C25 UNL     1       9.766  -0.734   6.365  1.00  0.00     0.198 C
HETATM   28  O2  UNL     1      10.192  -0.727   5.162  1.00  0.00    -0.644 OA
HETATM   29  O3  UNL     1      10.136   0.343   7.143  1.00  0.00    -0.644 OA
ENDBRANCH  26  27
ENDBRANCH  23  24
ENDBRANCH  22  23
ENDBRANCH  21  22
ENDBRANCH  20  21
ENDBRANCH  18  20
ENDBRANCH   3  14
BRANCH   1  30
HETATM   30  C8  UNL     1      13.039  -4.215  -1.075  1.00  0.00     0.023 C
HETATM   31  C9  UNL     1      13.505  -4.950  -2.289  1.00  0.00     0.013 C
BRANCH  30  32
HETATM   32  C7  UNL     1      13.964  -3.047  -0.859  1.00  0.00     0.035 C
BRANCH  32  33
HETATM   33  C6  UNL     1      14.280  -2.259  -2.059  1.00  0.00    -0.019 C
HETATM   34  C4  UNL     1      15.518  -2.135  -2.476  1.00  0.00    -0.061 C
HETATM   35  C5  UNL     1      16.600  -2.804  -1.749  1.00  0.00     0.048 C
BRANCH  34  36
HETATM   36  C2  UNL     1      15.782  -1.351  -3.656  1.00  0.00    -0.066 C
HETATM   37  C1  UNL     1      15.452  -1.721  -4.853  1.00  0.00     0.019 C
HETATM   38  C3  UNL     1      16.485  -0.017  -3.523  1.00  0.00     0.048 C
ENDBRANCH  34  36
ENDBRANCH  32  33
ENDBRANCH  30  32
ENDBRANCH   1  30
BRANCH   1  39
HETATM   39  O1  UNL     1      13.973  -5.501   0.728  1.00  0.00    -0.386 OA
ATOM     40  H1  UNL     1      14.072  -6.441   0.624  1.00  0.00     0.210 HD
ENDBRANCH   1  39
TORSDOF 12
ENDMDL