MODEL 5
REMARK VINA RESULT: -8.392554371      1.296      1.753
REMARK  16 active torsions:
REMARK  status: ('A' for Active; 'I' for Inactive)
REMARK    1  A    between atoms: C2_2  and  C3_3
REMARK    2  A    between atoms: C3_3  and  C4_4
REMARK    3  A    between atoms: C4_4  and  O2_6
REMARK    4  A    between atoms: O2_6  and  C5_7
REMARK    5  A    between atoms: C5_7  and  C8_10
REMARK    6  A    between atoms: C8_10  and  C9_11
REMARK    7  A    between atoms: C9_11  and  O4_13
REMARK    8  A    between atoms: O4_13  and  C10_14
REMARK    9  A    between atoms: C10_14  and  C21_25
REMARK   10  A    between atoms: C11_15  and  C12_16
REMARK   11  A    between atoms: C13_17  and  C15_19
REMARK   12  A    between atoms: C15_19  and  C16_20
REMARK   13  A    between atoms: C16_20  and  C17_21
REMARK   14  A    between atoms: C17_21  and  C18_22
REMARK   15  A    between atoms: C25_29  and  C27_31
REMARK   16  A    between atoms: C30_36  and  O7_37
ROOT
HETATM    1  C10 UNL     1      13.383  -2.414   1.029  1.00  0.00     0.061 C
HETATM    2  C11 UNL     1      13.011  -1.827   2.187  1.00  0.00     0.033 C
ENDROOT
BRANCH   1   3
HETATM    3  O4  UNL     1      12.864  -3.598   0.645  1.00  0.00    -0.283 OA
BRANCH   3   4
HETATM    4  C9  UNL     1      13.217  -4.893   0.663  1.00  0.00     0.266 C
HETATM    5  O3  UNL     1      14.423  -5.214   0.933  1.00  0.00    -0.265 OA
BRANCH   4   6
HETATM    6  C8  UNL     1      12.224  -5.965   0.370  1.00  0.00     0.149 C
BRANCH   6   7
HETATM    7  C5  UNL     1      12.626  -6.952  -0.663  1.00  0.00     0.072 C
HETATM    8  C6  UNL     1      13.819  -7.797  -0.342  1.00  0.00     0.047 C
HETATM    9  C7  UNL     1      12.999  -6.209  -1.978  1.00  0.00     0.047 C
BRANCH   7  10
HETATM   10  O2  UNL     1      11.519  -7.738  -1.043  1.00  0.00    -0.310 OA
BRANCH  10  11
HETATM   11  C4  UNL     1      10.346  -7.880  -0.338  1.00  0.00     0.259 C
HETATM   12  O1  UNL     1      10.346  -8.649   0.652  1.00  0.00    -0.265 OA
BRANCH  11  13
HETATM   13  C3  UNL     1       9.132  -7.111  -0.791  1.00  0.00     0.111 C
BRANCH  13  14
HETATM   14  C2  UNL     1       9.151  -6.915  -2.276  1.00  0.00     0.005 C
HETATM   15  C1  UNL     1       9.273  -5.443  -2.641  1.00  0.00     0.005 C
ENDBRANCH  13  14
ENDBRANCH  11  13
ENDBRANCH  10  11
ENDBRANCH   7  10
ENDBRANCH   6   7
ENDBRANCH   4   6
ENDBRANCH   3   4
ENDBRANCH   1   3
BRANCH   1  16
HETATM   16  C21 UNL     1      14.350  -1.661   0.257  1.00  0.00     0.054 C
HETATM   17  C22 UNL     1      14.180  -0.132   0.508  1.00  0.00     0.013 C
HETATM   18  C23 UNL     1      14.819   0.525  -0.717  1.00  0.00     0.007 C
HETATM   19  C24 UNL     1      15.527  -0.639  -1.351  1.00  0.00     0.015 C
HETATM   20  C25 UNL     1      16.197  -0.440  -2.612  1.00  0.00     0.049 C
HETATM   21  C31 UNL     1      14.432  -1.705  -1.235  1.00  0.00    -0.004 C
HETATM   22  C26 UNL     1      17.506   0.326  -2.311  1.00  0.00     0.027 C
HETATM   23  C28 UNL     1      16.634  -1.767  -3.195  1.00  0.00     0.023 C
HETATM   24  C29 UNL     1      15.510  -2.778  -3.153  1.00  0.00     0.034 C
HETATM   25  C30 UNL     1      15.002  -2.988  -1.750  1.00  0.00     0.127 C
HETATM   26  C32 UNL     1      13.184  -1.277  -1.902  1.00  0.00     0.019 C
BRANCH  20  27
HETATM   27  C27 UNL     1      15.561   0.336  -3.675  1.00  0.00     0.181 C
HETATM   28  O5  UNL     1      14.480  -0.023  -4.236  1.00  0.00    -0.647 OA
HETATM   29  O6  UNL     1      16.121   1.514  -4.131  1.00  0.00    -0.647 OA
ENDBRANCH  20  27
BRANCH  25  30
HETATM   30  O7  UNL     1      16.058  -3.364  -0.926  1.00  0.00    -0.395 OA
ATOM     31  H7  UNL     1      16.011  -2.880  -0.110  1.00  0.00     0.210 HD
ENDBRANCH  25  30
ENDBRANCH   1  16
BRANCH   2  32
HETATM   32  C12 UNL     1      12.050  -2.380   3.118  1.00  0.00     0.005 C
HETATM   33  C13 UNL     1      11.295  -1.578   3.884  1.00  0.00    -0.083 C
HETATM   34  C14 UNL     1      11.425  -0.103   3.792  1.00  0.00     0.043 C
BRANCH  33  35
HETATM   35  C15 UNL     1      10.318  -2.155   4.820  1.00  0.00     0.045 C
BRANCH  35  36
HETATM   36  C16 UNL     1      10.729  -3.508   5.402  1.00  0.00     0.084 C
BRANCH  36  37
HETATM   37  C17 UNL     1      10.089  -4.669   4.971  1.00  0.00    -0.179 C
BRANCH  37  38
HETATM   38  C18 UNL     1       9.502  -5.733   4.574  1.00  0.00     0.044 C
HETATM   39  C19 UNL     1       9.832  -6.212   3.168  1.00  0.00     0.022 C
HETATM   40  C20 UNL     1       8.505  -6.568   5.332  1.00  0.00     0.022 C
ENDBRANCH  37  38
ENDBRANCH  36  37
ENDBRANCH  35  36
ENDBRANCH  33  35
ENDBRANCH   2  32
TORSDOF 16
ENDMDL