MODEL 4
REMARK VINA RESULT: -6.164872175      2.556      4.335
REMARK  2 active torsions:
REMARK  status: ('A' for Active; 'I' for Inactive)
REMARK       I    between atoms: C1_2  and  N2_4
REMARK       I    between atoms: N2_4  and  C2_6
REMARK    1  A    between atoms: C2_6  and  C3_8
REMARK    2  A    between atoms: C3_8  and  N3_9
ROOT
HETATM    1  C3  UNL     1      36.743  40.653  25.484  1.00  0.00     0.367 C
HETATM    2  N4  UNL     1      37.441  41.799  25.006  1.00  0.00    -0.252 N
ATOM      3  H4  UNL     1      37.681  42.046  24.046  1.00  0.00     0.177 HD
HETATM    4  S1  UNL     1      37.784  42.675  26.477  1.00  0.00     0.324 S
HETATM    5  O3  UNL     1      37.631  44.148  26.251  1.00  0.00    -0.182 OA
HETATM    6  O4  UNL     1      39.112  42.343  27.031  1.00  0.00    -0.182 OA
HETATM    7  N5  UNL     1      36.496  42.034  27.443  1.00  0.00    -0.233 N
ATOM      8  H5  UNL     1      36.213  42.328  28.378  1.00  0.00     0.183 HD
HETATM    9  C4  UNL     1      35.926  41.014  26.651  1.00  0.00     0.300 C
HETATM   10  O5  UNL     1      34.830  40.476  26.921  1.00  0.00    -0.267 OA
ENDROOT
BRANCH   1  11
HETATM   11  C2  UNL     1      35.912  40.091  24.394  1.00  0.00     0.293 C
HETATM   12  N2  UNL     1      34.609  40.533  24.093  1.00  0.00    -0.277 N
HETATM   13  C1  UNL     1      33.889  39.945  23.040  1.00  0.00     0.335 C
ATOM     14  H2  UNL     1      34.188  41.282  24.641  1.00  0.00     0.173 HD
HETATM   15  N1  UNL     1      32.569  40.333  22.671  1.00  0.00    -0.040 NA
HETATM   16  O1  UNL     1      34.391  39.003  22.335  1.00  0.00    -0.251 OA
HETATM   17  O2  UNL     1      36.405  39.165  23.701  1.00  0.00    -0.268 OA
ENDBRANCH   1  11
BRANCH   1  18
HETATM   18  N3  UNL     1      37.702  39.642  25.956  1.00  0.00    -0.034 N
ATOM     19  H33 UNL     1      37.773  39.627  26.973  1.00  0.00     0.278 HD
ATOM     20  H32 UNL     1      37.356  38.692  25.816  1.00  0.00     0.278 HD
ATOM     21  H31 UNL     1      38.609  39.788  25.511  1.00  0.00     0.278 HD
ENDBRANCH   1  18
TORSDOF 2
ENDMDL