MODEL 1
REMARK VINA RESULT: -7.237034982      0.000      0.000
REMARK  2 active torsions:
REMARK  status: ('A' for Active; 'I' for Inactive)
REMARK    1  A    between atoms: N1_1  and  N2_4
REMARK       I    between atoms: N2_4  and  C1_6
REMARK       I    between atoms: C1_6  and  N3_8
REMARK    2  A    between atoms: C3_15  and  S1_16
ROOT
HETATM    1  N2  UNL     1      35.966  38.890  26.343  1.00  0.00    -0.258 N
ATOM      2  H2  UNL     1      35.749  38.189  27.052  1.00  0.00     0.191 HD
HETATM    3  C1  UNL     1      35.130  40.021  26.158  1.00  0.00     0.352 C
HETATM    4  O1  UNL     1      35.384  40.903  25.281  1.00  0.00    -0.245 OA
HETATM    5  N3  UNL     1      33.982  40.215  26.941  1.00  0.00    -0.137 N
ATOM      6  H3  UNL     1      33.243  39.512  26.887  1.00  0.00     0.189 HD
HETATM    7  C2  UNL     1      33.799  41.223  27.724  1.00  0.00     0.715 A
HETATM    8  N4  UNL     1      34.739  42.279  27.903  1.00  0.00    -0.128 N
ATOM      9  H4  UNL     1      35.618  42.253  27.387  1.00  0.00     0.205 HD
HETATM   10  N5  UNL     1      34.486  43.351  28.770  1.00  0.00    -0.258 N
ATOM     11  H5  UNL     1      35.197  44.077  28.856  1.00  0.00     0.190 HD
HETATM   12  C3  UNL     1      33.405  43.473  29.464  1.00  0.00     0.255 A
HETATM   13  N6  UNL     1      32.430  42.448  29.326  1.00  0.00    -0.258 N
ATOM     14  H6  UNL     1      31.567  42.522  29.866  1.00  0.00     0.190 HD
HETATM   15  N7  UNL     1      32.598  41.335  28.480  1.00  0.00    -0.128 N
ATOM     16  H7  UNL     1      31.872  40.622  28.410  1.00  0.00     0.205 HD
ENDROOT
BRANCH   1  17
HETATM   17  N1  UNL     1      37.091  38.763  25.531  1.00  0.00    -0.341 N
ATOM     18  H12 UNL     1      37.458  37.837  25.311  1.00  0.00     0.177 HD
ATOM     19  H11 UNL     1      37.524  39.613  25.170  1.00  0.00     0.177 HD
ENDBRANCH   1  17
BRANCH  12  20
HETATM   20  S1  UNL     1      33.153  44.850  30.535  1.00  0.00     0.175 S
HETATM   21  O2  UNL     1      32.776  46.073  29.781  1.00  0.00    -0.589 OA
HETATM   22  O3  UNL     1      34.409  45.010  31.333  1.00  0.00    -0.589 OA
HETATM   23  O4  UNL     1      31.894  44.518  31.621  1.00  0.00    -0.589 OA
ENDBRANCH  12  20
TORSDOF 2
ENDMDL