MODEL 4
REMARK VINA RESULT: -6.051488606      2.330      3.779
REMARK  3 active torsions:
REMARK  status: ('A' for Active; 'I' for Inactive)
REMARK    1  A    between atoms: C2_3  and  N2_4
REMARK    2  A    between atoms: N2_4  and  N3_6
REMARK       I    between atoms: N5_13  and  C5_14
REMARK    3  A    between atoms: C6_17  and  C7_18
ROOT
HETATM    1  C1  UNL     1      34.243  43.439  26.523  1.00  0.00     0.171 C
HETATM    2  N1  UNL     1      35.362  42.488  26.570  1.00  0.00    -0.191 N
HETATM    3  C2  UNL     1      35.103  41.200  27.103  1.00  0.00     0.692 C
HETATM    4  N4  UNL     1      35.975  40.345  27.501  1.00  0.00    -0.223 N
ATOM      5  H4  UNL     1      35.563  39.479  27.848  1.00  0.00     0.177 HD
HETATM    6  C3  UNL     1      37.401  40.353  27.558  1.00  0.00     0.158 C
HETATM    7  C4  UNL     1      38.001  41.682  27.911  1.00  0.00     0.150 C
HETATM    8  N5  UNL     1      37.711  42.735  26.996  1.00  0.00    -0.305 N
HETATM    9  C5  UNL     1      38.664  43.766  26.982  1.00  0.00     0.333 C
HETATM   10  N6  UNL     1      39.791  43.698  27.830  1.00  0.00    -0.040 NA
HETATM   11  O1  UNL     1      38.533  44.749  26.227  1.00  0.00    -0.251 OA
HETATM   12  C6  UNL     1      36.623  42.973  26.062  1.00  0.00     0.297 C
ENDROOT
BRANCH   3  13
HETATM   13  N2  UNL     1      33.723  40.876  27.181  1.00  0.00    -0.139 N
ATOM     14  H2  UNL     1      33.061  41.564  27.540  1.00  0.00     0.205 HD
BRANCH  13  15
HETATM   15  N3  UNL     1      33.263  39.619  26.768  1.00  0.00    -0.331 N
ATOM     16  H32 UNL     1      33.637  38.786  27.222  1.00  0.00     0.177 HD
ATOM     17  H31 UNL     1      32.568  39.541  26.026  1.00  0.00     0.177 HD
ENDBRANCH  13  15
ENDBRANCH   3  13
BRANCH  12  18
HETATM   18  C7  UNL     1      36.929  42.206  24.822  1.00  0.00     0.274 C
HETATM   19  N7  UNL     1      38.112  42.418  24.062  1.00  0.00    -0.059 NA
HETATM   20  O2  UNL     1      36.140  41.311  24.371  1.00  0.00    -0.273 OA
ENDBRANCH  12  18
TORSDOF 3
ENDMDL