MODEL 5
REMARK VINA RESULT: -6.724850888      2.088      5.921
REMARK  4 active torsions:
REMARK  status: ('A' for Active; 'I' for Inactive)
REMARK    1  A    between atoms: N1_1  and  C1_4
REMARK    2  A    between atoms: C3_11  and  C4_12
REMARK       I    between atoms: C4_12  and  N4_14
REMARK    3  A    between atoms: N5_19  and  N6_20
REMARK    4  A    between atoms: N7_23  and  O3_24
ROOT
HETATM    1  C1  UNL     1      33.941  44.347  30.432  1.00  0.00     0.694 A
HETATM    2  N2  UNL     1      35.257  44.314  30.157  1.00  0.00    -0.173 N
ATOM      3  H2  UNL     1      35.946  44.427  30.900  1.00  0.00     0.186 HD
HETATM    4  C2  UNL     1      35.645  44.129  28.886  1.00  0.00     0.151 A
HETATM    5  N3  UNL     1      36.905  44.089  28.555  1.00  0.00    -0.383 N
ATOM      6  H31 UNL     1      37.200  43.949  27.588  1.00  0.00     0.157 HD
ATOM      7  H32 UNL     1      37.572  44.205  29.318  1.00  0.00     0.157 HD
HETATM    8  C3  UNL     1      34.734  43.972  27.846  1.00  0.00     0.193 A
HETATM    9  N7  UNL     1      33.427  44.018  28.207  1.00  0.00    -0.140 N
HETATM   10  N8  UNL     1      33.034  44.198  29.452  1.00  0.00    -0.105 N
ATOM     11  H8  UNL     1      32.038  44.224  29.672  1.00  0.00     0.208 HD
ENDROOT
BRANCH   8  12
HETATM   12  C4  UNL     1      35.154  43.773  26.474  1.00  0.00     0.283 C
HETATM   13  O1  UNL     1      35.959  44.578  25.967  1.00  0.00    -0.265 OA
HETATM   14  N4  UNL     1      34.670  42.702  25.725  1.00  0.00    -0.286 N
HETATM   15  C5  UNL     1      35.406  41.737  25.266  1.00  0.00     0.246 C
ATOM     16  H4  UNL     1      33.671  42.674  25.526  1.00  0.00     0.172 HD
HETATM   17  O2  UNL     1      36.736  41.340  25.265  1.00  0.00    -0.299 OA
HETATM   18  N5  UNL     1      35.110  40.578  24.497  1.00  0.00    -0.238 N
HETATM   19  C6  UNL     1      36.285  39.987  25.099  1.00  0.00     0.331 C
BRANCH  18  20
HETATM   20  N6  UNL     1      34.111  40.253  23.594  1.00  0.00    -0.338 N
ATOM     21  H62 UNL     1      33.232  39.737  23.560  1.00  0.00     0.177 HD
ATOM     22  H61 UNL     1      33.956  40.459  22.607  1.00  0.00     0.177 HD
ENDBRANCH  18  20
ENDBRANCH   8  12
BRANCH   9  23
HETATM   23  O3  UNL     1      32.451  43.870  27.241  1.00  0.00    -0.267 OA
ATOM     24  H3  UNL     1      32.658  44.064  26.335  1.00  0.00     0.247 HD
ENDBRANCH   9  23
BRANCH   1  25
HETATM   25  N1  UNL     1      33.616  44.526  31.670  1.00  0.00    -0.233 N
ATOM     26  H12 UNL     1      32.958  43.923  32.164  1.00  0.00     0.174 HD
ATOM     27  H11 UNL     1      34.055  45.314  32.147  1.00  0.00     0.174 HD
ENDBRANCH   1  25
TORSDOF 4
ENDMDL