MODEL 4
REMARK VINA RESULT: -6.375747985      1.536      1.898
REMARK  3 active torsions:
REMARK  status: ('A' for Active; 'I' for Inactive)
REMARK    1  A    between atoms: N1_1  and  C1_4
REMARK    2  A    between atoms: C4_11  and  N4_12
REMARK    3  A    between atoms: N6_20  and  N7_21
ROOT
HETATM    1  C1  UNL     1      34.940  40.668  24.238  1.00  0.00     0.678 A
HETATM    2  N2  UNL     1      36.143  40.108  24.348  1.00  0.00    -0.175 N
ATOM      3  H2  UNL     1      36.483  39.343  23.766  1.00  0.00     0.186 HD
HETATM    4  C2  UNL     1      36.857  40.703  25.350  1.00  0.00     0.149 A
HETATM    5  C3  UNL     1      36.019  41.684  25.869  1.00  0.00     0.138 A
HETATM    6  N3  UNL     1      34.872  41.631  25.172  1.00  0.00    -0.184 N
ATOM      7  H3  UNL     1      34.066  42.235  25.329  1.00  0.00     0.184 HD
HETATM    8  C4  UNL     1      36.413  42.456  26.869  1.00  0.00     0.153 A
HETATM    9  N6  UNL     1      37.718  42.237  27.380  1.00  0.00    -0.263 N
HETATM   10  C9  UNL     1      38.609  41.225  26.858  1.00  0.00     0.273 A
HETATM   11  N8  UNL     1      38.027  40.478  25.780  1.00  0.00    -0.356 N
ATOM     12  H8  UNL     1      38.577  39.739  25.343  1.00  0.00     0.162 HD
ENDROOT
BRANCH   8  13
HETATM   13  N4  UNL     1      35.577  43.461  27.414  1.00  0.00    -0.361 N
HETATM   14  C5  UNL     1      34.644  43.200  28.508  1.00  0.00     0.152 C
HETATM   15  C6  UNL     1      33.731  44.372  28.651  1.00  0.00     0.252 C
HETATM   16  N5  UNL     1      34.386  45.629  28.819  1.00  0.00    -0.072 N
HETATM   17  C7  UNL     1      35.672  45.717  28.167  1.00  0.00     0.252 C
ATOM     18  H52 UNL     1      33.780  46.391  28.516  1.00  0.00     0.277 HD
ATOM     19  H51 UNL     1      34.471  45.858  29.809  1.00  0.00     0.277 HD
HETATM   20  C8  UNL     1      35.594  44.835  26.916  1.00  0.00     0.152 C
ENDBRANCH   8  13
BRANCH   9  21
HETATM   21  N7  UNL     1      38.217  43.019  28.449  1.00  0.00    -0.340 N
ATOM     22  H72 UNL     1      37.589  43.734  28.816  1.00  0.00     0.177 HD
ATOM     23  H71 UNL     1      39.155  42.861  28.817  1.00  0.00     0.177 HD
ENDBRANCH   9  21
BRANCH   1  24
HETATM   24  N1  UNL     1      33.992  40.365  23.400  1.00  0.00    -0.234 N
ATOM     25  H12 UNL     1      33.786  40.866  22.535  1.00  0.00     0.174 HD
ATOM     26  H11 UNL     1      33.318  39.603  23.466  1.00  0.00     0.174 HD
ENDBRANCH   1  24
TORSDOF 3
ENDMDL