MODEL 1
REMARK VINA RESULT: -6.640076117      0.000      0.000
REMARK  3 active torsions:
REMARK  status: ('A' for Active; 'I' for Inactive)
REMARK    1  A    between atoms: N1_4  and  C4_5
REMARK       I    between atoms: N3_9  and  C6_11
REMARK       I    between atoms: C6_11  and  N4_13
REMARK    2  A    between atoms: N4_13  and  N5_15
REMARK    3  A    between atoms: N8_23  and  N9_25
ROOT
HETATM    1  C4  UNL     1      35.132  43.750  28.974  1.00  0.00     0.710 C
HETATM    2  N2  UNL     1      34.561  42.862  28.235  1.00  0.00    -0.020 N
ATOM      3  H2  UNL     1      33.608  42.641  28.524  1.00  0.00     0.203 HD
HETATM    4  C5  UNL     1      34.995  42.128  27.098  1.00  0.00     0.715 C
HETATM    5  N3  UNL     1      34.273  41.098  26.751  1.00  0.00    -0.138 N
ATOM      6  H3  UNL     1      33.447  40.878  27.308  1.00  0.00     0.189 HD
HETATM    7  C6  UNL     1      34.568  40.280  25.661  1.00  0.00     0.352 C
HETATM    8  O1  UNL     1      35.126  39.174  25.841  1.00  0.00    -0.245 OA
HETATM    9  N4  UNL     1      34.237  40.693  24.350  1.00  0.00    -0.258 N
ATOM     10  H4  UNL     1      33.782  41.598  24.229  1.00  0.00     0.191 HD
HETATM   11  N6  UNL     1      36.146  42.434  26.318  1.00  0.00    -0.117 N
ATOM     12  H6  UNL     1      36.263  41.879  25.470  1.00  0.00     0.206 HD
HETATM   13  N7  UNL     1      37.154  43.404  26.559  1.00  0.00    -0.116 N
ATOM     14  H7  UNL     1      37.845  43.519  25.817  1.00  0.00     0.206 HD
HETATM   15  C7  UNL     1      37.326  44.235  27.699  1.00  0.00     0.726 C
HETATM   16  N8  UNL     1      38.333  45.036  27.763  1.00  0.00    -0.137 N
ATOM     17  H8  UNL     1      38.452  45.630  28.584  1.00  0.00     0.205 HD
HETATM   18  N10 UNL     1      36.466  44.277  28.831  1.00  0.00    -0.019 N
ATOM     19  H10 UNL     1      36.845  44.744  29.654  1.00  0.00     0.203 HD
ENDROOT
BRANCH   1  20
HETATM   20  N1  UNL     1      34.391  44.293  30.060  1.00  0.00    -0.209 N
HETATM   21  C2  UNL     1      33.028  44.585  30.570  1.00  0.00     0.116 A
HETATM   22  C1  UNL     1      32.213  43.406  31.004  1.00  0.00     0.034 C
HETATM   23  C3  UNL     1      34.241  44.918  31.364  1.00  0.00     0.167 A
ENDBRANCH   1  20
BRANCH   9  24
HETATM   24  N5  UNL     1      34.502  39.923  23.208  1.00  0.00    -0.341 N
ATOM     25  H52 UNL     1      33.965  39.065  23.088  1.00  0.00     0.177 HD
ATOM     26  H51 UNL     1      35.196  40.181  22.506  1.00  0.00     0.177 HD
ENDBRANCH   9  24
BRANCH  16  27
HETATM   27  N9  UNL     1      39.254  45.101  26.735  1.00  0.00    -0.331 N
ATOM     28  H92 UNL     1      39.692  44.236  26.416  1.00  0.00     0.177 HD
ATOM     29  H91 UNL     1      39.493  45.993  26.301  1.00  0.00     0.177 HD
ENDBRANCH  16  27
TORSDOF 3
ENDMDL