MODEL 5
REMARK VINA RESULT: -6.102552375      1.049      1.076
REMARK  5 active torsions:
REMARK  status: ('A' for Active; 'I' for Inactive)
REMARK    1  A    between atoms: N1_2  and  N2_3
REMARK    2  A    between atoms: N1_2  and  C2_6
REMARK    3  A    between atoms: C2_6  and  O1_7
REMARK       I    between atoms: N3_10  and  C4_11
REMARK    4  A    between atoms: C4_11  and  C5_13
REMARK    5  A    between atoms: C5_13  and  N4_14
ROOT
HETATM    1  C5  UNL     1      33.551  42.877  27.996  1.00  0.00     0.380 C
HETATM    2  C6  UNL     1      33.150  43.163  29.399  1.00  0.00     0.102 C
HETATM    3  N5  UNL     1      32.855  43.393  30.491  1.00  0.00    -0.195 NA
ENDROOT
BRANCH   1   4
HETATM    4  C4  UNL     1      35.011  43.086  27.940  1.00  0.00     0.264 C
HETATM    5  N3  UNL     1      36.003  42.231  27.487  1.00  0.00    -0.342 N
HETATM    6  C3  UNL     1      35.805  40.919  26.967  1.00  0.00     0.206 C
HETATM    7  C7  UNL     1      37.404  42.687  27.531  1.00  0.00     0.145 C
HETATM    8  C2  UNL     1      37.046  40.177  26.593  1.00  0.00     0.223 C
HETATM    9  N6  UNL     1      38.167  40.371  27.445  1.00  0.00    -0.375 N
HETATM   10  C8  UNL     1      38.148  41.574  28.223  1.00  0.00     0.138 C
ATOM     11  H6  UNL     1      38.933  39.700  27.498  1.00  0.00     0.157 HD
HETATM   12  O2  UNL     1      35.378  44.241  28.382  1.00  0.00    -0.270 OA
BRANCH   8  13
HETATM   13  N1  UNL     1      37.437  40.555  25.250  1.00  0.00    -0.188 NA
HETATM   14  C1  UNL     1      36.588  39.970  24.241  1.00  0.00     0.141 C
BRANCH  13  15
HETATM   15  N2  UNL     1      38.751  40.117  25.077  1.00  0.00    -0.360 NA
ATOM     16  H22 UNL     1      38.735  39.434  24.320  1.00  0.00     0.171 HD
ATOM     17  H21 UNL     1      39.358  40.911  24.875  1.00  0.00     0.171 HD
ENDBRANCH  13  15
ENDBRANCH   8  13
BRANCH   8  18
HETATM   18  O1  UNL     1      36.742  38.806  26.574  1.00  0.00    -0.356 OA
ATOM     19  H1  UNL     1      36.399  38.577  27.430  1.00  0.00     0.214 HD
ENDBRANCH   8  18
ENDBRANCH   1   4
BRANCH   1  20
HETATM   20  N4  UNL     1      32.797  43.688  27.108  1.00  0.00    -0.054 N
ATOM     21  H43 UNL     1      33.258  43.740  26.200  1.00  0.00     0.276 HD
ATOM     22  H42 UNL     1      31.934  43.213  26.842  1.00  0.00     0.276 HD
ATOM     23  H41 UNL     1      32.591  44.625  27.453  1.00  0.00     0.276 HD
ENDBRANCH   1  20
TORSDOF 5
ENDMDL