MODEL 1
REMARK VINA RESULT: -6.335371873      0.000      0.000
REMARK  4 active torsions:
REMARK  status: ('A' for Active; 'I' for Inactive)
REMARK       I    between atoms: C3_3  and  N1_5
REMARK    1  A    between atoms: N1_5  and  C4_7
REMARK    2  A    between atoms: C6_12  and  N2_13
REMARK    3  A    between atoms: C7_17  and  N3_18
REMARK    4  A    between atoms: C7_17  and  O4_22
ROOT
HETATM    1  C1  UNL     1      40.609  45.715  27.420  1.00  0.00     0.108 C
HETATM    2  C2  UNL     1      39.738  44.857  27.350  1.00  0.00    -0.088 C
HETATM    3  C3  UNL     1      38.725  43.858  27.287  1.00  0.00     0.284 C
HETATM    4  O1  UNL     1      37.988  43.668  28.276  1.00  0.00    -0.259 OA
HETATM    5  N1  UNL     1      38.538  43.079  26.127  1.00  0.00    -0.341 N
ATOM      6  H1  UNL     1      39.153  43.254  25.332  1.00  0.00     0.164 HD
ENDROOT
BRANCH   5   7
HETATM    7  C4  UNL     1      37.538  42.053  25.990  1.00  0.00     0.165 C
HETATM    8  C5  UNL     1      37.072  41.882  24.551  1.00  0.00     0.173 C
HETATM    9  S1  UNL     1      36.164  40.333  24.705  1.00  0.00     0.180 S
HETATM   10  O2  UNL     1      36.579  39.366  23.659  1.00  0.00    -0.226 OA
HETATM   11  O3  UNL     1      34.698  40.567  24.771  1.00  0.00    -0.226 OA
HETATM   12  C6  UNL     1      36.773  39.835  26.323  1.00  0.00     0.368 C
HETATM   13  C7  UNL     1      38.050  40.688  26.376  1.00  0.00     0.285 C
BRANCH  12  14
HETATM   14  N2  UNL     1      37.187  38.465  26.324  1.00  0.00    -0.057 N
ATOM     15  H23 UNL     1      36.419  37.842  26.075  1.00  0.00     0.276 HD
ATOM     16  H22 UNL     1      37.813  38.263  25.545  1.00  0.00     0.276 HD
ATOM     17  H21 UNL     1      37.605  38.205  27.218  1.00  0.00     0.276 HD
ENDBRANCH  12  14
BRANCH  13  18
HETATM   18  N3  UNL     1      38.564  40.614  27.688  1.00  0.00    -0.042 N
ATOM     19  H33 UNL     1      39.566  40.806  27.689  1.00  0.00     0.278 HD
ATOM     20  H32 UNL     1      38.234  41.402  28.245  1.00  0.00     0.278 HD
ATOM     21  H31 UNL     1      38.370  39.733  28.164  1.00  0.00     0.278 HD
ENDBRANCH  13  18
BRANCH  13  22
HETATM   22  O4  UNL     1      38.881  40.206  25.389  1.00  0.00    -0.361 OA
ATOM     23  H4  UNL     1      38.595  39.341  25.123  1.00  0.00     0.212 HD
ENDBRANCH  13  22
ENDBRANCH   5   7
TORSDOF 4
ENDMDL