MODEL 4
REMARK VINA RESULT: -6.535011488      2.351      3.622
REMARK  7 active torsions:
REMARK  status: ('A' for Active; 'I' for Inactive)
REMARK    1  A    between atoms: C2_2  and  N1_3
REMARK    2  A    between atoms: C3_9  and  N3_10
REMARK    3  A    between atoms: N3_10  and  N4_12
REMARK    4  A    between atoms: N7_20  and  O1_21
REMARK    5  A    between atoms: C5_23  and  C6_24
REMARK    6  A    between atoms: C6_24  and  N9_28
REMARK    7  A    between atoms: N9_28  and  N10_30
ROOT
HETATM    1  C1  UNL     1      36.666  42.164  24.571  1.00  0.00     0.073 C
HETATM    2  C2  UNL     1      36.033  42.245  25.968  1.00  0.00     0.231 C
HETATM    3  N2  UNL     1      34.901  41.347  26.058  1.00  0.00    -0.188 N
ATOM      4  H2  UNL     1      33.986  41.795  25.995  1.00  0.00     0.180 HD
HETATM    5  C3  UNL     1      34.874  40.050  26.207  1.00  0.00     0.692 C
HETATM    6  N6  UNL     1      36.007  39.201  26.323  1.00  0.00    -0.211 N
ATOM      7  H6  UNL     1      35.857  38.198  26.222  1.00  0.00     0.179 HD
HETATM    8  C4  UNL     1      37.378  39.659  26.575  1.00  0.00     0.261 C
HETATM    9  N7  UNL     1      37.304  40.749  27.497  1.00  0.00    -0.165 NA
HETATM   10  C5  UNL     1      37.111  42.042  26.954  1.00  0.00     0.212 C
ENDROOT
BRANCH  10  11
HETATM   11  C6  UNL     1      36.940  43.009  28.082  1.00  0.00     0.114 C
HETATM   12  N8  UNL     1      35.915  42.841  28.848  1.00  0.00    -0.386 N
ATOM     13  H82 UNL     1      35.260  42.077  28.681  1.00  0.00     0.157 HD
ATOM     14  H81 UNL     1      35.798  43.501  29.617  1.00  0.00     0.157 HD
BRANCH  11  15
HETATM   15  N9  UNL     1      37.851  44.072  28.314  1.00  0.00    -0.294 N
ATOM     16  H9  UNL     1      37.576  45.007  28.012  1.00  0.00     0.187 HD
BRANCH  15  17
HETATM   17  N10 UNL     1      39.094  43.929  28.924  1.00  0.00    -0.344 N
ATOM     18 2H10 UNL     1      39.659  43.133  28.629  1.00  0.00     0.176 HD
ATOM     19 1H10 UNL     1      39.466  44.560  29.634  1.00  0.00     0.176 HD
ENDBRANCH  15  17
ENDBRANCH  11  15
ENDBRANCH  10  11
BRANCH   2  20
HETATM   20  N1  UNL     1      35.469  43.585  26.055  1.00  0.00    -0.050 N
ATOM     21  H13 UNL     1      34.453  43.600  26.136  1.00  0.00     0.277 HD
ATOM     22  H12 UNL     1      35.664  44.058  26.937  1.00  0.00     0.277 HD
ATOM     23  H11 UNL     1      35.824  44.078  25.235  1.00  0.00     0.277 HD
ENDBRANCH   2  20
BRANCH   9  24
HETATM   24  O1  UNL     1      38.502  40.771  28.172  1.00  0.00    -0.311 OA
ATOM     25  H1  UNL     1      38.318  40.475  29.056  1.00  0.00     0.237 HD
ENDBRANCH   9  24
BRANCH   5  26
HETATM   26  N3  UNL     1      33.610  39.396  26.266  1.00  0.00    -0.118 N
ATOM     27  H3  UNL     1      33.258  39.075  27.167  1.00  0.00     0.207 HD
BRANCH  26  28
HETATM   28  N4  UNL     1      32.923  39.207  25.239  1.00  0.00    -0.235 N
HETATM   29  N5  UNL     1      32.164  38.639  24.435  1.00  0.00    -0.330 N
ATOM     30  H52 UNL     1      32.024  37.784  24.974  1.00  0.00     0.178 HD
ATOM     31  H51 UNL     1      31.603  38.484  23.597  1.00  0.00     0.178 HD
ATOM     32  H4  UNL     1      33.097  40.080  24.740  1.00  0.00     0.208 HD
ENDBRANCH  26  28
ENDBRANCH   5  26
TORSDOF 7
ENDMDL