MODEL 2
REMARK VINA RESULT: -6.728812927      0.955      1.136
REMARK  6 active torsions:
REMARK  status: ('A' for Active; 'I' for Inactive)
REMARK    1  A    between atoms: N1_1  and  C1_5
REMARK    2  A    between atoms: C1_5  and  N2_6
REMARK    3  A    between atoms: C1_5  and  C2_10
REMARK       I    between atoms: C2_10  and  N3_12
REMARK    4  A    between atoms: N3_12  and  C3_14
REMARK    5  A    between atoms: C4_19  and  S1_20
REMARK    6  A    between atoms: S1_20  and  N6_21
ROOT
HETATM    1  C3  UNL     1      34.748  41.966  26.901  1.00  0.00     0.701 A
HETATM    2  N4  UNL     1      33.640  41.260  27.180  1.00  0.00    -0.130 N
ATOM      3  H4  UNL     1      33.339  40.415  26.695  1.00  0.00     0.205 HD
HETATM    4  N5  UNL     1      32.993  41.847  28.200  1.00  0.00    -0.260 N
ATOM      5  H5  UNL     1      32.121  41.522  28.617  1.00  0.00     0.190 HD
HETATM    6  C4  UNL     1      33.684  42.933  28.581  1.00  0.00     0.253 A
HETATM    7  N7  UNL     1      34.760  42.987  27.769  1.00  0.00    -0.162 N
ATOM      8  H7  UNL     1      35.482  43.706  27.810  1.00  0.00     0.186 HD
ENDROOT
BRANCH   1   9
HETATM    9  N3  UNL     1      35.597  41.685  25.982  1.00  0.00    -0.155 N
HETATM   10  C2  UNL     1      35.692  40.483  25.289  1.00  0.00     0.294 C
HETATM   11  O1  UNL     1      34.684  39.798  24.938  1.00  0.00    -0.268 OA
ATOM     12  H3  UNL     1      36.269  42.413  25.737  1.00  0.00     0.187 HD
BRANCH  10  13
HETATM   13  C1  UNL     1      37.019  39.938  24.921  1.00  0.00     0.469 C
BRANCH  13  14
HETATM   14  N1  UNL     1      37.285  38.779  25.711  1.00  0.00    -0.042 N
ATOM     15  H13 UNL     1      36.475  38.163  25.785  1.00  0.00     0.277 HD
ATOM     16  H12 UNL     1      37.917  38.127  25.247  1.00  0.00     0.277 HD
ATOM     17  H11 UNL     1      37.633  39.077  26.623  1.00  0.00     0.277 HD
ENDBRANCH  13  14
BRANCH  13  18
HETATM   18  N2  UNL     1      37.030  39.555  23.508  1.00  0.00    -0.042 N
ATOM     19  H23 UNL     1      36.890  38.554  23.374  1.00  0.00     0.277 HD
ATOM     20  H22 UNL     1      36.202  39.882  23.009  1.00  0.00     0.277 HD
ATOM     21  H21 UNL     1      37.896  39.888  23.086  1.00  0.00     0.277 HD
ENDBRANCH  13  18
ENDBRANCH  10  13
ENDBRANCH   1   9
BRANCH   6  22
HETATM   22  S1  UNL     1      33.279  44.051  29.866  1.00  0.00     0.290 S
HETATM   23  O2  UNL     1      34.505  44.288  30.695  1.00  0.00    -0.198 OA
HETATM   24  O3  UNL     1      32.849  45.375  29.316  1.00  0.00    -0.198 OA
BRANCH  22  25
HETATM   25  N6  UNL     1      32.078  43.382  30.915  1.00  0.00    -0.322 N
ATOM     26  H62 UNL     1      31.136  43.134  30.610  1.00  0.00     0.169 HD
ATOM     27  H61 UNL     1      32.439  43.273  31.862  1.00  0.00     0.169 HD
ENDBRANCH  22  25
ENDBRANCH   6  22
TORSDOF 6
ENDMDL