MODEL 5
REMARK VINA RESULT: -7.621328581      1.267      1.793
REMARK  12 active torsions:
REMARK  status: ('A' for Active; 'I' for Inactive)
REMARK    1  A    between atoms: C2_2  and  N1_5
REMARK       I    between atoms: N1_5  and  C5_7
REMARK    2  A    between atoms: C5_7  and  C6_9
REMARK    3  A    between atoms: N2_14  and  C11_15
REMARK    4  A    between atoms: C11_15  and  C12_19
REMARK    5  A    between atoms: C12_19  and  C13_23
REMARK    6  A    between atoms: C13_23  and  S1_24
REMARK    7  A    between atoms: S1_24  and  C14_26
REMARK    8  A    between atoms: C15_27  and  C16_28
REMARK    9  A    between atoms: C16_28  and  C17_29
REMARK   10  A    between atoms: C17_29  and  N5_30
REMARK   11  A    between atoms: N6_33  and  C20_34
REMARK   12  A    between atoms: C20_34  and  C21_35
ROOT
HETATM    1  C12 UNL     1      19.098 -14.802  22.347  1.00  0.00     0.058 C
HETATM    2  N4  UNL     1      18.073 -15.578  22.150  1.00  0.00    -0.399 N
ATOM      3  H41 UNL     1      17.333 -15.231  21.539  1.00  0.00     0.156 HD
ATOM      4  H42 UNL     1      18.074 -16.484  22.618  1.00  0.00     0.156 HD
ENDROOT
BRANCH   1   5
HETATM    5  C11 UNL     1      20.148 -15.295  23.214  1.00  0.00     0.121 C
HETATM    6  N3  UNL     1      20.916 -16.218  22.758  1.00  0.00    -0.384 N
ATOM      7  H32 UNL     1      21.656 -16.564  23.369  1.00  0.00     0.157 HD
ATOM      8  H31 UNL     1      20.765 -16.559  21.809  1.00  0.00     0.157 HD
BRANCH   5   9
HETATM    9  N2  UNL     1      20.356 -14.825  24.522  1.00  0.00    -0.352 N
HETATM   10  C6  UNL     1      19.489 -14.960  25.686  1.00  0.00     0.182 C
HETATM   11  C7  UNL     1      20.564 -14.982  26.726  1.00  0.00     0.024 A
HETATM   12  C8  UNL     1      21.158 -14.038  27.570  1.00  0.00     0.014 A
HETATM   13  C9  UNL     1      21.119 -13.576  26.248  1.00  0.00     0.010 A
HETATM   14  C10 UNL     1      21.559 -14.095  24.939  1.00  0.00     0.130 C
BRANCH  10  15
HETATM   15  C5  UNL     1      18.665 -16.162  25.650  1.00  0.00     0.241 C
HETATM   16  N1  UNL     1      19.240 -17.446  25.926  1.00  0.00    -0.351 N
ATOM     17  H1  UNL     1      20.234 -17.503  26.148  1.00  0.00     0.163 HD
HETATM   18  O1  UNL     1      17.458 -16.113  25.382  1.00  0.00    -0.271 OA
BRANCH  16  19
HETATM   19  C2  UNL     1      18.466 -18.657  25.902  1.00  0.00     0.022 C
HETATM   20  C1  UNL     1      17.867 -18.894  27.283  1.00  0.00     0.037 C
HETATM   21  C3  UNL     1      19.397 -19.803  25.575  1.00  0.00     0.037 C
HETATM   22  C4  UNL     1      17.378 -18.621  24.852  1.00  0.00     0.037 C
ENDBRANCH  16  19
ENDBRANCH  10  15
ENDBRANCH   5   9
ENDBRANCH   1   5
BRANCH   1  23
HETATM   23  C13 UNL     1      19.097 -13.483  21.665  1.00  0.00     0.173 C
BRANCH  23  24
HETATM   24  S1  UNL     1      19.951 -13.584  20.327  1.00  0.00     0.044 S
HETATM   25  O2  UNL     1      21.077 -12.703  20.400  1.00  0.00    -0.253 OA
BRANCH  24  26
HETATM   26  C14 UNL     1      19.621 -14.158  18.922  1.00  0.00     0.078 C
HETATM   27  C15 UNL     1      18.591 -13.739  18.026  1.00  0.00     0.007 C
BRANCH  27  28
HETATM   28  C16 UNL     1      17.143 -13.761  18.116  1.00  0.00     0.001 C
BRANCH  28  29
HETATM   29  C17 UNL     1      16.392 -14.334  19.223  1.00  0.00     0.267 C
BRANCH  29  30
HETATM   30  N5  UNL     1      15.423 -13.411  19.763  1.00  0.00    -0.037 N
HETATM   31  C18 UNL     1      14.562 -12.854  18.738  1.00  0.00     0.268 C
HETATM   32  C19 UNL     1      13.325 -12.457  19.550  1.00  0.00     0.268 C
HETATM   33  N6  UNL     1      13.645 -12.825  20.894  1.00  0.00    -0.030 N
HETATM   34  C22 UNL     1      14.644 -11.944  21.397  1.00  0.00     0.268 C
HETATM   35  C24 UNL     1      14.438 -14.047  20.636  1.00  0.00     0.474 C
HETATM   36  C23 UNL     1      15.893 -12.369  20.592  1.00  0.00     0.268 C
BRANCH  33  37
HETATM   37  C20 UNL     1      12.534 -13.094  21.737  1.00  0.00     0.352 C
BRANCH  37  38
HETATM   38  C21 UNL     1      12.045 -11.924  22.465  1.00  0.00     0.199 C
HETATM   39  O3  UNL     1      12.252 -11.844  23.706  1.00  0.00    -0.647 OA
HETATM   40  O4  UNL     1      11.369 -10.913  21.847  1.00  0.00    -0.647 OA
ENDBRANCH  37  38
ENDBRANCH  33  37
ENDBRANCH  29  30
ENDBRANCH  28  29
ENDBRANCH  27  28
ENDBRANCH  24  26
ENDBRANCH  23  24
ENDBRANCH   1  23
TORSDOF 12
ENDMDL