MODEL 4
REMARK VINA RESULT: -8.817389759      2.024      6.355
REMARK  10 active torsions:
REMARK  status: ('A' for Active; 'I' for Inactive)
REMARK    1  A    between atoms: C2_2  and  C3_3
REMARK    2  A    between atoms: C3_3  and  N1_4
REMARK       I    between atoms: N1_4  and  C4_6
REMARK    3  A    between atoms: C4_6  and  C5_8
REMARK    4  A    between atoms: C5_8  and  N2_10
REMARK       I    between atoms: N2_10  and  C7_12
REMARK    5  A    between atoms: C7_12  and  C8_14
REMARK    6  A    between atoms: C8_14  and  C9_15
REMARK    7  A    between atoms: C8_14  and  C14_27
REMARK       I    between atoms: C9_15  and  N3_17
REMARK    8  A    between atoms: C10_19  and  C11_20
REMARK       I    between atoms: C11_20  and  N4_22
REMARK    9  A    between atoms: C16_29  and  C17_30
REMARK       I    between atoms: C17_30  and  N6_32
REMARK   10  A    between atoms: N6_32  and  C18_34
ROOT
HETATM    1  C8  UNL     1      15.045 -13.656  19.450  1.00  0.00     0.174 C
ENDROOT
BRANCH   1   2
HETATM    2  C7  UNL     1      15.725 -13.583  18.119  1.00  0.00     0.232 C
HETATM    3  N2  UNL     1      15.896 -12.322  17.515  1.00  0.00    -0.347 N
ATOM      4  H2  UNL     1      15.559 -11.482  17.985  1.00  0.00     0.163 HD
HETATM    5  O2  UNL     1      16.115 -14.634  17.594  1.00  0.00    -0.273 OA
BRANCH   3   6
HETATM    6  C5  UNL     1      16.561 -12.215  16.208  1.00  0.00     0.172 C
HETATM    7  C6  UNL     1      16.610 -10.764  15.766  1.00  0.00     0.042 C
BRANCH   6   8
HETATM    8  C4  UNL     1      17.917 -12.757  16.308  1.00  0.00     0.240 C
HETATM    9  N1  UNL     1      18.736 -12.504  17.439  1.00  0.00    -0.356 N
ATOM     10  H1  UNL     1      18.368 -11.931  18.198  1.00  0.00     0.162 HD
HETATM   11  O1  UNL     1      18.393 -13.464  15.387  1.00  0.00    -0.271 OA
BRANCH   9  12
HETATM   12  C3  UNL     1      20.078 -13.035  17.548  1.00  0.00     0.149 C
BRANCH  12  13
HETATM   13  C2  UNL     1      20.282 -13.681  18.864  1.00  0.00    -0.018 C
HETATM   14  C1  UNL     1      20.603 -12.972  19.930  1.00  0.00     0.008 C
ENDBRANCH  12  13
ENDBRANCH   9  12
ENDBRANCH   6   8
ENDBRANCH   3   6
ENDBRANCH   1   2
BRANCH   1  15
HETATM   15  C9  UNL     1      15.128 -12.366  20.134  1.00  0.00     0.235 C
HETATM   16  O3  UNL     1      16.212 -11.773  20.264  1.00  0.00    -0.272 OA
HETATM   17  N3  UNL     1      13.953 -11.776  20.658  1.00  0.00    -0.331 N
HETATM   18  C10 UNL     1      13.750 -11.817  21.928  1.00  0.00     0.165 C
ATOM     19  H3  UNL     1      13.279 -11.327  20.039  1.00  0.00     0.168 HD
BRANCH  18  20
HETATM   20  C11 UNL     1      12.595 -11.255  22.577  1.00  0.00     0.261 C
HETATM   21  O4  UNL     1      11.455 -11.741  22.408  1.00  0.00    -0.267 OA
HETATM   22  N4  UNL     1      12.731 -10.133  23.425  1.00  0.00    -0.315 N
HETATM   23  C12 UNL     1      11.918  -9.779  24.335  1.00  0.00     0.091 C
ATOM     24  H4  UNL     1      13.560  -9.553  23.295  1.00  0.00     0.170 HD
HETATM   25  C13 UNL     1      10.657 -10.543  24.633  1.00  0.00     0.085 C
HETATM   26  N5  UNL     1      12.234  -8.619  25.081  1.00  0.00    -0.088 NA
ENDBRANCH  18  20
ENDBRANCH   1  15
BRANCH   1  27
HETATM   27  C14 UNL     1      15.570 -14.838  20.172  1.00  0.00     0.018 C
HETATM   28  C15 UNL     1      17.034 -14.927  20.434  1.00  0.00     0.027 C
HETATM   29  C16 UNL     1      16.703 -15.528  21.786  1.00  0.00     0.059 C
HETATM   30  C21 UNL     1      15.315 -15.012  21.630  1.00  0.00     0.032 C
HETATM   31  C24 UNL     1      16.504 -16.990  21.828  1.00  0.00    -0.013 C
HETATM   32  C22 UNL     1      14.392 -16.145  21.845  1.00  0.00    -0.024 C
HETATM   33  C23 UNL     1      15.066 -17.248  21.955  1.00  0.00    -0.020 C
HETATM   34  C25 UNL     1      17.141 -17.733  20.680  1.00  0.00     0.020 C
HETATM   35  C26 UNL     1      17.116 -17.510  23.142  1.00  0.00     0.020 C
BRANCH  29  36
HETATM   36  C17 UNL     1      17.491 -14.981  22.905  1.00  0.00     0.228 C
HETATM   37  O5  UNL     1      16.914 -14.423  23.851  1.00  0.00    -0.273 OA
HETATM   38  N6  UNL     1      18.891 -15.089  22.902  1.00  0.00    -0.356 N
ATOM     39  H6  UNL     1      19.326 -15.553  22.105  1.00  0.00     0.162 HD
BRANCH  38  40
HETATM   40  C18 UNL     1      19.762 -14.590  23.942  1.00  0.00     0.076 C
HETATM   41  C19 UNL     1      21.222 -14.610  23.542  1.00  0.00     0.032 C
HETATM   42  C20 UNL     1      19.556 -15.286  25.259  1.00  0.00     0.032 C
ENDBRANCH  38  40
ENDBRANCH  29  36
ENDBRANCH   1  27
TORSDOF 10
ENDMDL