MODEL 5
REMARK VINA RESULT: -7.435130117      2.735      4.559
REMARK  12 active torsions:
REMARK  status: ('A' for Active; 'I' for Inactive)
REMARK    1  A    between atoms: C2_2  and  C3_3
REMARK    2  A    between atoms: C3_3  and  N1_4
REMARK    3  A    between atoms: N1_4  and  C4_5
REMARK    4  A    between atoms: N1_4  and  S1_10
REMARK    5  A    between atoms: C4_5  and  C5_6
REMARK    6  A    between atoms: S1_10  and  C9_12
REMARK    7  A    between atoms: S1_10  and  N4_18
REMARK    8  A    between atoms: C9_12  and  N2_13
REMARK    9  A    between atoms: N4_18  and  C11_20
REMARK   10  A    between atoms: C11_20  and  C12_22
REMARK   11  A    between atoms: C12_22  and  N5_24
REMARK       I    between atoms: C14_26  and  N6_27
REMARK       I    between atoms: C14_26  and  N7_32
REMARK       I    between atoms: N6_27  and  C15_29
REMARK   12  A    between atoms: N7_32  and  C17_34
ROOT
HETATM    1  C11 UNL     1      16.050 -16.092  21.999  1.00  0.00     0.135 C
HETATM    2  S2  UNL     1      16.587 -16.687  20.603  1.00  0.00    -0.057 SA
ENDROOT
BRANCH   1   3
HETATM    3  N4  UNL     1      15.157 -15.042  22.097  1.00  0.00    -0.292 N
ATOM      4  H4  UNL     1      14.248 -15.204  22.529  1.00  0.00     0.177 HD
BRANCH   3   5
HETATM    5  S1  UNL     1      15.590 -13.246  21.424  1.00  0.00     0.112 S
HETATM    6  O1  UNL     1      14.389 -13.866  19.988  1.00  0.00    -0.232 OA
BRANCH   5   7
HETATM    7  N1  UNL     1      16.749 -13.185  19.951  1.00  0.00    -0.223 NA
BRANCH   7   8
HETATM    8  C3  UNL     1      16.353 -12.399  18.833  1.00  0.00     0.132 C
BRANCH   8   9
HETATM    9  C2  UNL     1      16.770 -13.041  17.548  1.00  0.00    -0.022 C
HETATM   10  C1  UNL     1      16.629 -14.364  17.369  1.00  0.00     0.008 C
ENDBRANCH   8   9
ENDBRANCH   7   8
BRANCH   7  11
HETATM   11  C4  UNL     1      18.036 -12.665  20.412  1.00  0.00     0.111 C
BRANCH  11  12
HETATM   12  C5  UNL     1      19.055 -13.776  20.465  1.00  0.00     0.004 A
HETATM   13  C6  UNL     1      20.460 -13.527  20.783  1.00  0.00     0.011 A
HETATM   14  C7  UNL     1      20.064 -13.962  19.410  1.00  0.00    -0.013 A
HETATM   15  C8  UNL     1      20.299 -12.945  18.323  1.00  0.00     0.010 C
ENDBRANCH  11  12
ENDBRANCH   7  11
ENDBRANCH   5   7
BRANCH   5  16
HETATM   16  C9  UNL     1      14.379 -11.868  21.740  1.00  0.00     0.293 C
BRANCH  16  17
HETATM   17  N2  UNL     1      13.165 -12.164  22.529  1.00  0.00    -0.214 N
HETATM   18  C10 UNL     1      12.148 -11.377  22.937  1.00  0.00     0.236 A
HETATM   19  N3  UNL     1      11.599 -12.450  23.527  1.00  0.00    -0.235 N
HETATM   20  O2  UNL     1      12.587 -13.156  23.115  1.00  0.00    -0.152 OA
ATOM     21  H3  UNL     1      10.756 -12.628  24.072  1.00  0.00     0.197 HD
ENDBRANCH  16  17
ENDBRANCH   5  16
ENDBRANCH   3   5
ENDBRANCH   1   3
BRANCH   1  22
HETATM   22  C12 UNL     1      16.591 -16.708  23.224  1.00  0.00     0.078 C
HETATM   23  C13 UNL     1      16.326 -17.967  23.466  1.00  0.00     0.047 C
BRANCH  22  24
HETATM   24  N5  UNL     1      17.373 -15.936  24.081  1.00  0.00    -0.190 N
HETATM   25  C14 UNL     1      18.617 -15.677  24.017  1.00  0.00     0.681 C
HETATM   26  N6  UNL     1      19.162 -14.841  25.049  1.00  0.00    -0.160 N
HETATM   27  N7  UNL     1      19.427 -16.198  22.981  1.00  0.00    -0.221 N
HETATM   28  C15 UNL     1      20.516 -14.459  25.100  1.00  0.00     0.231 C
ATOM     29  H6  UNL     1      18.537 -14.508  25.782  1.00  0.00     0.187 HD
HETATM   30  C16 UNL     1      21.012 -13.601  26.190  1.00  0.00     0.118 C
HETATM   31  O3  UNL     1      21.340 -14.826  24.238  1.00  0.00    -0.273 OA
ATOM     32  H7  UNL     1      19.875 -15.519  22.366  1.00  0.00     0.178 HD
ATOM     33  H5  UNL     1      16.879 -15.520  24.871  1.00  0.00     0.184 HD
BRANCH  27  34
HETATM   34  C17 UNL     1      19.684 -17.574  22.705  1.00  0.00     0.099 C
HETATM   35  C18 UNL     1      20.472 -18.200  23.836  1.00  0.00     0.026 C
HETATM   36  C19 UNL     1      21.942 -18.335  23.499  1.00  0.00     0.002 C
HETATM   37  C20 UNL     1      22.079 -19.406  22.445  1.00  0.00     0.000 C
HETATM   38  C21 UNL     1      21.145 -19.055  21.315  1.00  0.00     0.002 C
HETATM   39  C22 UNL     1      20.559 -17.677  21.466  1.00  0.00     0.026 C
ENDBRANCH  27  34
ENDBRANCH  22  24
ENDBRANCH   1  22
TORSDOF 12
ENDMDL