MODEL 3
REMARK VINA RESULT: -7.600890310      2.290      5.715
REMARK  9 active torsions:
REMARK  status: ('A' for Active; 'I' for Inactive)
REMARK    1  A    between atoms: C4_6  and  C5_7
REMARK    2  A    between atoms: C5_7  and  C6_8
REMARK    3  A    between atoms: C6_8  and  C7_9
REMARK    4  A    between atoms: C7_9  and  C8_10
REMARK    5  A    between atoms: C8_10  and  C9_11
REMARK    6  A    between atoms: C9_11  and  N2_12
REMARK    7  A    between atoms: C13_16  and  C14_17
REMARK    8  A    between atoms: C14_17  and  C15_18
REMARK    9  A    between atoms: C20_29  and  C21_30
ROOT
HETATM    1  C15 UNL     1      17.612 -16.090  23.179  1.00  0.00     0.085 C
HETATM    2  N3  UNL     1      16.399 -16.792  23.530  1.00  0.00    -0.324 N
ATOM      3  H3  UNL     1      15.568 -16.209  23.627  1.00  0.00     0.169 HD
HETATM    4  C16 UNL     1      16.202 -18.173  23.760  1.00  0.00     0.244 C
HETATM    5  O1  UNL     1      15.195 -18.708  23.216  1.00  0.00    -0.271 OA
HETATM    6  C17 UNL     1      17.026 -19.079  24.560  1.00  0.00     0.173 C
HETATM    7  C18 UNL     1      16.304 -20.347  24.973  1.00  0.00     0.042 C
HETATM    8  N4  UNL     1      18.252 -19.506  23.922  1.00  0.00    -0.346 N
ATOM      9  H4  UNL     1      18.196 -19.827  22.954  1.00  0.00     0.163 HD
HETATM   10  C19 UNL     1      19.515 -19.509  24.538  1.00  0.00     0.248 C
HETATM   11  O2  UNL     1      20.338 -20.386  24.175  1.00  0.00    -0.271 OA
HETATM   12  C20 UNL     1      19.975 -18.569  25.585  1.00  0.00     0.238 C
HETATM   13  N5  UNL     1      21.367 -18.171  25.402  1.00  0.00    -0.339 N
ATOM     14  H5  UNL     1      21.896 -18.562  24.623  1.00  0.00     0.164 HD
HETATM   15  C22 UNL     1      22.002 -17.258  26.277  1.00  0.00     0.242 C
HETATM   16  O4  UNL     1      23.234 -17.554  26.549  1.00  0.00    -0.269 OA
HETATM   17  C23 UNL     1      21.447 -16.057  26.887  1.00  0.00     0.075 C
HETATM   18  C24 UNL     1      20.834 -15.027  26.387  1.00  0.00     0.022 C
HETATM   19  C25 UNL     1      20.425 -14.591  25.065  1.00  0.00     0.091 C
HETATM   20  N6  UNL     1      19.389 -14.698  24.376  1.00  0.00    -0.332 N
ATOM     21  H6  UNL     1      19.576 -14.222  23.494  1.00  0.00     0.168 HD
HETATM   22  C26 UNL     1      18.099 -15.184  24.298  1.00  0.00     0.268 C
HETATM   23  O5  UNL     1      17.154 -14.942  25.144  1.00  0.00    -0.266 OA
ENDROOT
BRANCH   1  24
HETATM   24  C14 UNL     1      17.735 -15.541  21.828  1.00  0.00     0.104 C
BRANCH  24  25
HETATM   25  C13 UNL     1      17.665 -14.115  21.574  1.00  0.00    -0.023 A
HETATM   26  C2  UNL     1      16.499 -13.366  21.691  1.00  0.00     0.012 A
HETATM   27  C1  UNL     1      15.105 -13.791  22.036  1.00  0.00     0.068 C
HETATM   28  N1  UNL     1      16.819 -12.107  21.399  1.00  0.00    -0.368 N
HETATM   29  C3  UNL     1      18.097 -11.985  21.101  1.00  0.00     0.095 A
ATOM     30  H1  UNL     1      16.156 -11.332  21.404  1.00  0.00     0.165 HD
HETATM   31  C4  UNL     1      18.684 -13.271  21.203  1.00  0.00    -0.034 A
BRANCH  31  32
HETATM   32  C5  UNL     1      20.126 -13.519  20.989  1.00  0.00     0.040 C
BRANCH  32  33
HETATM   33  C6  UNL     1      20.852 -12.769  19.962  1.00  0.00     0.005 C
BRANCH  33  34
HETATM   34  C7  UNL     1      20.498 -12.794  18.542  1.00  0.00     0.002 C
BRANCH  34  35
HETATM   35  C8  UNL     1      19.538 -13.824  18.061  1.00  0.00     0.028 C
BRANCH  35  36
HETATM   36  C9  UNL     1      18.766 -13.197  16.890  1.00  0.00     0.236 C
BRANCH  36  37
HETATM   37  N2  UNL     1      17.359 -13.427  17.025  1.00  0.00    -0.079 N
HETATM   38  C10 UNL     1      16.693 -12.168  17.342  1.00  0.00     0.271 C
HETATM   39  C11 UNL     1      16.866 -13.943  15.768  1.00  0.00     0.271 C
HETATM   40  C12 UNL     1      16.999 -14.357  18.061  1.00  0.00     0.271 C
ENDBRANCH  36  37
ENDBRANCH  35  36
ENDBRANCH  34  35
ENDBRANCH  33  34
ENDBRANCH  32  33
ENDBRANCH  31  32
ENDBRANCH  24  25
ENDBRANCH   1  24
BRANCH  12  41
HETATM   41  C21 UNL     1      19.932 -19.360  26.854  1.00  0.00     0.266 C
HETATM   42  O3  UNL     1      18.931 -19.468  27.541  1.00  0.00    -0.304 OA
ENDBRANCH  12  41
TORSDOF 9
ENDMDL