MODEL 3
REMARK VINA RESULT: -7.881872197      2.447      4.514
REMARK  11 active torsions:
REMARK  status: ('A' for Active; 'I' for Inactive)
REMARK    1  A    between atoms: C3_3  and  C4_4
REMARK    2  A    between atoms: C14_14  and  C15_15
REMARK    3  A    between atoms: C14_14  and  C21_25
REMARK       I    between atoms: C15_15  and  N1_17
REMARK    4  A    between atoms: N1_17  and  C16_19
REMARK    5  A    between atoms: C16_19  and  C17_20
REMARK    6  A    between atoms: C17_20  and  N2_21
REMARK       I    between atoms: C21_25  and  N3_27
REMARK    7  A    between atoms: N3_27  and  C22_29
REMARK    8  A    between atoms: C22_29  and  C23_30
REMARK    9  A    between atoms: C22_29  and  C26_38
REMARK       I    between atoms: C23_30  and  N4_32
REMARK   10  A    between atoms: N4_32  and  C24_34
REMARK   11  A    between atoms: C24_34  and  C25_35
ROOT
HETATM    1  C1  UNL     1      23.468 -14.232  24.641  1.00  0.00     0.012 C
HETATM    2  C2  UNL     1      22.665 -15.119  24.818  1.00  0.00    -0.117 C
HETATM    3  C3  UNL     1      21.675 -16.198  25.014  1.00  0.00     0.103 C
ENDROOT
BRANCH   3   4
HETATM    4  C4  UNL     1      20.288 -15.675  24.898  1.00  0.00    -0.027 C
HETATM    5  C5  UNL     1      20.148 -14.612  25.983  1.00  0.00     0.017 C
HETATM    6  C6  UNL     1      19.253 -16.724  25.140  1.00  0.00    -0.004 C
HETATM    7  C7  UNL     1      19.198 -17.819  24.117  1.00  0.00     0.011 C
HETATM    8  C13 UNL     1      17.869 -16.058  25.048  1.00  0.00     0.011 C
HETATM    9  C8  UNL     1      18.955 -17.225  22.739  1.00  0.00     0.014 C
HETATM   10  C9  UNL     1      20.099 -16.246  22.544  1.00  0.00     0.011 C
HETATM   11  C14 UNL     1      17.671 -16.484  22.636  1.00  0.00     0.129 C
HETATM   12  C10 UNL     1      20.058 -15.101  23.537  1.00  0.00    -0.004 C
HETATM   13  C11 UNL     1      18.728 -14.420  23.431  1.00  0.00     0.011 C
HETATM   14  C12 UNL     1      17.632 -15.429  23.723  1.00  0.00     0.014 C
BRANCH  11  15
HETATM   15  C15 UNL     1      16.450 -17.360  22.733  1.00  0.00     0.236 C
HETATM   16  O1  UNL     1      16.630 -18.537  23.117  1.00  0.00    -0.272 OA
HETATM   17  N1  UNL     1      15.147 -16.863  22.412  1.00  0.00    -0.358 N
ATOM     18  H1  UNL     1      15.062 -15.898  22.094  1.00  0.00     0.162 HD
BRANCH  17  19
HETATM   19  C16 UNL     1      13.969 -17.645  22.512  1.00  0.00     0.150 C
BRANCH  19  20
HETATM   20  C17 UNL     1      13.229 -17.974  21.273  1.00  0.00     0.255 C
BRANCH  20  21
HETATM   21  N2  UNL     1      13.575 -19.173  20.597  1.00  0.00    -0.077 N
HETATM   22  C18 UNL     1      12.384 -19.635  19.849  1.00  0.00     0.271 C
HETATM   23  C19 UNL     1      14.642 -19.079  19.651  1.00  0.00     0.271 C
HETATM   24  C20 UNL     1      13.869 -20.275  21.504  1.00  0.00     0.271 C
ENDBRANCH  20  21
ENDBRANCH  19  20
ENDBRANCH  17  19
ENDBRANCH  11  15
BRANCH  11  25
HETATM   25  C21 UNL     1      17.544 -15.881  21.284  1.00  0.00     0.237 C
HETATM   26  O2  UNL     1      17.517 -16.597  20.280  1.00  0.00    -0.272 OA
HETATM   27  N3  UNL     1      17.450 -14.484  21.167  1.00  0.00    -0.346 N
ATOM     28  H3  UNL     1      17.477 -13.924  22.020  1.00  0.00     0.163 HD
BRANCH  27  29
HETATM   29  C22 UNL     1      17.317 -13.789  19.883  1.00  0.00     0.180 C
BRANCH  29  30
HETATM   30  C23 UNL     1      16.256 -12.754  20.016  1.00  0.00     0.241 C
HETATM   31  O3  UNL     1      16.107 -11.953  19.035  1.00  0.00    -0.271 OA
HETATM   32  N4  UNL     1      15.415 -12.593  21.137  1.00  0.00    -0.351 N
ATOM     33  H4  UNL     1      15.537 -13.224  21.930  1.00  0.00     0.163 HD
BRANCH  32  34
HETATM   34  C24 UNL     1      14.392 -11.582  21.218  1.00  0.00     0.222 C
BRANCH  34  35
HETATM   35  C25 UNL     1      13.414 -11.812  22.300  1.00  0.00     0.248 C
HETATM   36  N5  UNL     1      12.605 -10.777  22.814  1.00  0.00    -0.061 NA
HETATM   37  O4  UNL     1      13.270 -12.952  22.801  1.00  0.00    -0.275 OA
ENDBRANCH  34  35
ENDBRANCH  32  34
ENDBRANCH  29  30
BRANCH  29  38
HETATM   38  C26 UNL     1      18.648 -13.096  19.693  1.00  0.00     0.009 C
HETATM   39  C27 UNL     1      19.132 -12.347  20.901  1.00  0.00     0.012 C
HETATM   40  C28 UNL     1      19.701 -14.043  19.159  1.00  0.00     0.012 C
ENDBRANCH  29  38
ENDBRANCH  27  29
ENDBRANCH  11  25
ENDBRANCH   3   4
TORSDOF 11
ENDMDL