MODEL 1
REMARK VINA RESULT: -8.805401359      0.000      0.000
REMARK  10 active torsions:
REMARK  status: ('A' for Active; 'I' for Inactive)
REMARK       I    between atoms: N1_2  and  C2_4
REMARK    1  A    between atoms: C2_4  and  C3_6
REMARK    2  A    between atoms: C3_6  and  C4_7
REMARK    3  A    between atoms: C4_7  and  N2_8
REMARK       I    between atoms: N2_8  and  C5_10
REMARK    4  A    between atoms: C5_10  and  C6_12
REMARK    5  A    between atoms: N3_16  and  C11_18
REMARK    6  A    between atoms: C11_18  and  C12_19
REMARK    7  A    between atoms: C13_20  and  C14_21
REMARK    8  A    between atoms: C14_21  and  C15_22
REMARK       I    between atoms: C15_22  and  N4_24
REMARK    9  A    between atoms: N4_24  and  C16_26
REMARK   10  A    between atoms: C23_33  and  C24_34
REMARK       I    between atoms: C24_34  and  N5_36
ROOT
HETATM    1  C12 UNL     1      17.166 -13.111  20.722  1.00  0.00     0.021 C
HETATM    2  C13 UNL     1      18.454 -13.049  20.777  1.00  0.00    -0.016 C
ENDROOT
BRANCH   2   3
HETATM    3  C14 UNL     1      19.301 -14.302  20.716  1.00  0.00     0.130 C
BRANCH   3   4
HETATM    4  C15 UNL     1      20.043 -14.469  21.993  1.00  0.00     0.221 C
HETATM    5  O3  UNL     1      21.240 -14.104  22.032  1.00  0.00    -0.273 OA
HETATM    6  N4  UNL     1      19.441 -15.024  23.146  1.00  0.00    -0.352 N
ATOM      7  H4  UNL     1      18.466 -15.313  23.068  1.00  0.00     0.163 HD
BRANCH   6   8
HETATM    8  C16 UNL     1      20.085 -15.215  24.420  1.00  0.00     0.035 C
HETATM    9  C17 UNL     1      20.523 -13.838  24.940  1.00  0.00     0.035 C
HETATM   10  C18 UNL     1      21.207 -13.974  26.260  1.00  0.00    -0.011 C
HETATM   11  C19 UNL     1      20.291 -14.594  27.297  1.00  0.00     0.009 C
HETATM   12  C26 UNL     1      22.427 -14.845  26.112  1.00  0.00     0.024 C
HETATM   13  C20 UNL     1      19.818 -15.915  26.769  1.00  0.00    -0.011 C
HETATM   14  C21 UNL     1      19.137 -15.790  25.429  1.00  0.00     0.035 C
HETATM   15  C22 UNL     1      21.019 -16.832  26.609  1.00  0.00     0.024 C
HETATM   16  C23 UNL     1      21.985 -16.208  25.631  1.00  0.00     0.044 C
HETATM   17  C27 UNL     1      21.330 -16.072  24.287  1.00  0.00     0.050 C
BRANCH  16  18
HETATM   18  C24 UNL     1      23.211 -17.046  25.529  1.00  0.00     0.226 C
HETATM   19  O4  UNL     1      23.165 -18.282  25.782  1.00  0.00    -0.273 OA
HETATM   20  N5  UNL     1      24.447 -16.461  25.145  1.00  0.00    -0.365 N
HETATM   21  C25 UNL     1      25.646 -17.280  25.042  1.00  0.00     0.149 C
ATOM     22  H5  UNL     1      24.496 -15.463  24.940  1.00  0.00     0.161 HD
ENDBRANCH  16  18
ENDBRANCH   6   8
ENDBRANCH   3   4
ENDBRANCH   2   3
BRANCH   1  23
HETATM   23  C11 UNL     1      16.088 -12.129  20.753  1.00  0.00     0.203 C
BRANCH  23  24
HETATM   24  N3  UNL     1      14.800 -12.600  21.082  1.00  0.00    -0.038 N
HETATM   25  C6  UNL     1      13.917 -13.038  20.090  1.00  0.00     0.286 C
HETATM   26  C7  UNL     1      12.567 -12.524  20.508  1.00  0.00     0.045 C
HETATM   27  C8  UNL     1      12.905 -11.168  21.081  1.00  0.00     0.031 C
HETATM   28  C9  UNL     1      14.144 -11.566  21.895  1.00  0.00     0.243 C
HETATM   29  C10 UNL     1      14.972 -13.765  22.002  1.00  0.00     0.279 C
BRANCH  25  30
HETATM   30  C5  UNL     1      14.203 -12.767  18.651  1.00  0.00     0.253 C
HETATM   31  N2  UNL     1      14.909 -13.695  17.867  1.00  0.00    -0.339 N
ATOM     32  H2  UNL     1      15.168 -14.517  18.414  1.00  0.00     0.167 HD
HETATM   33  O2  UNL     1      13.810 -11.711  18.162  1.00  0.00    -0.271 OA
BRANCH  31  34
HETATM   34  C4  UNL     1      15.354 -13.806  16.554  1.00  0.00     0.073 C
BRANCH  34  35
HETATM   35  C3  UNL     1      16.781 -13.962  16.206  1.00  0.00     0.147 C
BRANCH  35  36
HETATM   36  C2  UNL     1      17.798 -13.132  16.830  1.00  0.00     0.222 C
HETATM   37  N1  UNL     1      19.153 -13.522  16.813  1.00  0.00    -0.365 N
HETATM   38  C1  UNL     1      20.151 -12.693  17.438  1.00  0.00     0.149 C
ATOM     39  H1  UNL     1      19.426 -14.392  16.358  1.00  0.00     0.161 HD
HETATM   40  O1  UNL     1      17.493 -12.056  17.394  1.00  0.00    -0.273 OA
ENDBRANCH  35  36
ENDBRANCH  34  35
ENDBRANCH  31  34
ENDBRANCH  25  30
ENDBRANCH  23  24
ENDBRANCH   1  23
TORSDOF 10
ENDMDL