MODEL 3
REMARK VINA RESULT: -8.030249910      1.192      1.316
REMARK  10 active torsions:
REMARK  status: ('A' for Active; 'I' for Inactive)
REMARK    1  A    between atoms: O1_2  and  C2_3
REMARK    2  A    between atoms: C5_6  and  C6_7
REMARK    3  A    between atoms: C6_7  and  C7_8
REMARK    4  A    between atoms: C9_13  and  C10_14
REMARK    5  A    between atoms: C10_14  and  N2_15
REMARK    6  A    between atoms: N2_15  and  C13_18
REMARK    7  A    between atoms: C13_18  and  C14_19
REMARK    8  A    between atoms: C14_19  and  C15_20
REMARK    9  A    between atoms: C19_24  and  C20_25
REMARK   10  A    between atoms: C20_25  and  N3_26
ROOT
HETATM    1  N2  UNL     1      17.264 -19.392  22.384  1.00  0.00    -0.052 N
HETATM    2  C11 UNL     1      18.045 -19.805  23.544  1.00  0.00     0.278 C
HETATM    3  C12 UNL     1      16.985 -20.677  21.725  1.00  0.00     0.278 C
ENDROOT
BRANCH   1   4
HETATM    4  C10 UNL     1      18.013 -18.477  21.659  1.00  0.00     0.236 C
BRANCH   4   5
HETATM    5  C9  UNL     1      18.987 -17.542  22.246  1.00  0.00     0.127 C
HETATM    6  C8  UNL     1      20.119 -17.114  21.432  1.00  0.00     0.270 C
HETATM    7  N1  UNL     1      20.318 -15.747  21.124  1.00  0.00    -0.342 N
HETATM    8  O2  UNL     1      20.937 -17.955  20.992  1.00  0.00    -0.266 OA
HETATM    9  C7  UNL     1      19.941 -14.694  22.032  1.00  0.00     0.181 C
ATOM     10  H1  UNL     1      20.743 -15.499  20.231  1.00  0.00     0.163 HD
HETATM   11  C26 UNL     1      18.658 -15.139  22.670  1.00  0.00     0.245 C
HETATM   12  N7  UNL     1      18.410 -16.479  23.025  1.00  0.00    -0.320 N
HETATM   13  O3  UNL     1      17.783 -14.249  22.885  1.00  0.00    -0.271 OA
ATOM     14  H7  UNL     1      17.825 -16.695  23.831  1.00  0.00     0.169 HD
BRANCH   9  15
HETATM   15  C6  UNL     1      19.774 -13.356  21.416  1.00  0.00     0.073 C
BRANCH  15  16
HETATM   16  C5  UNL     1      19.478 -13.376  19.971  1.00  0.00    -0.056 A
HETATM   17  C4  UNL     1      20.444 -13.070  19.014  1.00  0.00     0.010 A
HETATM   18  C3  UNL     1      20.145 -13.076  17.668  1.00  0.00     0.037 A
HETATM   19  C2  UNL     1      18.892 -13.381  17.215  1.00  0.00     0.068 A
HETATM   20  C28 UNL     1      17.913 -13.687  18.142  1.00  0.00     0.037 A
HETATM   21  C27 UNL     1      18.222 -13.679  19.500  1.00  0.00     0.010 A
BRANCH  19  22
HETATM   22  O1  UNL     1      18.596 -13.384  15.844  1.00  0.00    -0.356 OA
HETATM   23  C1  UNL     1      17.258 -13.616  15.444  1.00  0.00     0.210 C
ENDBRANCH  19  22
ENDBRANCH  15  16
ENDBRANCH   9  15
ENDBRANCH   4   5
ENDBRANCH   1   4
BRANCH   1  24
HETATM   24  C13 UNL     1      15.991 -18.972  22.872  1.00  0.00     0.248 C
BRANCH  24  25
HETATM   25  C14 UNL     1      14.871 -18.746  21.943  1.00  0.00     0.085 C
BRANCH  25  26
HETATM   26  C15 UNL     1      14.406 -17.387  21.697  1.00  0.00     0.013 A
HETATM   27  C16 UNL     1      15.225 -16.252  21.701  1.00  0.00     0.040 A
HETATM   28  C17 UNL     1      14.424 -15.168  21.467  1.00  0.00     0.012 A
HETATM   29  C18 UNL     1      14.323 -13.794  21.308  1.00  0.00     0.042 A
HETATM   30  C25 UNL     1      13.136 -15.646  21.324  1.00  0.00     0.116 A
HETATM   31  C19 UNL     1      13.009 -13.464  21.077  1.00  0.00     0.030 A
HETATM   32  N5  UNL     1      12.301 -14.595  21.089  1.00  0.00    -0.344 N
ATOM     33  H5  UNL     1      11.293 -14.662  20.945  1.00  0.00     0.167 HD
HETATM   34  N6  UNL     1      13.146 -16.976  21.465  1.00  0.00    -0.345 N
ATOM     35  H6  UNL     1      12.328 -17.582  21.406  1.00  0.00     0.167 HD
BRANCH  31  36
HETATM   36  C20 UNL     1      12.442 -12.088  20.845  1.00  0.00     0.184 C
BRANCH  36  37
HETATM   37  N3  UNL     1      12.127 -11.577  22.173  1.00  0.00    -0.358 N
HETATM   38  C21 UNL     1      11.271 -12.230  22.963  1.00  0.00     0.107 A
HETATM   39  C22 UNL     1      10.981 -11.729  24.231  1.00  0.00     0.104 A
HETATM   40  N4  UNL     1      11.581 -10.595  24.617  1.00  0.00    -0.373 N
HETATM   41  C23 UNL     1      12.449  -9.932  23.818  1.00  0.00     0.104 A
ATOM     42  H4  UNL     1      11.376 -10.219  25.543  1.00  0.00     0.164 HD
HETATM   43  C24 UNL     1      12.720 -10.443  22.574  1.00  0.00     0.107 A
ENDBRANCH  36  37
ENDBRANCH  31  36
ENDBRANCH  25  26
ENDBRANCH  24  25
ENDBRANCH   1  24
TORSDOF 10
ENDMDL