MODEL 3
REMARK VINA RESULT: -8.739322005      1.029      1.361
REMARK  12 active torsions:
REMARK  status: ('A' for Active; 'I' for Inactive)
REMARK    1  A    between atoms: C3_3  and  C4_4
REMARK       I    between atoms: C4_4  and  N1_6
REMARK    2  A    between atoms: N1_6  and  C5_8
REMARK    3  A    between atoms: C5_8  and  C6_9
REMARK    4  A    between atoms: C5_8  and  C24_38
REMARK       I    between atoms: C6_9  and  N2_11
REMARK    5  A    between atoms: N2_11  and  C7_13
REMARK    6  A    between atoms: C7_13  and  C8_14
REMARK    7  A    between atoms: C7_13  and  C12_22
REMARK    8  A    between atoms: C8_14  and  N3_15
REMARK       I    between atoms: C12_22  and  N5_24
REMARK    9  A    between atoms: N5_24  and  C13_26
REMARK   10  A    between atoms: C13_26  and  C14_27
REMARK   11  A    between atoms: C16_29  and  C17_30
REMARK   12  A    between atoms: C24_38  and  C26_40
ROOT
HETATM    1  C1  UNL     1      13.714 -13.559  13.679  1.00  0.00     0.112 C
HETATM    2  C2  UNL     1      14.608 -13.025  14.724  1.00  0.00    -0.101 C
HETATM    3  C3  UNL     1      15.371 -12.619  15.598  1.00  0.00    -0.006 C
ENDROOT
BRANCH   3   4
HETATM    4  C4  UNL     1      16.304 -12.186  16.638  1.00  0.00     0.300 C
HETATM    5  O1  UNL     1      16.445 -10.956  16.775  1.00  0.00    -0.258 OA
HETATM    6  N1  UNL     1      16.965 -13.118  17.408  1.00  0.00    -0.315 N
ATOM      7  H1  UNL     1      16.735 -14.078  17.150  1.00  0.00     0.169 HD
BRANCH   6   8
HETATM    8  C5  UNL     1      17.885 -13.046  18.470  1.00  0.00     0.085 C
BRANCH   8   9
HETATM    9  C6  UNL     1      17.095 -12.925  19.777  1.00  0.00     0.269 C
HETATM   10  O2  UNL     1      17.537 -12.023  20.528  1.00  0.00    -0.266 OA
HETATM   11  N2  UNL     1      16.005 -13.769  19.993  1.00  0.00    -0.316 N
ATOM     12  H2  UNL     1      15.884 -14.399  19.200  1.00  0.00     0.169 HD
BRANCH  11  13
HETATM   13  C7  UNL     1      15.021 -14.019  20.967  1.00  0.00     0.127 C
BRANCH  13  14
HETATM   14  C8  UNL     1      14.465 -12.980  21.825  1.00  0.00     0.241 C
BRANCH  14  15
HETATM   15  N3  UNL     1      13.271 -12.296  21.710  1.00  0.00    -0.001 N
HETATM   16  C9  UNL     1      12.027 -12.725  22.246  1.00  0.00     0.283 C
HETATM   17  C10 UNL     1      13.396 -10.875  21.992  1.00  0.00     0.477 C
HETATM   18  N4  UNL     1      12.592 -10.558  20.815  1.00  0.00    -0.026 N
HETATM   19  C11 UNL     1      13.024 -11.819  20.273  1.00  0.00     0.477 C
ATOM     20  H42 UNL     1      11.601 -10.328  20.895  1.00  0.00     0.281 HD
ATOM     21  H41 UNL     1      12.725  -9.687  20.301  1.00  0.00     0.281 HD
ENDBRANCH  14  15
ENDBRANCH  13  14
BRANCH  13  22
HETATM   22  C12 UNL     1      15.159 -15.350  21.700  1.00  0.00     0.269 C
HETATM   23  O3  UNL     1      14.248 -16.146  21.650  1.00  0.00    -0.266 OA
HETATM   24  N5  UNL     1      16.329 -15.600  22.402  1.00  0.00    -0.353 N
ATOM     25  H5  UNL     1      17.040 -14.869  22.399  1.00  0.00     0.162 HD
BRANCH  24  26
HETATM   26  C13 UNL     1      16.621 -16.791  23.125  1.00  0.00     0.155 C
BRANCH  26  27
HETATM   27  C14 UNL     1      18.028 -16.858  23.619  1.00  0.00     0.139 C
HETATM   28  C15 UNL     1      18.155 -16.905  25.141  1.00  0.00     0.040 C
HETATM   29  C16 UNL     1      19.602 -17.309  25.256  1.00  0.00     0.016 C
HETATM   30  C23 UNL     1      19.952 -17.782  23.916  1.00  0.00     0.173 C
HETATM   31  O4  UNL     1      18.698 -18.038  23.277  1.00  0.00    -0.384 OA
BRANCH  29  32
HETATM   32  C17 UNL     1      20.419 -16.427  26.048  1.00  0.00    -0.008 C
HETATM   33  C18 UNL     1      21.595 -15.782  25.285  1.00  0.00     0.005 C
HETATM   34  C19 UNL     1      21.216 -14.328  24.922  1.00  0.00     0.000 C
HETATM   35  C20 UNL     1      21.218 -13.466  26.164  1.00  0.00     0.000 C
HETATM   36  C21 UNL     1      20.851 -14.366  27.341  1.00  0.00     0.000 C
HETATM   37  C22 UNL     1      19.770 -15.360  26.886  1.00  0.00     0.005 C
ENDBRANCH  29  32
ENDBRANCH  26  27
ENDBRANCH  24  26
ENDBRANCH  13  22
ENDBRANCH  11  13
ENDBRANCH   8   9
BRANCH   8  38
HETATM   38  C24 UNL     1      19.159 -13.717  18.536  1.00  0.00     0.037 C
HETATM   39  C25 UNL     1      19.084 -14.818  19.606  1.00  0.00     0.016 C
BRANCH  38  40
HETATM   40  C26 UNL     1      20.414 -12.909  18.765  1.00  0.00     0.006 C
HETATM   41  C27 UNL     1      20.880 -12.805  20.167  1.00  0.00     0.006 C
ENDBRANCH  38  40
ENDBRANCH   8  38
ENDBRANCH   6   8
ENDBRANCH   3   4
TORSDOF 12
ENDMDL