MODEL 3
REMARK VINA RESULT: -7.686395298      3.668      6.465
REMARK  10 active torsions:
REMARK  status: ('A' for Active; 'I' for Inactive)
REMARK    1  A    between atoms: C3_3  and  N1_4
REMARK       I    between atoms: N1_4  and  C4_5
REMARK    2  A    between atoms: N1_4  and  C8_12
REMARK       I    between atoms: C4_5  and  N2_7
REMARK    3  A    between atoms: N2_7  and  C5_9
REMARK    4  A    between atoms: N3_17  and  C13_18
REMARK    5  A    between atoms: C13_18  and  C14_19
REMARK    6  A    between atoms: C14_19  and  N4_22
REMARK       I    between atoms: N4_22  and  C17_24
REMARK    7  A    between atoms: C17_24  and  C18_26
REMARK    8  A    between atoms: C18_26  and  N5_28
REMARK       I    between atoms: N5_28  and  C20_30
REMARK    9  A    between atoms: C20_30  and  C21_32
REMARK   10  A    between atoms: C21_32  and  N6_34
REMARK       I    between atoms: N6_34  and  C23_36
ROOT
HETATM    1  C1  UNL     1      21.661 -19.380  21.211  1.00  0.00     0.014 C
HETATM    2  C2  UNL     1      21.690 -19.263  22.422  1.00  0.00    -0.098 C
HETATM    3  C3  UNL     1      21.734 -19.145  23.889  1.00  0.00     0.221 C
ENDROOT
BRANCH   3   4
HETATM    4  N1  UNL     1      21.981 -17.751  24.224  1.00  0.00    -0.317 N
HETATM    5  C4  UNL     1      23.335 -17.332  24.310  1.00  0.00     0.319 C
HETATM    6  O1  UNL     1      23.500 -16.092  24.624  1.00  0.00    -0.247 OA
HETATM    7  N2  UNL     1      24.458 -18.151  24.083  1.00  0.00    -0.339 N
ATOM      8  H2  UNL     1      24.328 -19.131  23.833  1.00  0.00     0.164 HD
BRANCH   7   9
HETATM    9  C5  UNL     1      25.788 -17.615  24.201  1.00  0.00     0.078 C
HETATM   10  C6  UNL     1      26.283 -17.277  22.791  1.00  0.00     0.032 C
HETATM   11  C7  UNL     1      26.719 -18.639  24.786  1.00  0.00     0.032 C
ENDBRANCH   7   9
BRANCH   4  12
HETATM   12  C8  UNL     1      20.889 -16.821  24.459  1.00  0.00     0.116 C
HETATM   13  C9  UNL     1      19.613 -17.544  24.905  1.00  0.00     0.033 C
HETATM   14  C10 UNL     1      18.513 -16.530  24.958  1.00  0.00     0.015 C
HETATM   15  C11 UNL     1      19.066 -15.324  25.699  1.00  0.00     0.034 C
HETATM   16  C25 UNL     1      18.245 -15.884  23.589  1.00  0.00     0.242 C
HETATM   17  C12 UNL     1      19.673 -14.498  24.630  1.00  0.00     0.238 C
HETATM   18  N3  UNL     1      19.447 -15.185  23.342  1.00  0.00    -0.062 N
HETATM   19  C26 UNL     1      20.522 -16.142  23.153  1.00  0.00     0.263 C
BRANCH  18  20
HETATM   20  C13 UNL     1      19.441 -14.137  22.387  1.00  0.00     0.267 C
BRANCH  20  21
HETATM   21  C14 UNL     1      19.435 -14.408  20.963  1.00  0.00     0.050 C
HETATM   22  C15 UNL     1      19.978 -15.730  20.508  1.00  0.00     0.039 C
HETATM   23  C16 UNL     1      20.408 -13.376  20.338  1.00  0.00     0.039 C
BRANCH  21  24
HETATM   24  N4  UNL     1      18.167 -14.184  20.310  1.00  0.00    -0.349 N
HETATM   25  C17 UNL     1      17.463 -12.970  20.280  1.00  0.00     0.240 C
HETATM   26  O2  UNL     1      17.956 -11.972  20.865  1.00  0.00    -0.271 OA
ATOM     27  H4  UNL     1      17.746 -14.977  19.827  1.00  0.00     0.163 HD
BRANCH  25  28
HETATM   28  C18 UNL     1      16.157 -12.812  19.588  1.00  0.00     0.172 C
HETATM   29  C19 UNL     1      16.310 -12.366  18.165  1.00  0.00     0.042 C
BRANCH  28  30
HETATM   30  N5  UNL     1      15.320 -11.866  20.303  1.00  0.00    -0.346 N
HETATM   31  C20 UNL     1      14.343 -12.254  21.242  1.00  0.00     0.240 C
HETATM   32  O3  UNL     1      14.153 -13.467  21.504  1.00  0.00    -0.271 OA
ATOM     33  H5  UNL     1      15.444 -10.871  20.116  1.00  0.00     0.163 HD
BRANCH  31  34
HETATM   34  C21 UNL     1      13.517 -11.260  21.944  1.00  0.00     0.172 C
HETATM   35  C22 UNL     1      12.829 -10.362  20.922  1.00  0.00     0.042 C
BRANCH  34  36
HETATM   36  N6  UNL     1      12.561 -11.845  22.837  1.00  0.00    -0.349 N
HETATM   37  C23 UNL     1      11.916 -11.078  23.837  1.00  0.00     0.214 C
HETATM   38  C24 UNL     1      10.922 -11.720  24.754  1.00  0.00     0.117 C
HETATM   39  O4  UNL     1      12.142  -9.846  24.000  1.00  0.00    -0.274 OA
ATOM     40  H6  UNL     1      12.340 -12.838  22.751  1.00  0.00     0.163 HD
ENDBRANCH  34  36
ENDBRANCH  31  34
ENDBRANCH  28  30
ENDBRANCH  25  28
ENDBRANCH  21  24
ENDBRANCH  20  21
ENDBRANCH  18  20
ENDBRANCH   4  12
ENDBRANCH   3   4
TORSDOF 10
ENDMDL