MODEL 5
REMARK VINA RESULT: -8.493598355      2.163      3.631
REMARK  13 active torsions:
REMARK  status: ('A' for Active; 'I' for Inactive)
REMARK       I    between atoms: C2_2  and  N1_4
REMARK    1  A    between atoms: N1_4  and  C3_6
REMARK    2  A    between atoms: C3_6  and  C4_7
REMARK       I    between atoms: C4_7  and  N2_9
REMARK    3  A    between atoms: N2_9  and  C5_11
REMARK    4  A    between atoms: C5_11  and  C6_12
REMARK    5  A    between atoms: C5_11  and  C25_38
REMARK       I    between atoms: C6_12  and  N3_14
REMARK    6  A    between atoms: N3_14  and  C7_16
REMARK    7  A    between atoms: C7_16  and  C8_17
REMARK    8  A    between atoms: C7_16  and  C23_33
REMARK    9  A    between atoms: C8_17  and  C9_18
REMARK   10  A    between atoms: C10_19  and  C11_20
REMARK   11  A    between atoms: C12_21  and  C13_22
REMARK   12  A    between atoms: C13_22  and  N4_23
REMARK   13  A    between atoms: C23_33  and  C24_35
ROOT
HETATM    1  C7  UNL     1      18.734 -13.251  18.690  1.00  0.00     0.175 C
ENDROOT
BRANCH   1   2
HETATM    2  N3  UNL     1      17.509 -13.833  19.193  1.00  0.00    -0.346 N
HETATM    3  C6  UNL     1      16.679 -13.241  20.149  1.00  0.00     0.241 C
HETATM    4  O3  UNL     1      16.997 -12.124  20.619  1.00  0.00    -0.271 OA
ATOM      5  H3  UNL     1      17.230 -14.742  18.823  1.00  0.00     0.163 HD
BRANCH   3   6
HETATM    6  C5  UNL     1      15.440 -13.887  20.619  1.00  0.00     0.180 C
BRANCH   6   7
HETATM    7  N2  UNL     1      14.521 -12.881  21.080  1.00  0.00    -0.346 N
HETATM    8  C4  UNL     1      13.618 -12.190  20.255  1.00  0.00     0.236 C
HETATM    9  O2  UNL     1      13.565 -12.427  19.008  1.00  0.00    -0.272 OA
ATOM     10  H2  UNL     1      14.524 -12.654  22.074  1.00  0.00     0.163 HD
BRANCH   8  11
HETATM   11  C3  UNL     1      12.720 -11.173  20.852  1.00  0.00     0.225 C
BRANCH  11  12
HETATM   12  N1  UNL     1      11.936 -11.642  21.949  1.00  0.00    -0.353 N
HETATM   13  C2  UNL     1      11.909 -11.051  23.220  1.00  0.00     0.213 C
HETATM   14  C1  UNL     1      11.071 -11.591  24.325  1.00  0.00     0.117 C
HETATM   15  O1  UNL     1      12.603 -10.027  23.471  1.00  0.00    -0.274 OA
ATOM     16  H1  UNL     1      11.353 -12.465  21.798  1.00  0.00     0.162 HD
ENDBRANCH  11  12
ENDBRANCH   8  11
ENDBRANCH   6   7
BRANCH   6  17
HETATM   17  C25 UNL     1      15.666 -14.920  21.695  1.00  0.00     0.009 C
HETATM   18  C26 UNL     1      16.798 -14.385  22.577  1.00  0.00     0.012 C
HETATM   19  C27 UNL     1      16.156 -16.243  21.145  1.00  0.00     0.012 C
ENDBRANCH   6  17
ENDBRANCH   3   6
ENDBRANCH   1   2
BRANCH   1  20
HETATM   20  C8  UNL     1      19.821 -14.276  18.624  1.00  0.00     0.128 C
BRANCH  20  21
HETATM   21  C9  UNL     1      19.787 -15.101  19.840  1.00  0.00    -0.090 C
HETATM   22  C10 UNL     1      19.782 -15.795  20.844  1.00  0.00    -0.015 C
BRANCH  22  23
HETATM   23  C11 UNL     1      19.801 -16.616  22.003  1.00  0.00    -0.013 C
HETATM   24  C12 UNL     1      19.835 -17.328  22.982  1.00  0.00    -0.064 C
BRANCH  24  25
HETATM   25  C13 UNL     1      19.897 -18.208  24.154  1.00  0.00     0.336 C
BRANCH  25  26
HETATM   26  N4  UNL     1      20.141 -17.460  25.393  1.00  0.00    -0.041 N
HETATM   27  C14 UNL     1      20.324 -18.559  26.379  1.00  0.00     0.279 C
HETATM   28  C15 UNL     1      19.030 -16.699  25.714  1.00  0.00     0.199 C
HETATM   29  C16 UNL     1      18.880 -15.261  25.612  1.00  0.00    -0.002 C
HETATM   30  C17 UNL     1      19.721 -14.415  24.746  1.00  0.00     0.028 C
HETATM   31  C18 UNL     1      20.960 -13.827  25.333  1.00  0.00     0.004 C
HETATM   32  C19 UNL     1      21.180 -14.015  26.788  1.00  0.00     0.000 C
HETATM   33  C20 UNL     1      21.476 -15.386  27.276  1.00  0.00     0.002 C
HETATM   34  C21 UNL     1      22.155 -16.305  26.346  1.00  0.00     0.028 C
HETATM   35  C22 UNL     1      21.444 -16.928  25.237  1.00  0.00     0.243 C
ENDBRANCH  25  26
ENDBRANCH  24  25
ENDBRANCH  22  23
ENDBRANCH  20  21
ENDBRANCH   1  20
BRANCH   1  36
HETATM   36  C23 UNL     1      18.573 -12.609  17.386  1.00  0.00     0.237 C
HETATM   37  O4  UNL     1      19.629 -12.372  16.735  1.00  0.00    -0.285 OA
BRANCH  36  38
HETATM   38  C24 UNL     1      17.310 -12.225  16.780  1.00  0.00     0.302 C
HETATM   39  N5  UNL     1      17.006 -12.672  15.475  1.00  0.00    -0.054 NA
HETATM   40  O5  UNL     1      16.462 -11.505  17.368  1.00  0.00    -0.268 OA
ENDBRANCH  36  38
ENDBRANCH   1  36
TORSDOF 13
ENDMDL