MODEL 5
REMARK VINA RESULT: -9.001656276      5.119      7.654
REMARK  5 active torsions:
REMARK  status: ('A' for Active; 'I' for Inactive)
REMARK    1  A    between atoms: C2_2  and  C4_4
REMARK    2  A    between atoms: C7_7  and  O1_8
REMARK    3  A    between atoms: O1_8  and  C8_9
REMARK    4  A    between atoms: C10_15  and  N3_16
REMARK    5  A    between atoms: C18_25  and  C19_26
ROOT
HETATM    1  C8  UNL     1      77.326   0.241  25.188  1.00  0.00     0.162 A
HETATM    2  N1  UNL     1      78.221   1.181  24.917  1.00  0.00    -0.332 N
ATOM      3  H1  UNL     1      79.020   0.925  24.338  1.00  0.00     0.168 HD
HETATM    4  C9  UNL     1      78.146   2.436  25.351  1.00  0.00     0.184 A
HETATM    5  N2  UNL     1      77.136   2.804  26.097  1.00  0.00    -0.338 N
ATOM      6  H2  UNL     1      77.086   3.769  26.425  1.00  0.00     0.168 HD
HETATM    7  C10 UNL     1      76.122   1.909  26.457  1.00  0.00     0.124 A
HETATM    8  C18 UNL     1      76.228   0.642  26.002  1.00  0.00     0.142 A
ENDROOT
BRANCH   1   9
HETATM    9  O1  UNL     1      77.356  -1.050  24.771  1.00  0.00    -0.328 OA
BRANCH   9  10
HETATM   10  C7  UNL     1      78.446  -1.805  24.387  1.00  0.00     0.148 C
HETATM   11  C6  UNL     1      78.251  -3.294  24.520  1.00  0.00     0.036 C
HETATM   12  C5  UNL     1      79.146  -3.748  25.670  1.00  0.00     0.028 C
HETATM   13  C4  UNL     1      80.576  -3.589  25.168  1.00  0.00     0.080 C
HETATM   14  N4  UNL     1      80.814  -2.216  24.865  1.00  0.00    -0.414 N
HETATM   15  C20 UNL     1      79.700  -1.344  25.097  1.00  0.00     0.146 C
ATOM     16  H4  UNL     1      81.710  -1.880  24.511  1.00  0.00     0.153 HD
BRANCH  13  17
HETATM   17  C2  UNL     1      81.476  -4.143  26.247  1.00  0.00    -0.000 C
HETATM   18  C1  UNL     1      80.661  -5.096  27.077  1.00  0.00     0.011 C
HETATM   19  C3  UNL     1      82.689  -4.833  25.715  1.00  0.00     0.011 C
ENDBRANCH  13  17
ENDBRANCH   9  10
ENDBRANCH   1   9
BRANCH   8  20
HETATM   20  C19 UNL     1      75.258  -0.409  26.305  1.00  0.00     0.425 C
HETATM   21  F1  UNL     1      74.999  -0.455  27.692  1.00  0.00    -0.166 F
HETATM   22  F2  UNL     1      75.520  -1.645  25.882  1.00  0.00    -0.166 F
HETATM   23  F3  UNL     1      74.012  -0.067  25.697  1.00  0.00    -0.166 F
ENDBRANCH   8  20
BRANCH   7  24
HETATM   24  N3  UNL     1      75.095   2.514  27.230  1.00  0.00    -0.356 N
HETATM   25  C11 UNL     1      74.001   3.389  26.943  1.00  0.00     0.093 C
HETATM   26  C12 UNL     1      72.955   3.111  27.989  1.00  0.00     0.028 C
HETATM   27  C17 UNL     1      74.509   4.851  27.216  1.00  0.00     0.103 C
HETATM   28  C13 UNL     1      73.660   2.334  29.066  1.00  0.00     0.028 C
HETATM   29  C14 UNL     1      75.106   2.350  28.694  1.00  0.00     0.093 C
HETATM   30  C15 UNL     1      75.677   3.655  29.256  1.00  0.00     0.103 C
HETATM   31  C16 UNL     1      75.511   4.773  28.326  1.00  0.00     0.130 C
HETATM   32  O2  UNL     1      76.247   5.739  28.447  1.00  0.00    -0.298 OA
ENDBRANCH   7  24
TORSDOF 5
ENDMDL