MODEL 1
REMARK VINA RESULT: -8.768818138      0.000      0.000
REMARK  5 active torsions:
REMARK  status: ('A' for Active; 'I' for Inactive)
REMARK    1  A    between atoms: C2_2  and  C3_3
REMARK    2  A    between atoms: C3_3  and  N1_4
REMARK       I    between atoms: N1_4  and  C4_6
REMARK       I    between atoms: C4_6  and  N2_8
REMARK    3  A    between atoms: C7_11  and  C8_12
REMARK    4  A    between atoms: C9_15  and  C10_16
REMARK    5  A    between atoms: N4_18  and  C12_19
ROOT
HETATM    1  C8  UNL     1      78.005  -1.656  24.407  1.00  0.00     0.152 A
HETATM    2  N3  UNL     1      77.444  -0.752  25.234  1.00  0.00    -0.321 N
ATOM      3  H3  UNL     1      76.759  -0.965  25.959  1.00  0.00     0.169 HD
HETATM    4  C9  UNL     1      77.923   0.473  24.958  1.00  0.00     0.156 A
HETATM    5  N6  UNL     1      78.788   0.284  23.945  1.00  0.00    -0.241 N
ATOM      6  H6  UNL     1      79.330   1.021  23.494  1.00  0.00     0.196 HD
HETATM    7  O2  UNL     1      78.833  -0.971  23.625  1.00  0.00    -0.222 OA
ENDROOT
BRANCH   1   8
HETATM    8  C7  UNL     1      77.771  -3.124  24.355  1.00  0.00     0.066 C
HETATM    9  C6  UNL     1      76.412  -3.344  23.723  1.00  0.00     0.033 C
HETATM   10  C5  UNL     1      76.177  -4.836  23.671  1.00  0.00     0.128 C
HETATM   11  N2  UNL     1      76.086  -5.317  25.032  1.00  0.00    -0.334 N
HETATM   12  C4  UNL     1      75.567  -6.598  25.269  1.00  0.00     0.318 C
HETATM   13  C15 UNL     1      76.545  -4.438  26.093  1.00  0.00     0.128 C
HETATM   14  N1  UNL     1      75.138  -7.417  24.214  1.00  0.00    -0.343 N
HETATM   15  O1  UNL     1      75.485  -7.020  26.448  1.00  0.00    -0.247 OA
ATOM     16  H1  UNL     1      75.202  -7.080  23.252  1.00  0.00     0.164 HD
HETATM   17  C14 UNL     1      77.847  -3.759  25.727  1.00  0.00     0.033 C
BRANCH  14  18
HETATM   18  C3  UNL     1      74.609  -8.728  24.478  1.00  0.00     0.124 C
BRANCH  18  19
HETATM   19  C2  UNL     1      73.093  -8.713  24.568  1.00  0.00     0.015 C
HETATM   20  C1  UNL     1      72.521  -8.159  23.298  1.00  0.00     0.006 C
ENDBRANCH  18  19
ENDBRANCH  14  18
ENDBRANCH   1   8
BRANCH   4  21
HETATM   21  C10 UNL     1      77.605   1.748  25.590  1.00  0.00     0.095 A
HETATM   22  C11 UNL     1      76.508   2.025  26.375  1.00  0.00     0.129 A
HETATM   23  N4  UNL     1      76.544   3.307  26.786  1.00  0.00    -0.302 N
HETATM   24  C13 UNL     1      77.660   3.841  26.263  1.00  0.00     0.187 A
HETATM   25  N5  UNL     1      78.303   2.893  25.537  1.00  0.00    -0.348 N
ATOM     26  H5  UNL     1      79.178   3.030  25.030  1.00  0.00     0.167 HD
BRANCH  23  27
HETATM   27  C12 UNL     1      75.566   3.972  27.625  1.00  0.00     0.273 C
HETATM   28 CL1  UNL     1      75.497   5.678  27.151  1.00  0.00    -0.060 Cl
HETATM   29 CL2  UNL     1      73.999   3.157  27.367  1.00  0.00    -0.060 Cl
HETATM   30 CL3  UNL     1      76.075   3.795  29.329  1.00  0.00    -0.060 Cl
ENDBRANCH  23  27
ENDBRANCH   4  21
TORSDOF 5
ENDMDL