MODEL 5
REMARK VINA RESULT: -8.801743366      7.573     10.361
REMARK  5 active torsions:
REMARK  status: ('A' for Active; 'I' for Inactive)
REMARK    1  A    between atoms: C4_4  and  N1_5
REMARK    2  A    between atoms: C7_8  and  C8_9
REMARK    3  A    between atoms: C12_19  and  N4_20
REMARK    4  A    between atoms: N4_20  and  C13_22
REMARK    5  A    between atoms: C13_22  and  C15_24
ROOT
HETATM    1  C1  UNL     1      81.031  -4.876  32.093  1.00  0.00     0.069 C
HETATM    2  C2  UNL     1      81.422  -5.486  30.782  1.00  0.00     0.026 A
HETATM    3  C3  UNL     1      80.979  -4.912  29.617  1.00  0.00     0.076 A
HETATM    4  C4  UNL     1      81.344  -5.427  28.365  1.00  0.00     0.144 A
HETATM    5  N3  UNL     1      82.139  -6.500  28.396  1.00  0.00    -0.175 N
ATOM      6  H3  UNL     1      82.426  -6.904  27.505  1.00  0.00     0.186 HD
HETATM    7  C12 UNL     1      82.594  -7.097  29.538  1.00  0.00     0.680 A
HETATM    8  N5  UNL     1      82.210  -6.558  30.699  1.00  0.00    -0.196 N
ATOM      9  H5  UNL     1      82.537  -6.989  31.564  1.00  0.00     0.184 HD
ENDROOT
BRANCH   4  10
HETATM   10  N1  UNL     1      80.852  -4.860  27.171  1.00  0.00    -0.241 N
HETATM   11  C5  UNL     1      79.436  -4.593  27.036  1.00  0.00     0.159 C
HETATM   12  C6  UNL     1      79.033  -4.561  25.566  1.00  0.00     0.036 C
HETATM   13  C7  UNL     1      79.874  -3.520  24.891  1.00  0.00     0.071 C
HETATM   14  C11 UNL     1      81.214  -3.303  25.580  1.00  0.00     0.212 C
HETATM   15  O1  UNL     1      81.636  -4.526  26.132  1.00  0.00    -0.276 OA
BRANCH  13  16
HETATM   16  C8  UNL     1      79.119  -2.223  24.798  1.00  0.00     0.057 A
HETATM   17  N2  UNL     1      79.654  -1.029  24.568  1.00  0.00    -0.363 N
HETATM   18  C9  UNL     1      78.889   0.010  24.506  1.00  0.00     0.095 A
ATOM     19  H2  UNL     1      80.662  -0.934  24.441  1.00  0.00     0.165 HD
HETATM   20  C10 UNL     1      77.544  -0.169  24.686  1.00  0.00     0.068 A
HETATM   21  S1  UNL     1      77.466  -1.866  24.937  1.00  0.00    -0.087 SA
ENDBRANCH  13  16
ENDBRANCH   4  10
BRANCH   7  22
HETATM   22  N4  UNL     1      83.347  -8.131  29.436  1.00  0.00    -0.217 N
ATOM     23  H4  UNL     1      84.304  -7.961  29.745  1.00  0.00     0.178 HD
BRANCH  22  24
HETATM   24  C13 UNL     1      83.141  -9.433  28.995  1.00  0.00     0.149 C
HETATM   25  C14 UNL     1      82.987 -10.463  30.099  1.00  0.00     0.037 C
BRANCH  24  26
HETATM   26  C15 UNL     1      84.076  -9.985  27.968  1.00  0.00     0.208 C
HETATM   27 CL1  UNL     1      83.346 -11.461  27.265  1.00  0.00    -0.082 Cl
HETATM   28 CL2  UNL     1      84.492  -8.799  26.748  1.00  0.00    -0.082 Cl
HETATM   29 CL3  UNL     1      85.578 -10.498  28.797  1.00  0.00    -0.082 Cl
ENDBRANCH  24  26
ENDBRANCH  22  24
ENDBRANCH   7  22
TORSDOF 5
ENDMDL