MODEL 3
REMARK VINA RESULT: -7.974766912      6.181      8.806
REMARK  5 active torsions:
REMARK  status: ('A' for Active; 'I' for Inactive)
REMARK    1  A    between atoms: O1_2  and  C2_3
REMARK    2  A    between atoms: C4_5  and  C5_6
REMARK       I    between atoms: C5_6  and  N1_8
REMARK    3  A    between atoms: N2_11  and  C8_12
REMARK    4  A    between atoms: C12_18  and  O3_19
REMARK    5  A    between atoms: C16_26  and  O5_27
ROOT
HETATM    1  C5  UNL     1      77.841  -1.538  24.784  1.00  0.00     0.277 C
HETATM    2  O2  UNL     1      78.790  -1.330  23.985  1.00  0.00    -0.265 OA
HETATM    3  N1  UNL     1      77.466  -2.847  25.089  1.00  0.00    -0.343 N
HETATM    4  C6  UNL     1      78.181  -3.962  24.475  1.00  0.00     0.146 C
HETATM    5  C7  UNL     1      77.115  -4.802  23.806  1.00  0.00     0.143 C
HETATM    6  N2  UNL     1      76.254  -5.333  24.845  1.00  0.00    -0.374 N
HETATM    7  C14 UNL     1      76.210  -4.671  26.114  1.00  0.00     0.143 C
HETATM    8  C15 UNL     1      76.389  -3.163  25.998  1.00  0.00     0.146 C
ENDROOT
BRANCH   1   9
HETATM    9  C4  UNL     1      77.122  -0.420  25.401  1.00  0.00     0.148 A
HETATM   10  C3  UNL     1      77.520   0.916  25.271  1.00  0.00     0.085 A
HETATM   11  C2  UNL     1      76.582   1.619  25.992  1.00  0.00     0.129 A
HETATM   12  C16 UNL     1      75.672   0.732  26.524  1.00  0.00     0.220 A
HETATM   13  O4  UNL     1      76.045  -0.458  26.138  1.00  0.00    -0.280 OA
BRANCH  11  14
HETATM   14  O1  UNL     1      76.590   2.997  26.135  1.00  0.00    -0.351 OA
HETATM   15  C1  UNL     1      77.727   3.736  26.486  1.00  0.00     0.210 C
ENDBRANCH  11  14
BRANCH  12  16
HETATM   16  O5  UNL     1      74.588   1.102  27.311  1.00  0.00    -0.333 OA
HETATM   17  C17 UNL     1      73.732   0.162  27.928  1.00  0.00     0.212 C
ENDBRANCH  12  16
ENDBRANCH   1   9
BRANCH   6  18
HETATM   18  C8  UNL     1      75.505  -6.492  24.532  1.00  0.00     0.094 A
HETATM   19  C9  UNL     1      74.804  -6.533  23.355  1.00  0.00     0.065 A
HETATM   20 CL1  UNL     1      74.875  -5.144  22.299  1.00  0.00    -0.082 Cl
HETATM   21  C10 UNL     1      74.051  -7.641  22.995  1.00  0.00     0.053 A
HETATM   22  C11 UNL     1      74.038  -8.715  23.887  1.00  0.00     0.072 A
HETATM   23 CL2  UNL     1      73.112 -10.164  23.518  1.00  0.00    -0.081 Cl
HETATM   24  C12 UNL     1      74.731  -8.705  25.078  1.00  0.00     0.128 A
HETATM   25  C13 UNL     1      75.477  -7.562  25.396  1.00  0.00     0.179 A
HETATM   26  F1  UNL     1      76.161  -7.552  26.571  1.00  0.00    -0.201 F
BRANCH  24  27
HETATM   27  O3  UNL     1      74.727  -9.763  25.971  1.00  0.00    -0.356 OA
ATOM     28  H3  UNL     1      75.198  -9.754  26.796  1.00  0.00     0.218 HD
ENDBRANCH  24  27
ENDBRANCH   6  18
TORSDOF 5
ENDMDL