MODEL 4
REMARK VINA RESULT: -7.430315003      2.396      3.074
REMARK  9 active torsions:
REMARK  status: ('A' for Active; 'I' for Inactive)
REMARK    1  A    between atoms: C4_4  and  C6_6
REMARK       I    between atoms: C6_6  and  N1_8
REMARK    2  A    between atoms: N1_8  and  C7_10
REMARK    3  A    between atoms: C7_10  and  C8_11
REMARK    4  A    between atoms: C7_10  and  C14_20
REMARK    5  A    between atoms: C8_11  and  O2_12
REMARK    6  A    between atoms: O2_12  and  C9_13
REMARK    7  A    between atoms: C9_13  and  O4_15
REMARK    8  A    between atoms: O4_15  and  C10_16
REMARK    9  A    between atoms: C18_26  and  C19_27
ROOT
HETATM    1  C6  UNL     1      75.832  -6.938  24.820  1.00  0.00     0.246 C
HETATM    2  O1  UNL     1      76.228  -7.451  25.890  1.00  0.00    -0.271 OA
HETATM    3  N1  UNL     1      76.231  -5.641  24.495  1.00  0.00    -0.351 N
ATOM      4  H1  UNL     1      75.891  -5.253  23.615  1.00  0.00     0.163 HD
ENDROOT
BRANCH   3   5
HETATM    5  C7  UNL     1      77.088  -4.803  25.304  1.00  0.00     0.116 C
BRANCH   5   6
HETATM    6  C8  UNL     1      76.638  -4.690  26.715  1.00  0.00     0.207 C
BRANCH   6   7
HETATM    7  O2  UNL     1      77.631  -4.574  27.692  1.00  0.00    -0.296 OA
BRANCH   7   8
HETATM    8  C9  UNL     1      78.550  -5.554  27.969  1.00  0.00     0.407 C
HETATM    9  O3  UNL     1      78.329  -6.311  28.933  1.00  0.00    -0.229 OA
BRANCH   8  10
HETATM   10  O4  UNL     1      79.715  -5.758  27.241  1.00  0.00    -0.288 OA
BRANCH  10  11
HETATM   11  C10 UNL     1      80.918  -5.184  27.720  1.00  0.00     0.062 C
HETATM   12  C11 UNL     1      81.486  -4.365  26.563  1.00  0.00     0.046 C
HETATM   13  C12 UNL     1      80.669  -4.229  28.862  1.00  0.00     0.046 C
HETATM   14  C13 UNL     1      81.950  -6.199  28.100  1.00  0.00     0.046 C
ENDBRANCH  10  11
ENDBRANCH   8  10
ENDBRANCH   7   8
ENDBRANCH   6   7
ENDBRANCH   5   6
BRANCH   5  15
HETATM   15  C14 UNL     1      77.223  -3.410  24.735  1.00  0.00    -0.029 C
HETATM   16  C15 UNL     1      76.331  -2.416  25.457  1.00  0.00     0.016 C
HETATM   17  C16 UNL     1      76.749  -3.421  23.296  1.00  0.00     0.016 C
HETATM   18  C17 UNL     1      78.614  -2.884  24.769  1.00  0.00     0.016 C
ENDBRANCH   5  15
ENDBRANCH   3   5
BRANCH   1  19
HETATM   19  C4  UNL     1      74.953  -7.754  23.954  1.00  0.00     0.111 C
HETATM   20  C3  UNL     1      74.037  -8.573  24.812  1.00  0.00     0.072 C
HETATM   21  C2  UNL     1      73.773  -9.957  24.339  1.00  0.00     0.129 C
HETATM   22  C1  UNL     1      74.421 -11.008  25.228  1.00  0.00     0.040 C
HETATM   23  O5  UNL     1      74.148 -10.159  22.975  1.00  0.00    -0.327 OA
HETATM   24  C18 UNL     1      75.357  -9.648  22.536  1.00  0.00     0.225 C
HETATM   25  N2  UNL     1      75.722  -8.526  23.000  1.00  0.00    -0.349 N
ATOM     26  H2  UNL     1      76.612  -8.143  22.682  1.00  0.00     0.162 HD
HETATM   27  C5  UNL     1      74.046  -6.860  23.098  1.00  0.00     0.049 C
BRANCH  24  28
HETATM   28  C19 UNL     1      76.176 -10.427  21.546  1.00  0.00     0.455 C
HETATM   29  F1  UNL     1      77.530 -10.105  21.704  1.00  0.00    -0.163 F
HETATM   30  F2  UNL     1      75.814  -9.994  20.287  1.00  0.00    -0.163 F
HETATM   31  F3  UNL     1      76.019 -11.768  21.702  1.00  0.00    -0.163 F
ENDBRANCH  24  28
ENDBRANCH   1  19
TORSDOF 9
ENDMDL