MODEL 3
REMARK VINA RESULT: -7.200133957      4.148      7.076
REMARK  7 active torsions:
REMARK  status: ('A' for Active; 'I' for Inactive)
REMARK    1  A    between atoms: C2_2  and  O1_3
REMARK    2  A    between atoms: C2_2  and  C3_5
REMARK    3  A    between atoms: C3_5  and  C4_6
REMARK    4  A    between atoms: C4_6  and  O3_8
REMARK    5  A    between atoms: O3_8  and  C5_9
REMARK    6  A    between atoms: C5_9  and  C8_12
REMARK    7  A    between atoms: C12_19  and  C13_20
ROOT
HETATM    1  C8  UNL     1      75.450  -8.303  22.753  1.00  0.00     0.035 C
HETATM    2  C9  UNL     1      76.033  -7.355  21.714  1.00  0.00     0.044 C
HETATM    3  C10 UNL     1      75.949  -5.980  22.325  1.00  0.00     0.171 C
HETATM    4  O4  UNL     1      77.227  -5.548  22.764  1.00  0.00    -0.205 OA
HETATM    5  O5  UNL     1      77.083  -4.486  23.518  1.00  0.00    -0.066 OA
HETATM    6  O6  UNL     1      76.589  -4.834  24.686  1.00  0.00    -0.204 OA
HETATM    7  C11 UNL     1      76.134  -6.163  24.669  1.00  0.00     0.184 C
HETATM    8  C12 UNL     1      75.648  -6.457  26.029  1.00  0.00     0.129 C
HETATM    9  C14 UNL     1      75.236  -7.872  26.291  1.00  0.00     0.043 C
HETATM   10  C15 UNL     1      73.900  -8.093  25.752  1.00  0.00    -0.023 C
HETATM   11  C16 UNL     1      73.504  -7.694  24.396  1.00  0.00    -0.078 C
HETATM   12  C17 UNL     1      72.148  -8.355  24.119  1.00  0.00     0.044 C
HETATM   13  C18 UNL     1      74.402  -7.486  23.289  1.00  0.00    -0.006 C
HETATM   14  C19 UNL     1      73.492  -7.050  22.102  1.00  0.00     0.021 C
HETATM   15  C20 UNL     1      75.146  -6.188  23.567  1.00  0.00     0.063 C
ENDROOT
BRANCH   1  16
HETATM   16  C5  UNL     1      75.445  -9.637  22.231  1.00  0.00     0.068 C
HETATM   17  C6  UNL     1      76.666 -10.408  21.891  1.00  0.00     0.047 C
HETATM   18  C7  UNL     1      74.817  -9.477  20.741  1.00  0.00     0.047 C
BRANCH  16  19
HETATM   19  O3  UNL     1      74.393 -10.371  22.769  1.00  0.00    -0.310 OA
BRANCH  19  20
HETATM   20  C4  UNL     1      74.405 -11.276  23.755  1.00  0.00     0.262 C
HETATM   21  O2  UNL     1      75.114 -11.043  24.747  1.00  0.00    -0.265 OA
BRANCH  20  22
HETATM   22  C3  UNL     1      73.628 -12.555  23.759  1.00  0.00     0.142 C
BRANCH  22  23
HETATM   23  C2  UNL     1      74.546 -13.760  23.872  1.00  0.00     0.123 C
HETATM   24  C1  UNL     1      75.614 -13.727  22.831  1.00  0.00     0.040 C
BRANCH  23  25
HETATM   25  O1  UNL     1      75.114 -13.715  25.139  1.00  0.00    -0.395 OA
ATOM     26  H1  UNL     1      74.792 -14.436  25.667  1.00  0.00     0.210 HD
ENDBRANCH  23  25
ENDBRANCH  22  23
ENDBRANCH  20  22
ENDBRANCH  19  20
ENDBRANCH  16  19
ENDBRANCH   1  16
BRANCH   8  27
HETATM   27  C13 UNL     1      76.673  -5.997  27.043  1.00  0.00     0.394 C
HETATM   28  F1  UNL     1      76.357  -6.514  28.297  1.00  0.00    -0.171 F
HETATM   29  F2  UNL     1      77.957  -6.281  26.695  1.00  0.00    -0.171 F
HETATM   30  F3  UNL     1      76.488  -4.614  27.208  1.00  0.00    -0.171 F
ENDBRANCH   8  27
TORSDOF 7
ENDMDL