MODEL 3
REMARK VINA RESULT: -6.255931796      2.561      7.460
REMARK  4 active torsions:
REMARK  status: ('A' for Active; 'I' for Inactive)
REMARK    1  A    between atoms: C4_5  and  C5_6
REMARK    2  A    between atoms: C12_18  and  C13_19
REMARK    3  A    between atoms: N5_24  and  C14_25
REMARK    4  A    between atoms: C14_25  and  C15_26
REMARK       I    between atoms: C15_26  and  N6_28
ROOT
HETATM    1  C1  UNL     1      76.297  -3.942  22.321  1.00  0.00     0.070 C
HETATM    2  C2  UNL     1      76.002  -5.037  23.294  1.00  0.00     0.031 A
HETATM    3  C3  UNL     1      75.173  -6.088  23.118  1.00  0.00     0.072 A
HETATM    4 CL1  UNL     1      74.205  -6.485  21.720  1.00  0.00    -0.081 Cl
HETATM    5  C4  UNL     1      75.223  -6.850  24.312  1.00  0.00     0.063 A
HETATM    6  C12 UNL     1      76.081  -6.237  25.180  1.00  0.00     0.089 A
HETATM    7  N5  UNL     1      76.554  -5.128  24.546  1.00  0.00    -0.337 N
ENDROOT
BRANCH   5   8
HETATM    8  C5  UNL     1      74.436  -8.072  24.461  1.00  0.00     0.138 A
HETATM    9  N1  UNL     1      73.330  -8.293  25.185  1.00  0.00    -0.283 N
HETATM   10  N2  UNL     1      72.871  -9.528  25.003  1.00  0.00    -0.287 N
ATOM     11  H1  UNL     1      72.896  -7.603  25.798  1.00  0.00     0.188 HD
HETATM   12  C6  UNL     1      73.730 -10.114  24.121  1.00  0.00     0.099 A
ATOM     13  H2  UNL     1      72.048  -9.949  25.433  1.00  0.00     0.188 HD
HETATM   14  N3  UNL     1      74.693  -9.211  23.791  1.00  0.00    -0.320 N
HETATM   15  C11 UNL     1      73.566 -11.502  23.658  1.00  0.00     0.078 C
HETATM   16  C7  UNL     1      75.783  -9.433  22.888  1.00  0.00     0.132 C
HETATM   17  C8  UNL     1      75.309  -9.627  21.468  1.00  0.00     0.020 C
HETATM   18  C9  UNL     1      73.966 -10.345  21.455  1.00  0.00     0.002 C
HETATM   19  C10 UNL     1      74.000 -11.617  22.231  1.00  0.00     0.007 C
ENDBRANCH   5   8
BRANCH   6  20
HETATM   20  C13 UNL     1      76.400  -6.706  26.533  1.00  0.00     0.125 C
HETATM   21  N4  UNL     1      75.617  -7.107  27.395  1.00  0.00    -0.388 N
ATOM     22  H42 UNL     1      74.628  -7.115  27.146  1.00  0.00     0.157 HD
ATOM     23  H41 UNL     1      75.839  -7.434  28.335  1.00  0.00     0.157 HD
HETATM   24 CL2  UNL     1      78.145  -6.693  26.973  1.00  0.00    -0.062 Cl
ENDBRANCH   6  20
BRANCH   7  25
HETATM   25  C14 UNL     1      77.481  -4.199  25.099  1.00  0.00     0.233 C
BRANCH  25  26
HETATM   26  C15 UNL     1      76.899  -2.970  25.621  1.00  0.00     0.252 C
HETATM   27  O1  UNL     1      76.004  -3.025  26.492  1.00  0.00    -0.270 OA
HETATM   28  N6  UNL     1      77.310  -1.694  25.174  1.00  0.00    -0.263 N
HETATM   29  C16 UNL     1      78.350  -1.545  24.158  1.00  0.00     0.174 C
HETATM   30 CL3  UNL     1      76.607  -0.256  25.808  1.00  0.00     0.015 Cl
ENDBRANCH  25  26
ENDBRANCH   7  25
TORSDOF 4
ENDMDL