MODEL 5
REMARK VINA RESULT: -9.205483578      1.636      2.634
REMARK  6 active torsions:
REMARK  status: ('A' for Active; 'I' for Inactive)
REMARK    1  A    between atoms: N4_12  and  C7_13
REMARK    2  A    between atoms: C7_13  and  C9_15
REMARK    3  A    between atoms: C10_19  and  N5_20
REMARK    4  A    between atoms: N5_20  and  C11_22
REMARK    5  A    between atoms: C11_22  and  C13_24
REMARK    6  A    between atoms: C13_24  and  C16_27
ROOT
HETATM    1  C1  UNL     1      79.272   1.691  23.918  1.00  0.00     0.089 C
HETATM    2  C2  UNL     1      78.133   1.169  24.753  1.00  0.00     0.080 A
HETATM    3  N1  UNL     1      77.383   2.032  25.478  1.00  0.00    -0.330 N
ATOM      4  H1  UNL     1      77.592   3.030  25.456  1.00  0.00     0.168 HD
HETATM    5  C3  UNL     1      76.364   1.576  26.226  1.00  0.00     0.142 A
HETATM    6  C4  UNL     1      76.115   0.237  26.233  1.00  0.00     0.123 A
HETATM    7  N2  UNL     1      75.049   0.064  27.061  1.00  0.00    -0.327 N
ATOM      8  H2  UNL     1      74.609  -0.829  27.285  1.00  0.00     0.168 HD
HETATM    9  C5  UNL     1      74.671   1.263  27.536  1.00  0.00     0.193 A
HETATM   10  C6  UNL     1      73.589   1.517  28.439  1.00  0.00     0.137 C
HETATM   11  N3  UNL     1      72.697   1.705  29.174  1.00  0.00    -0.188 NA
HETATM   12  N4  UNL     1      75.471   2.211  27.033  1.00  0.00    -0.295 N
HETATM   13  C10 UNL     1      76.877  -0.659  25.495  1.00  0.00     0.134 A
HETATM   14  N6  UNL     1      77.883  -0.150  24.764  1.00  0.00    -0.331 N
ATOM     15  H6  UNL     1      78.466  -0.776  24.207  1.00  0.00     0.168 HD
ENDROOT
BRANCH  12  16
HETATM   16  C7  UNL     1      75.440   3.621  27.260  1.00  0.00     0.197 C
HETATM   17  C8  UNL     1      74.081   4.214  27.425  1.00  0.00     0.042 C
BRANCH  16  18
HETATM   18  C9  UNL     1      76.309   4.024  28.454  1.00  0.00     0.407 C
HETATM   19  F1  UNL     1      76.121   5.380  28.724  1.00  0.00    -0.169 F
HETATM   20  F2  UNL     1      77.648   3.837  28.198  1.00  0.00    -0.169 F
HETATM   21  F3  UNL     1      75.866   3.314  29.546  1.00  0.00    -0.169 F
ENDBRANCH  16  18
ENDBRANCH  12  16
BRANCH  13  22
HETATM   22  N5  UNL     1      76.613  -1.901  25.527  1.00  0.00    -0.369 N
ATOM     23  H5  UNL     1      75.810  -2.187  26.087  1.00  0.00     0.161 HD
BRANCH  22  24
HETATM   24  C11 UNL     1      77.338  -2.948  24.847  1.00  0.00     0.087 C
HETATM   25  C12 UNL     1      77.105  -2.920  23.382  1.00  0.00     0.033 C
BRANCH  24  26
HETATM   26  C13 UNL     1      77.153  -4.289  25.510  1.00  0.00    -0.022 C
HETATM   27  C14 UNL     1      78.453  -5.046  25.545  1.00  0.00     0.017 C
HETATM   28  C15 UNL     1      76.831  -3.942  26.978  1.00  0.00     0.017 C
BRANCH  26  29
HETATM   29  C16 UNL     1      76.000  -5.093  25.033  1.00  0.00     0.019 C
HETATM   30  C17 UNL     1      75.531  -5.916  26.245  1.00  0.00     0.009 C
HETATM   31  C18 UNL     1      74.461  -6.884  25.923  1.00  0.00     0.027 C
HETATM   32  C19 UNL     1      74.565  -7.517  24.566  1.00  0.00     0.167 C
HETATM   33  O1  UNL     1      75.051  -6.654  23.596  1.00  0.00    -0.391 OA
HETATM   34  C20 UNL     1      76.306  -6.108  23.964  1.00  0.00     0.172 C
ENDBRANCH  26  29
ENDBRANCH  24  26
ENDBRANCH  22  24
ENDBRANCH  13  22
TORSDOF 6
ENDMDL