MODEL 2
REMARK VINA RESULT: -8.677787567      0.140      1.534
REMARK  5 active torsions:
REMARK  status: ('A' for Active; 'I' for Inactive)
REMARK    1  A    between atoms: O1_2  and  C2_3
REMARK    2  A    between atoms: C4_5  and  C5_6
REMARK    3  A    between atoms: C7_9  and  C8_10
REMARK    4  A    between atoms: C18_25  and  O5_26
REMARK    5  A    between atoms: C19_28  and  O6_29
ROOT
HETATM    1  C5  UNL     1      78.328  -2.402  24.613  1.00  0.00     0.074 C
HETATM    2  C6  UNL     1      77.748  -3.513  25.356  1.00  0.00     0.180 C
HETATM    3  O2  UNL     1      78.539  -4.473  25.971  1.00  0.00    -0.378 OA
HETATM    4  C7  UNL     1      79.879  -4.405  25.908  1.00  0.00     0.192 C
HETATM    5  C14 UNL     1      80.131  -2.900  26.098  1.00  0.00     0.187 C
HETATM    6  O3  UNL     1      81.453  -2.633  26.205  1.00  0.00    -0.356 OA
HETATM    7  C15 UNL     1      81.703  -1.536  25.411  1.00  0.00     0.339 C
HETATM    8  O4  UNL     1      80.500  -1.244  24.724  1.00  0.00    -0.358 OA
HETATM    9  C16 UNL     1      79.868  -2.421  24.654  1.00  0.00     0.166 C
ENDROOT
BRANCH   1  10
HETATM   10  C4  UNL     1      77.906  -1.014  24.915  1.00  0.00    -0.044 A
HETATM   11  C3  UNL     1      76.841  -0.860  25.807  1.00  0.00     0.047 A
HETATM   12  C2  UNL     1      76.348   0.374  26.127  1.00  0.00     0.104 A
HETATM   13  C19 UNL     1      76.904   1.505  25.571  1.00  0.00     0.134 A
HETATM   14  C18 UNL     1      77.988   1.354  24.661  1.00  0.00     0.102 A
HETATM   15  C17 UNL     1      78.458   0.098  24.358  1.00  0.00     0.047 A
BRANCH  12  16
HETATM   16  O1  UNL     1      75.301   0.580  26.999  1.00  0.00    -0.353 OA
HETATM   17  C1  UNL     1      74.330  -0.414  27.296  1.00  0.00     0.210 C
ENDBRANCH  12  16
BRANCH  13  18
HETATM   18  O6  UNL     1      76.461   2.742  25.831  1.00  0.00    -0.351 OA
HETATM   19  C20 UNL     1      76.586   3.671  26.817  1.00  0.00     0.210 C
ENDBRANCH  13  18
BRANCH  14  20
HETATM   20  O5  UNL     1      78.562   2.464  24.094  1.00  0.00    -0.358 OA
ATOM     21  H5  UNL     1      79.062   2.388  23.290  1.00  0.00     0.217 HD
ENDBRANCH  14  20
ENDBRANCH   1  10
BRANCH   4  22
HETATM   22  C8  UNL     1      80.578  -5.014  27.030  1.00  0.00     0.051 A
HETATM   23  C9  UNL     1      79.922  -5.123  28.266  1.00  0.00     0.131 A
HETATM   24  F1  UNL     1      78.662  -4.654  28.416  1.00  0.00    -0.205 F
HETATM   25  C10 UNL     1      80.546  -5.725  29.360  1.00  0.00     0.085 A
HETATM   26  C11 UNL     1      81.829  -6.223  29.253  1.00  0.00     0.122 A
HETATM   27  F2  UNL     1      82.413  -6.814  30.330  1.00  0.00    -0.206 F
HETATM   28  C12 UNL     1      82.477  -6.117  28.064  1.00  0.00     0.085 A
HETATM   29  C13 UNL     1      81.850  -5.513  26.956  1.00  0.00     0.131 A
HETATM   30  F3  UNL     1      82.614  -5.411  25.859  1.00  0.00    -0.205 F
ENDBRANCH   4  22
TORSDOF 5
ENDMDL