MODEL 4
REMARK VINA RESULT: -9.831252453      2.551      3.893
REMARK  4 active torsions:
REMARK  status: ('A' for Active; 'I' for Inactive)
REMARK       I    between atoms: C1_2  and  N1_3
REMARK    1  A    between atoms: C1_2  and  C14_22
REMARK    2  A    between atoms: N1_3  and  C2_5
REMARK    3  A    between atoms: C2_5  and  C3_6
REMARK    4  A    between atoms: C3_6  and  C4_7
ROOT
HETATM    1  C3  UNL     1      76.872  -4.594  25.802  1.00  0.00     0.020 C
HETATM    2  C9  UNL     1      77.820  -4.329  24.672  1.00  0.00     0.017 C
HETATM    3  C10 UNL     1      79.233  -4.068  24.981  1.00  0.00     0.001 C
HETATM    4  C11 UNL     1      79.789  -4.565  26.260  1.00  0.00     0.000 C
HETATM    5  C12 UNL     1      78.848  -5.469  27.029  1.00  0.00     0.001 C
HETATM    6  C13 UNL     1      77.564  -4.695  27.157  1.00  0.00     0.017 C
ENDROOT
BRANCH   1   7
HETATM    7  C2  UNL     1      75.918  -3.425  25.956  1.00  0.00     0.139 C
BRANCH   7   8
HETATM    8  N1  UNL     1      76.610  -2.164  25.728  1.00  0.00    -0.353 N
HETATM    9  C1  UNL     1      76.011  -0.963  26.105  1.00  0.00     0.287 C
HETATM   10  O1  UNL     1      74.837  -1.062  26.637  1.00  0.00    -0.264 OA
ATOM     11  H1  UNL     1      77.532  -2.160  25.293  1.00  0.00     0.162 HD
BRANCH   9  12
HETATM   12  C14 UNL     1      76.519   0.374  25.979  1.00  0.00     0.193 A
HETATM   13  N3  UNL     1      77.504   0.747  25.124  1.00  0.00    -0.279 N
HETATM   14  N4  UNL     1      77.717   2.020  25.259  1.00  0.00    -0.278 N
ATOM     15  H3  UNL     1      77.996   0.129  24.479  1.00  0.00     0.189 HD
HETATM   16  C15 UNL     1      76.880   2.509  26.202  1.00  0.00     0.163 A
ATOM     17  H4  UNL     1      78.405   2.564  24.739  1.00  0.00     0.189 HD
HETATM   18  N5  UNL     1      76.142   1.492  26.640  1.00  0.00    -0.307 N
HETATM   19  S1  UNL     1      76.725   4.197  26.855  1.00  0.00    -0.092 SA
HETATM   20  C16 UNL     1      75.077   1.624  27.647  1.00  0.00     0.134 C
HETATM   21  C17 UNL     1      74.531   3.007  27.739  1.00  0.00     0.031 C
HETATM   22  C18 UNL     1      75.543   4.007  28.256  1.00  0.00     0.084 C
ENDBRANCH   9  12
ENDBRANCH   7   8
ENDBRANCH   1   7
BRANCH   1  23
HETATM   23  C4  UNL     1      76.129  -5.868  25.608  1.00  0.00     0.044 A
HETATM   24  N2  UNL     1      75.897  -6.712  26.664  1.00  0.00    -0.364 N
HETATM   25  C5  UNL     1      75.222  -7.843  26.589  1.00  0.00     0.133 A
ATOM     26  H2  UNL     1      76.274  -6.445  27.574  1.00  0.00     0.165 HD
HETATM   27  C6  UNL     1      74.678  -8.284  25.412  1.00  0.00     0.171 A
HETATM   28  F1  UNL     1      73.985  -9.454  25.357  1.00  0.00    -0.201 F
HETATM   29  C7  UNL     1      74.871  -7.489  24.305  1.00  0.00     0.179 A
HETATM   30  F2  UNL     1      74.355  -7.885  23.131  1.00  0.00    -0.201 F
HETATM   31  C8  UNL     1      75.592  -6.297  24.422  1.00  0.00     0.099 A
HETATM   32 CL1  UNL     1      75.816  -5.393  22.968  1.00  0.00    -0.079 Cl
ENDBRANCH   1  23
TORSDOF 4
ENDMDL