MODEL 3
REMARK VINA RESULT: -5.492827486      2.964      4.840
REMARK  5 active torsions:
REMARK  status: ('A' for Active; 'I' for Inactive)
REMARK    1  A    between atoms: N1_2  and  C4_5
REMARK    2  A    between atoms: C4_5  and  C5_6
REMARK    3  A    between atoms: C7_8  and  O1_9
REMARK    4  A    between atoms: C8_11  and  O2_12
REMARK    5  A    between atoms: C9_14  and  N2_15
ROOT
HETATM    1  C5  UNL     1      77.235  27.475  42.002  1.00  0.00     0.047 C
HETATM    2  C6  UNL     1      77.584  26.114  41.381  1.00  0.00     0.043 C
HETATM    3  C7  UNL     1      77.884  25.200  42.542  1.00  0.00     0.149 C
HETATM    4  C8  UNL     1      77.465  25.880  43.800  1.00  0.00     0.177 C
HETATM    5  C9  UNL     1      76.740  27.149  43.386  1.00  0.00     0.220 C
ENDROOT
BRANCH   1   6
HETATM    6  C4  UNL     1      76.249  28.153  41.118  1.00  0.00     0.243 C
BRANCH   6   7
HETATM    7  N1  UNL     1      76.748  28.900  40.022  1.00  0.00    -0.078 N
HETATM    8  C1  UNL     1      76.423  28.419  38.713  1.00  0.00     0.271 C
HETATM    9  C2  UNL     1      76.252  30.288  40.096  1.00  0.00     0.271 C
HETATM   10  C3  UNL     1      78.214  29.029  40.049  1.00  0.00     0.271 C
ENDBRANCH   6   7
ENDBRANCH   1   6
BRANCH   5  11
HETATM   11  N2  UNL     1      75.342  26.859  43.461  1.00  0.00    -0.072 N
ATOM     12  H23 UNL     1      75.128  26.358  44.323  1.00  0.00     0.274 HD
ATOM     13  H22 UNL     1      74.810  27.714  43.619  1.00  0.00     0.274 HD
ATOM     14  H21 UNL     1      74.973  26.354  42.656  1.00  0.00     0.274 HD
ENDBRANCH   5  11
BRANCH   3  15
HETATM   15  O1  UNL     1      77.279  23.940  42.380  1.00  0.00    -0.393 OA
ATOM     16  H1  UNL     1      76.333  24.010  42.338  1.00  0.00     0.210 HD
ENDBRANCH   3  15
BRANCH   4  17
HETATM   17  O2  UNL     1      76.629  25.032  44.523  1.00  0.00    -0.391 OA
ATOM     18  H2  UNL     1      75.801  24.947  44.067  1.00  0.00     0.210 HD
ENDBRANCH   4  17
TORSDOF 5
ENDMDL