MODEL 4
REMARK VINA RESULT: -4.550204800      2.249      4.769
REMARK  4 active torsions:
REMARK  status: ('A' for Active; 'I' for Inactive)
REMARK       I    between atoms: C1_4  and  N2_5
REMARK       I    between atoms: C1_4  and  N4_14
REMARK    1  A    between atoms: N2_5  and  C2_7
REMARK    2  A    between atoms: C2_7  and  C3_8
REMARK    3  A    between atoms: C3_8  and  C4_9
REMARK    4  A    between atoms: C4_9  and  N3_10
ROOT
HETATM    1  N1  UNL     1      76.035  28.025  42.494  1.00  0.00    -0.235 N
ATOM      2  H11 UNL     1      76.028  28.931  42.025  1.00  0.00     0.174 HD
ATOM      3  H12 UNL     1      75.517  27.878  43.361  1.00  0.00     0.174 HD
HETATM    4  C1  UNL     1      76.720  27.081  41.946  1.00  0.00     0.669 C
HETATM    5  N2  UNL     1      76.728  25.824  42.596  1.00  0.00    -0.227 N
ATOM      6  H2  UNL     1      76.071  25.101  42.304  1.00  0.00     0.177 HD
HETATM    7  N4  UNL     1      77.439  27.286  40.740  1.00  0.00    -0.214 N
HETATM    8  C5  UNL     1      77.548  26.250  39.750  1.00  0.00     0.167 C
HETATM    9  C6  UNL     1      77.002  26.849  38.453  1.00  0.00     0.188 C
HETATM   10  O1  UNL     1      76.590  28.145  38.595  1.00  0.00    -0.388 OA
HETATM   11  C7  UNL     1      77.501  29.017  39.132  1.00  0.00     0.188 C
HETATM   12  C8  UNL     1      78.091  28.533  40.451  1.00  0.00     0.167 C
ENDROOT
BRANCH   5  13
HETATM   13  C2  UNL     1      77.649  25.557  43.659  1.00  0.00     0.139 C
BRANCH  13  14
HETATM   14  C3  UNL     1      78.989  25.058  43.149  1.00  0.00     0.047 C
BRANCH  14  15
HETATM   15  C4  UNL     1      78.776  24.111  41.987  1.00  0.00     0.231 C
BRANCH  15  16
HETATM   16  N3  UNL     1      79.902  23.191  41.846  1.00  0.00    -0.079 N
ATOM     17  H33 UNL     1      80.151  23.048  40.868  1.00  0.00     0.274 HD
ATOM     18  H32 UNL     1      80.774  23.610  42.169  1.00  0.00     0.274 HD
ATOM     19  H31 UNL     1      79.713  22.306  42.319  1.00  0.00     0.274 HD
ENDBRANCH  15  16
ENDBRANCH  14  15
ENDBRANCH  13  14
ENDBRANCH   5  13
TORSDOF 4
ENDMDL