MODEL 1
REMARK VINA RESULT: -5.983605184      0.000      0.000
REMARK  3 active torsions:
REMARK  status: ('A' for Active; 'I' for Inactive)
REMARK    1  A    between atoms: N3_4  and  C2_6
REMARK    2  A    between atoms: C2_6  and  C3_7
REMARK    3  A    between atoms: C3_7  and  N4_8
ROOT
HETATM    1  N4  UNL     1      78.085  26.040  40.131  1.00  0.00    -0.390 N
HETATM    2  C4  UNL     1      78.424  25.672  38.794  1.00  0.00     0.123 C
HETATM    3  C5  UNL     1      79.225  26.748  38.095  1.00  0.00     0.039 C
HETATM    4  C6  UNL     1      78.369  27.882  37.608  1.00  0.00     0.115 C
HETATM    5  N5  UNL     1      78.057  28.864  38.590  1.00  0.00    -0.420 N
ATOM      6  H5  UNL     1      77.828  29.826  38.344  1.00  0.00     0.153 HD
HETATM    7  C7  UNL     1      78.088  28.407  39.954  1.00  0.00     0.133 C
HETATM    8  C8  UNL     1      77.255  27.207  40.239  1.00  0.00     0.141 C
ENDROOT
BRANCH   1   9
HETATM    9  C3  UNL     1      77.738  25.029  41.029  1.00  0.00     0.077 C
BRANCH   9  10
HETATM   10  C2  UNL     1      77.903  25.279  42.485  1.00  0.00     0.166 C
BRANCH  10  11
HETATM   11  N3  UNL     1      76.847  26.237  42.853  1.00  0.00    -0.362 N
HETATM   12  C1  UNL     1      76.305  26.195  44.023  1.00  0.00     0.197 C
HETATM   13  N1  UNL     1      76.625  25.290  45.042  1.00  0.00    -0.067 NA
HETATM   14  N2  UNL     1      75.289  27.164  44.290  1.00  0.00    -0.067 NA
ATOM     15  H3  UNL     1      76.542  26.938  42.178  1.00  0.00     0.162 HD
ENDBRANCH  10  11
ENDBRANCH   9  10
ENDBRANCH   1   9
TORSDOF 3
ENDMDL