MODEL 1
REMARK VINA RESULT: -5.542679064      0.000      0.000
REMARK  4 active torsions:
REMARK  status: ('A' for Active; 'I' for Inactive)
REMARK    1  A    between atoms: C1_2  and  N2_4
REMARK    2  A    between atoms: N2_4  and  C2_6
REMARK    3  A    between atoms: C2_6  and  C3_7
REMARK    4  A    between atoms: C3_7  and  N3_8
ROOT
HETATM    1  N3  UNL     1      77.308  27.814  39.045  1.00  0.00     0.093 N
HETATM    2  C4  UNL     1      77.070  26.358  39.130  1.00  0.00     0.300 C
HETATM    3  C5  UNL     1      78.262  25.528  39.406  1.00  0.00     0.262 C
HETATM    4  N4  UNL     1      79.206  25.605  38.299  1.00  0.00    -0.072 N
ATOM      5  H41 UNL     1      78.986  24.969  37.532  1.00  0.00     0.277 HD
ATOM      6  H42 UNL     1      80.124  25.219  38.521  1.00  0.00     0.277 HD
HETATM    7  C6  UNL     1      79.248  26.987  37.901  1.00  0.00     0.262 C
HETATM    8  C7  UNL     1      78.769  27.908  39.027  1.00  0.00     0.300 C
ENDROOT
BRANCH   1   9
HETATM    9  C3  UNL     1      76.763  28.435  40.225  1.00  0.00     0.292 C
BRANCH   9  10
HETATM   10  C2  UNL     1      77.123  27.971  41.561  1.00  0.00     0.152 C
BRANCH  10  11
HETATM   11  N2  UNL     1      76.119  27.599  42.512  1.00  0.00    -0.368 N
ATOM     12  H2  UNL     1      75.199  28.041  42.510  1.00  0.00     0.161 HD
BRANCH  11  13
HETATM   13  C1  UNL     1      76.457  26.566  43.481  1.00  0.00     0.181 C
HETATM   14  N1  UNL     1      75.616  26.330  44.604  1.00  0.00    -0.070 NA
HETATM   15  S1  UNL     1      77.800  25.649  43.300  1.00  0.00    -0.044 SA
ENDBRANCH  11  13
ENDBRANCH  10  11
ENDBRANCH   9  10
ENDBRANCH   1   9
TORSDOF 4
ENDMDL