MODEL 4
REMARK VINA RESULT: -4.588191676      2.198      3.857
REMARK  3 active torsions:
REMARK  status: ('A' for Active; 'I' for Inactive)
REMARK       I    between atoms: N3_4  and  C2_6
REMARK    1  A    between atoms: N5_8  and  C3_10
REMARK    2  A    between atoms: C3_10  and  C4_11
REMARK    3  A    between atoms: C4_11  and  N6_12
ROOT
HETATM    1  N1  UNL     1      79.610  22.988  41.917  1.00  0.00    -0.066 NA
HETATM    2  C1  UNL     1      78.732  23.963  41.361  1.00  0.00     0.203 C
HETATM    3  N2  UNL     1      77.560  24.313  42.086  1.00  0.00    -0.066 NA
HETATM    4  N3  UNL     1      79.042  24.478  40.229  1.00  0.00    -0.307 N
ATOM      5  H3  UNL     1      79.903  24.166  39.780  1.00  0.00     0.170 HD
HETATM    6  C2  UNL     1      78.264  25.452  39.567  1.00  0.00     0.190 C
HETATM    7  N4  UNL     1      76.859  25.348  39.582  1.00  0.00    -0.063 NA
HETATM    8  N5  UNL     1      78.831  26.420  38.957  1.00  0.00    -0.363 N
ATOM      9  H5  UNL     1      79.848  26.491  38.948  1.00  0.00     0.162 HD
ENDROOT
BRANCH   8  10
HETATM   10  C3  UNL     1      78.031  27.418  38.278  1.00  0.00     0.152 C
BRANCH  10  11
HETATM   11  C4  UNL     1      78.018  28.729  39.074  1.00  0.00     0.292 C
BRANCH  11  12
HETATM   12  N6  UNL     1      76.792  28.718  39.842  1.00  0.00     0.090 N
HETATM   13  C5  UNL     1      76.380  30.017  40.345  1.00  0.00     0.274 C
HETATM   14  C6  UNL     1      75.820  29.263  41.554  1.00  0.00     0.060 C
HETATM   15  C7  UNL     1      76.991  28.342  41.243  1.00  0.00     0.274 C
ENDBRANCH  11  12
ENDBRANCH  10  11
ENDBRANCH   8  10
TORSDOF 3
ENDMDL