MODEL 5
REMARK VINA RESULT: -5.452238506      1.788      4.559
REMARK  3 active torsions:
REMARK  status: ('A' for Active; 'I' for Inactive)
REMARK    1  A    between atoms: N2_6  and  C5_7
REMARK    2  A    between atoms: C5_7  and  C6_8
REMARK    3  A    between atoms: C6_8  and  N3_9
REMARK       I    between atoms: N3_9  and  C7_11
ROOT
HETATM    1  C1  UNL     1      77.321  25.791  43.256  1.00  0.00     0.037 C
HETATM    2  C2  UNL     1      77.199  26.777  42.560  1.00  0.00    -0.002 C
HETATM    3  N1  UNL     1      77.077  27.903  41.755  1.00  0.00    -0.314 N
HETATM    4  C3  UNL     1      76.009  28.880  41.738  1.00  0.00     0.165 C
HETATM    5  C4  UNL     1      76.200  29.679  40.465  1.00  0.00     0.295 C
HETATM    6  N2  UNL     1      77.233  29.025  39.756  1.00  0.00     0.109 N
HETATM    7  C8  UNL     1      78.045  28.322  40.733  1.00  0.00     0.405 C
ENDROOT
BRANCH   6   8
HETATM    8  C5  UNL     1      76.878  28.208  38.645  1.00  0.00     0.294 C
BRANCH   8   9
HETATM    9  C6  UNL     1      78.038  27.293  38.318  1.00  0.00     0.152 C
BRANCH   9  10
HETATM   10  N3  UNL     1      77.662  25.898  38.316  1.00  0.00    -0.363 N
HETATM   11  C7  UNL     1      78.606  24.945  38.765  1.00  0.00     0.181 C
HETATM   12  N4  UNL     1      79.376  24.358  37.892  1.00  0.00    -0.374 N
HETATM   13  N5  UNL     1      78.751  24.603  40.129  1.00  0.00    -0.064 NA
ATOM     14  H42 UNL     1      79.272  24.605  36.908  1.00  0.00     0.158 HD
ATOM     15  H41 UNL     1      80.057  23.672  38.216  1.00  0.00     0.158 HD
ATOM     16  H3  UNL     1      76.737  25.607  37.999  1.00  0.00     0.162 HD
ENDBRANCH   9  10
ENDBRANCH   8   9
ENDBRANCH   6   8
TORSDOF 3
ENDMDL