MODEL 1
REMARK VINA RESULT: -6.061923410      0.000      0.000
REMARK  3 active torsions:
REMARK  status: ('A' for Active; 'I' for Inactive)
REMARK       I    between atoms: C2_5  and  N4_7
REMARK    1  A    between atoms: N4_7  and  C3_9
REMARK    2  A    between atoms: C3_9  and  C4_10
REMARK    3  A    between atoms: C4_10  and  N5_11
ROOT
HETATM    1  N1  UNL     1      75.718  25.996  45.026  1.00  0.00    -0.172 NA
HETATM    2  C1  UNL     1      75.800  26.687  44.093  1.00  0.00     0.184 C
HETATM    3  N2  UNL     1      75.869  27.532  42.969  1.00  0.00    -0.268 N
ATOM      4  H2  UNL     1      75.101  28.181  42.798  1.00  0.00     0.180 HD
HETATM    5  C2  UNL     1      76.852  27.522  42.153  1.00  0.00     0.197 C
HETATM    6  N3  UNL     1      77.940  26.663  42.320  1.00  0.00    -0.063 NA
HETATM    7  N4  UNL     1      76.782  28.429  41.069  1.00  0.00    -0.362 N
ATOM      8  H4  UNL     1      75.877  28.810  40.793  1.00  0.00     0.162 HD
ENDROOT
BRANCH   7   9
HETATM    9  C3  UNL     1      77.976  28.828  40.342  1.00  0.00     0.152 C
BRANCH   9  10
HETATM   10  C4  UNL     1      77.634  28.835  38.872  1.00  0.00     0.292 C
BRANCH  10  11
HETATM   11  N5  UNL     1      77.964  27.565  38.255  1.00  0.00     0.093 N
HETATM   12  C5  UNL     1      76.906  26.590  38.481  1.00  0.00     0.300 C
HETATM   13  C6  UNL     1      77.285  25.390  39.241  1.00  0.00     0.262 C
HETATM   14  N6  UNL     1      78.549  24.797  38.896  1.00  0.00    -0.072 N
HETATM   15  C7  UNL     1      79.346  25.640  38.031  1.00  0.00     0.262 C
ATOM     16  H62 UNL     1      79.071  24.536  39.732  1.00  0.00     0.277 HD
ATOM     17  H61 UNL     1      78.419  23.872  38.486  1.00  0.00     0.277 HD
HETATM   18  C8  UNL     1      79.256  27.058  38.611  1.00  0.00     0.300 C
ENDBRANCH  10  11
ENDBRANCH   9  10
ENDBRANCH   7   9
TORSDOF 3
ENDMDL