MODEL 4
REMARK VINA RESULT: -6.157123874      2.395      3.410
REMARK  4 active torsions:
REMARK  status: ('A' for Active; 'I' for Inactive)
REMARK    1  A    between atoms: C5_5  and  C6_6
REMARK    2  A    between atoms: C6_6  and  N1_7
REMARK    3  A    between atoms: C6_6  and  C8_12
REMARK    4  A    between atoms: C8_12  and  N4_13
ROOT
HETATM    1  C1  UNL     1      79.406  24.282  38.081  1.00  0.00     0.012 C
HETATM    2  C2  UNL     1      78.571  24.914  38.687  1.00  0.00    -0.112 C
HETATM    3  C3  UNL     1      77.543  25.691  39.405  1.00  0.00     0.071 A
HETATM    4  C4  UNL     1      77.055  26.969  38.762  1.00  0.00     0.025 A
HETATM    5  C5  UNL     1      77.906  27.047  39.949  1.00  0.00     0.028 A
ENDROOT
BRANCH   5   6
HETATM    6  C6  UNL     1      77.336  27.458  41.285  1.00  0.00     0.133 C
BRANCH   6   7
HETATM    7  N1  UNL     1      76.320  28.456  41.124  1.00  0.00    -0.359 N
HETATM    8  C7  UNL     1      76.521  29.598  40.555  1.00  0.00     0.197 C
HETATM    9  N2  UNL     1      75.459  30.537  40.434  1.00  0.00    -0.067 NA
HETATM   10  N3  UNL     1      77.802  29.938  40.041  1.00  0.00    -0.067 NA
ATOM     11  H1  UNL     1      75.386  28.252  41.479  1.00  0.00     0.162 HD
ENDBRANCH   6   7
BRANCH   6  12
HETATM   12  C8  UNL     1      76.828  26.253  42.025  1.00  0.00     0.311 C
HETATM   13  C9  UNL     1      77.890  25.790  42.958  1.00  0.00     0.094 C
HETATM   14  N5  UNL     1      78.724  25.447  43.675  1.00  0.00    -0.195 NA
BRANCH  12  15
HETATM   15  N4  UNL     1      75.658  26.512  42.800  1.00  0.00    -0.061 N
ATOM     16  H43 UNL     1      75.805  27.307  43.421  1.00  0.00     0.276 HD
ATOM     17  H42 UNL     1      74.914  26.889  42.214  1.00  0.00     0.276 HD
ATOM     18  H41 UNL     1      75.328  25.700  43.322  1.00  0.00     0.276 HD
ENDBRANCH  12  15
ENDBRANCH   6  12
ENDBRANCH   5   6
TORSDOF 4
ENDMDL