MODEL 3
REMARK VINA RESULT: -4.306496658      2.329      3.545
REMARK  4 active torsions:
REMARK  status: ('A' for Active; 'I' for Inactive)
REMARK       I    between atoms: C1_4  and  N3_6
REMARK    1  A    between atoms: N4_9  and  C4_10
REMARK    2  A    between atoms: C4_10  and  C5_11
REMARK    3  A    between atoms: C5_11  and  C6_12
REMARK    4  A    between atoms: C6_12  and  N5_13
ROOT
HETATM    1  N1  UNL     1      77.961  29.988  39.786  1.00  0.00    -0.374 N
ATOM      2  H11 UNL     1      78.850  29.523  39.603  1.00  0.00     0.158 HD
ATOM      3  H12 UNL     1      77.840  30.970  39.535  1.00  0.00     0.158 HD
HETATM    4  C1  UNL     1      76.999  29.341  40.329  1.00  0.00     0.184 C
HETATM    5  N2  UNL     1      75.769  29.984  40.581  1.00  0.00    -0.064 NA
HETATM    6  N3  UNL     1      77.164  27.992  40.674  1.00  0.00    -0.353 N
HETATM    7  C2  UNL     1      77.182  26.882  39.734  1.00  0.00     0.156 C
HETATM    8  C3  UNL     1      77.708  25.640  40.356  1.00  0.00     0.292 C
HETATM    9  N4  UNL     1      77.001  25.208  41.576  1.00  0.00     0.091 N
HETATM   10  C7  UNL     1      76.372  26.360  42.184  1.00  0.00     0.292 C
HETATM   11  C8  UNL     1      77.345  27.544  42.069  1.00  0.00     0.156 C
ENDROOT
BRANCH   9  12
HETATM   12  C4  UNL     1      77.915  24.596  42.478  1.00  0.00     0.274 C
BRANCH  12  13
HETATM   13  C5  UNL     1      79.284  24.389  41.973  1.00  0.00     0.057 C
BRANCH  13  14
HETATM   14  C6  UNL     1      79.803  23.001  41.882  1.00  0.00     0.231 C
BRANCH  14  15
HETATM   15  N5  UNL     1      79.769  22.587  40.450  1.00  0.00    -0.079 N
ATOM     16  H53 UNL     1      79.739  21.574  40.333  1.00  0.00     0.274 HD
ATOM     17  H52 UNL     1      78.879  22.803  39.999  1.00  0.00     0.274 HD
ATOM     18  H51 UNL     1      80.565  23.015  39.977  1.00  0.00     0.274 HD
ENDBRANCH  14  15
ENDBRANCH  13  14
ENDBRANCH  12  13
ENDBRANCH   9  12
TORSDOF 4
ENDMDL