MODEL 3
REMARK VINA RESULT: -4.056659632      1.212      2.253
REMARK  4 active torsions:
REMARK  status: ('A' for Active; 'I' for Inactive)
REMARK    1  A    between atoms: N1_1  and  C1_5
REMARK    2  A    between atoms: C1_5  and  C2_6
REMARK    3  A    between atoms: C2_6  and  N2_7
REMARK       I    between atoms: C3_9  and  N4_11
REMARK    4  A    between atoms: C5_13  and  N5_14
ROOT
HETATM    1  N2  UNL     1      77.910  25.879  42.798  1.00  0.00    -0.363 N
ATOM      2  H2  UNL     1      78.529  25.127  42.495  1.00  0.00     0.162 HD
HETATM    3  C3  UNL     1      77.419  26.669  41.909  1.00  0.00     0.186 C
HETATM    4  N3  UNL     1      76.555  27.715  42.354  1.00  0.00    -0.064 NA
HETATM    5  N4  UNL     1      77.737  26.488  40.550  1.00  0.00    -0.349 N
HETATM    6  C4  UNL     1      77.211  25.438  39.714  1.00  0.00     0.159 C
HETATM    7  C5  UNL     1      77.935  25.546  38.391  1.00  0.00     0.207 C
HETATM    8  C6  UNL     1      78.648  26.851  38.395  1.00  0.00     0.042 A
HETATM    9  C7  UNL     1      77.965  28.128  38.705  1.00  0.00     0.034 A
HETATM   10  C8  UNL     1      78.628  27.312  39.793  1.00  0.00     0.093 A
ENDROOT
BRANCH   1  11
HETATM   11  C2  UNL     1      77.622  26.013  44.209  1.00  0.00     0.149 C
BRANCH  11  12
HETATM   12  C1  UNL     1      76.126  25.880  44.493  1.00  0.00     0.249 C
BRANCH  12  13
HETATM   13  N1  UNL     1      75.705  27.126  45.086  1.00  0.00    -0.078 N
ATOM     14  H13 UNL     1      76.305  27.432  45.851  1.00  0.00     0.274 HD
ATOM     15  H12 UNL     1      75.852  27.932  44.477  1.00  0.00     0.274 HD
ATOM     16  H11 UNL     1      74.730  27.005  45.363  1.00  0.00     0.274 HD
ENDBRANCH  12  13
ENDBRANCH  11  12
ENDBRANCH   1  11
BRANCH   7  17
HETATM   17  N5  UNL     1      78.926  24.490  38.251  1.00  0.00    -0.073 N
ATOM     18  H53 UNL     1      79.294  24.196  39.155  1.00  0.00     0.274 HD
ATOM     19  H52 UNL     1      78.499  23.609  37.964  1.00  0.00     0.274 HD
ATOM     20  H51 UNL     1      79.672  24.770  37.615  1.00  0.00     0.274 HD
ENDBRANCH   7  17
TORSDOF 4
ENDMDL