MODEL 5
REMARK VINA RESULT: -7.855468880      2.439      3.060
REMARK  3 active torsions:
REMARK  status: ('A' for Active; 'I' for Inactive)
REMARK    1  A    between atoms: N1_2  and  C2_3
REMARK    2  A    between atoms: N1_2  and  C9_22
REMARK    3  A    between atoms: C3_8  and  C4_9
ROOT
HETATM    1  C2  UNL     1      16.535  22.715  43.537  1.00  0.00     0.157 A
HETATM    2  N2  UNL     1      16.623  21.965  44.636  1.00  0.00    -0.281 N
ATOM      3  H2  UNL     1      15.771  21.691  45.124  1.00  0.00     0.188 HD
HETATM    4  N3  UNL     1      17.786  21.573  45.103  1.00  0.00    -0.284 N
ATOM      5  H3  UNL     1      17.802  21.000  45.947  1.00  0.00     0.188 HD
HETATM    6  C3  UNL     1      18.976  21.894  44.513  1.00  0.00     0.122 A
HETATM    7  N5  UNL     1      18.865  22.649  43.409  1.00  0.00    -0.329 N
ATOM      8  H5  UNL     1      19.728  22.912  42.934  1.00  0.00     0.168 HD
HETATM    9  C8  UNL     1      17.715  23.083  42.881  1.00  0.00     0.147 A
HETATM   10  S2  UNL     1      17.661  23.996  41.535  1.00  0.00    -0.056 SA
ENDROOT
BRANCH   6  11
HETATM   11  C4  UNL     1      20.214  21.415  45.085  1.00  0.00     0.074 C
HETATM   12  C5  UNL     1      21.066  22.170  45.755  1.00  0.00     0.081 A
HETATM   13  S1  UNL     1      20.917  23.928  46.118  1.00  0.00    -0.024 SA
HETATM   14  C7  UNL     1      22.324  21.787  46.364  1.00  0.00     0.266 A
HETATM   15  C6  UNL     1      22.514  24.101  46.888  1.00  0.00     0.291 A
HETATM   16  O1  UNL     1      22.998  25.179  47.277  1.00  0.00    -0.260 OA
HETATM   17  N4  UNL     1      23.056  22.812  46.945  1.00  0.00    -0.283 N
ATOM     18  H4  UNL     1      23.954  22.633  47.396  1.00  0.00     0.172 HD
HETATM   19  O2  UNL     1      22.681  20.548  46.331  1.00  0.00    -0.267 OA
ENDBRANCH   6  11
BRANCH   1  20
HETATM   20  N1  UNL     1      15.270  23.105  43.051  1.00  0.00    -0.363 N
HETATM   21  C1  UNL     1      14.703  24.386  43.421  1.00  0.00     0.152 C
BRANCH  20  22
HETATM   22  C9  UNL     1      14.508  22.248  42.195  1.00  0.00     0.085 C
HETATM   23  C10 UNL     1      14.319  22.836  40.824  1.00  0.00     0.025 C
HETATM   24  C11 UNL     1      13.663  21.790  39.924  1.00  0.00     0.002 C
HETATM   25  C12 UNL     1      12.330  21.362  40.525  1.00  0.00     0.000 C
HETATM   26  C13 UNL     1      12.533  20.824  41.924  1.00  0.00     0.002 C
HETATM   27  C14 UNL     1      13.122  21.930  42.768  1.00  0.00     0.025 C
ENDBRANCH  20  22
ENDBRANCH   1  20
TORSDOF 3
ENDMDL