MODEL 5
REMARK VINA RESULT: -8.192284126      3.577      8.449
REMARK  3 active torsions:
REMARK  status: ('A' for Active; 'I' for Inactive)
REMARK    1  A    between atoms: C2_2  and  S1_3
REMARK    2  A    between atoms: S1_3  and  C3_4
REMARK    3  A    between atoms: C6_12  and  C7_13
ROOT
HETATM    1  C3  UNL     1      19.594  23.153  45.058  1.00  0.00     0.152 A
HETATM    2  N1  UNL     1      18.842  23.188  46.198  1.00  0.00    -0.323 N
ATOM      3  H1  UNL     1      19.308  23.302  47.098  1.00  0.00     0.169 HD
HETATM    4  C4  UNL     1      17.497  23.077  46.161  1.00  0.00     0.149 A
HETATM    5  N2  UNL     1      16.701  23.113  47.336  1.00  0.00    -0.080 NA
HETATM    6  C5  UNL     1      16.943  22.925  44.895  1.00  0.00     0.120 A
HETATM    7  N3  UNL     1      15.679  22.791  44.533  1.00  0.00    -0.339 N
ATOM      8  H3  UNL     1      14.886  22.781  45.175  1.00  0.00     0.167 HD
HETATM    9  C6  UNL     1      15.590  22.671  43.198  1.00  0.00     0.092 A
HETATM   10  N4  UNL     1      16.848  22.729  42.681  1.00  0.00    -0.329 N
ATOM     11  H4  UNL     1      17.111  22.667  41.698  1.00  0.00     0.168 HD
HETATM   12  C17 UNL     1      17.681  22.887  43.740  1.00  0.00     0.139 A
HETATM   13  N5  UNL     1      19.030  23.005  43.842  1.00  0.00    -0.321 N
ATOM     14  H5  UNL     1      19.612  22.981  43.005  1.00  0.00     0.169 HD
ENDROOT
BRANCH   9  15
HETATM   15  C7  UNL     1      14.344  22.500  42.450  1.00  0.00     0.019 C
HETATM   16  C8  UNL     1      13.264  23.338  43.101  1.00  0.00     0.022 C
HETATM   17  C9  UNL     1      11.951  23.093  42.393  1.00  0.00    -0.013 C
HETATM   18  C10 UNL     1      11.608  21.640  42.519  1.00  0.00     0.009 C
HETATM   19  C14 UNL     1      12.109  23.534  40.959  1.00  0.00     0.009 C
HETATM   20  C11 UNL     1      12.625  20.804  41.770  1.00  0.00    -0.013 C
HETATM   21  C12 UNL     1      12.717  21.259  40.338  1.00  0.00     0.009 C
HETATM   22  C16 UNL     1      13.961  21.031  42.433  1.00  0.00     0.022 C
HETATM   23  C13 UNL     1      13.179  22.678  40.298  1.00  0.00    -0.013 C
HETATM   24  C15 UNL     1      14.469  22.920  41.007  1.00  0.00     0.022 C
ENDBRANCH   9  15
BRANCH   1  25
HETATM   25  S1  UNL     1      21.373  23.305  45.170  1.00  0.00    -0.021 SA
BRANCH  25  26
HETATM   26  C2  UNL     1      22.044  21.872  46.079  1.00  0.00     0.281 A
HETATM   27  C1  UNL     1      22.144  22.065  47.588  1.00  0.00     0.098 C
HETATM   28  O1  UNL     1      22.127  20.670  45.561  1.00  0.00    -0.182 OA
HETATM   29  O2  UNL     1      23.230  21.390  45.516  1.00  0.00    -0.182 OA
ENDBRANCH  25  26
ENDBRANCH   1  25
TORSDOF 3
ENDMDL