MODEL 3
REMARK VINA RESULT: -6.869052641      2.340      4.586
REMARK  5 active torsions:
REMARK  status: ('A' for Active; 'I' for Inactive)
REMARK    1  A    between atoms: C4_4  and  C5_5
REMARK    2  A    between atoms: C5_5  and  C7_8
REMARK    3  A    between atoms: C7_8  and  O2_10
REMARK    4  A    between atoms: O2_10  and  C8_11
REMARK    5  A    between atoms: C10_13  and  O3_14
ROOT
HETATM    1  C5  UNL     1      21.162  22.067  45.363  1.00  0.00     0.215 C
HETATM    2  C6  UNL     1      21.654  23.063  44.478  1.00  0.00     0.078 C
HETATM    3  N1  UNL     1      22.039  23.867  43.722  1.00  0.00    -0.196 NA
ENDROOT
BRANCH   1   4
HETATM    4  C4  UNL     1      21.719  22.024  46.718  1.00  0.00     0.004 C
HETATM    5  C2  UNL     1      22.599  21.224  47.257  1.00  0.00    -0.090 C
HETATM    6  C1  UNL     1      22.954  21.469  48.715  1.00  0.00     0.042 C
HETATM    7  C3  UNL     1      23.313  20.102  46.630  1.00  0.00     0.042 C
ENDBRANCH   1   4
BRANCH   1   8
HETATM    8  C7  UNL     1      19.653  22.176  45.463  1.00  0.00     0.281 C
HETATM    9  O1  UNL     1      19.086  21.635  46.423  1.00  0.00    -0.263 OA
BRANCH   8  10
HETATM   10  O2  UNL     1      18.927  22.840  44.540  1.00  0.00    -0.306 OA
BRANCH  10  11
HETATM   11  C8  UNL     1      18.040  22.284  43.606  1.00  0.00     0.102 C
HETATM   12  C9  UNL     1      18.469  20.952  43.075  1.00  0.00     0.050 C
HETATM   13  C10 UNL     1      18.358  23.215  42.384  1.00  0.00     0.153 C
HETATM   14  C11 UNL     1      17.428  22.912  41.260  1.00  0.00     0.035 C
HETATM   15  C12 UNL     1      16.122  23.508  41.722  1.00  0.00     0.011 C
HETATM   16  C13 UNL     1      15.631  22.700  42.881  1.00  0.00     0.036 C
HETATM   17  C14 UNL     1      14.409  23.509  43.360  1.00  0.00     0.093 C
HETATM   18  C18 UNL     1      16.599  22.412  43.979  1.00  0.00     0.021 C
HETATM   19  C15 UNL     1      13.375  22.676  44.037  1.00  0.00     0.049 C
HETATM   20  C16 UNL     1      13.714  24.112  42.131  1.00  0.00     0.049 C
HETATM   21  O4  UNL     1      14.831  24.511  44.199  1.00  0.00    -0.230 OA
HETATM   22  O5  UNL     1      15.204  23.906  45.304  1.00  0.00    -0.239 OA
HETATM   23  C17 UNL     1      16.499  23.442  45.105  1.00  0.00     0.222 C
HETATM   24  C19 UNL     1      16.165  21.107  44.615  1.00  0.00     0.021 C
BRANCH  13  25
HETATM   25  O3  UNL     1      19.659  23.032  41.975  1.00  0.00    -0.393 OA
ATOM     26  H3  UNL     1      19.684  22.479  41.203  1.00  0.00     0.210 HD
ENDBRANCH  13  25
ENDBRANCH  10  11
ENDBRANCH   8  10
ENDBRANCH   1   8
TORSDOF 5
ENDMDL