MODEL 4
REMARK VINA RESULT: -8.211094853      2.506      4.151
REMARK  3 active torsions:
REMARK  status: ('A' for Active; 'I' for Inactive)
REMARK    1  A    between atoms: C3_6  and  C4_7
REMARK    2  A    between atoms: N5_18  and  C8_19
REMARK    3  A    between atoms: C13_24  and  C14_25
ROOT
HETATM    1  C4  UNL     1      16.299  22.768  43.314  1.00  0.00     0.163 A
HETATM    2  N2  UNL     1      15.070  22.356  43.655  1.00  0.00    -0.325 N
ATOM      3  H2  UNL     1      14.879  22.031  44.603  1.00  0.00     0.169 HD
HETATM    4  C5  UNL     1      14.085  22.376  42.725  1.00  0.00     0.116 A
HETATM    5  N3  UNL     1      12.889  21.973  43.061  1.00  0.00    -0.385 N
ATOM      6  H31 UNL     1      12.148  21.989  42.360  1.00  0.00     0.157 HD
ATOM      7  H32 UNL     1      12.717  21.652  44.014  1.00  0.00     0.157 HD
HETATM    8  C6  UNL     1      14.318  22.809  41.441  1.00  0.00     0.070 A
HETATM    9  C7  UNL     1      13.561  22.949  40.302  1.00  0.00     0.126 A
HETATM   10  N4  UNL     1      14.371  23.440  39.328  1.00  0.00    -0.307 N
ATOM     11  H4  UNL     1      14.077  23.644  38.373  1.00  0.00     0.186 HD
HETATM   12  N5  UNL     1      15.594  23.615  39.796  1.00  0.00    -0.271 N
HETATM   13  C18 UNL     1      15.587  23.232  41.105  1.00  0.00     0.139 A
HETATM   14  N6  UNL     1      16.527  23.192  42.061  1.00  0.00    -0.323 N
ATOM     15  H6  UNL     1      17.469  23.502  41.822  1.00  0.00     0.169 HD
ENDROOT
BRANCH  12  16
HETATM   16  C8  UNL     1      16.749  24.118  39.084  1.00  0.00     0.114 C
HETATM   17  C9  UNL     1      16.607  25.642  39.081  1.00  0.00     0.028 C
HETATM   18  C10 UNL     1      15.631  26.098  38.037  1.00  0.00     0.002 C
HETATM   19  C11 UNL     1      16.248  25.840  36.683  1.00  0.00     0.001 C
HETATM   20  C12 UNL     1      17.266  24.722  36.777  1.00  0.00     0.007 C
HETATM   21  C13 UNL     1      16.712  23.643  37.684  1.00  0.00     0.018 C
BRANCH  21  22
HETATM   22  C14 UNL     1      17.381  22.333  37.426  1.00  0.00    -0.046 C
HETATM   23  C15 UNL     1      18.266  21.843  38.503  1.00  0.00     0.015 C
HETATM   24  C16 UNL     1      18.206  22.445  36.138  1.00  0.00     0.015 C
HETATM   25  C17 UNL     1      16.331  21.270  37.161  1.00  0.00     0.015 C
ENDBRANCH  21  22
ENDBRANCH  12  16
BRANCH   1  26
HETATM   26  C3  UNL     1      17.383  22.751  44.319  1.00  0.00     0.216 A
HETATM   27  O1  UNL     1      17.366  23.360  45.458  1.00  0.00    -0.214 OA
HETATM   28  N1  UNL     1      18.486  23.137  46.108  1.00  0.00    -0.247 N
HETATM   29  C2  UNL     1      19.255  22.351  45.352  1.00  0.00     0.100 A
ATOM     30  H1  UNL     1      18.726  23.501  47.029  1.00  0.00     0.196 HD
HETATM   31  C1  UNL     1      20.596  21.877  45.737  1.00  0.00     0.091 C
HETATM   32  N7  UNL     1      18.548  22.115  44.226  1.00  0.00    -0.321 N
ATOM     33  H7  UNL     1      18.855  21.545  43.438  1.00  0.00     0.169 HD
ENDBRANCH   1  26
TORSDOF 3
ENDMDL