MODEL 5
REMARK VINA RESULT: -6.867907283      2.284      5.517
REMARK  6 active torsions:
REMARK  status: ('A' for Active; 'I' for Inactive)
REMARK    1  A    between atoms: C3_3  and  N1_4
REMARK    2  A    between atoms: N1_4  and  N2_5
REMARK    3  A    between atoms: C4_6  and  S1_7
REMARK    4  A    between atoms: C6_13  and  C7_14
REMARK       I    between atoms: C7_14  and  N5_16
REMARK    5  A    between atoms: N5_16  and  C8_18
REMARK    6  A    between atoms: C17_27  and  O2_28
ROOT
HETATM    1  N2  UNL     1      14.134  22.766  43.591  1.00  0.00    -0.143 N
HETATM    2  C4  UNL     1      13.293  23.014  44.642  1.00  0.00     0.194 A
HETATM    3  N3  UNL     1      12.077  23.322  44.204  1.00  0.00    -0.276 N
ATOM      4  H3  UNL     1      11.270  23.548  44.785  1.00  0.00     0.189 HD
HETATM    5  N4  UNL     1      12.098  23.283  42.906  1.00  0.00    -0.277 N
ATOM      6  H4  UNL     1      11.304  23.476  42.296  1.00  0.00     0.189 HD
HETATM    7  C6  UNL     1      13.338  22.946  42.495  1.00  0.00     0.225 A
ENDROOT
BRANCH   1   8
HETATM    8  N1  UNL     1      15.381  22.441  43.646  1.00  0.00    -0.319 NA
BRANCH   8   9
HETATM    9  C3  UNL     1      16.552  22.312  43.756  1.00  0.00     0.118 C
HETATM   10  C2  UNL     1      17.170  21.126  44.403  1.00  0.00    -0.000 C
HETATM   11  C1  UNL     1      16.578  19.941  44.346  1.00  0.00     0.024 C
HETATM   12  C17 UNL     1      18.459  21.344  45.103  1.00  0.00     0.154 C
HETATM   13  C16 UNL     1      19.432  22.197  44.352  1.00  0.00     0.045 C
HETATM   14  C13 UNL     1      18.864  22.711  43.033  1.00  0.00    -0.039 C
HETATM   15  C12 UNL     1      17.517  23.355  43.243  1.00  0.00     0.084 C
HETATM   16  C14 UNL     1      19.846  23.757  42.535  1.00  0.00     0.015 C
HETATM   17  C15 UNL     1      18.857  21.584  42.048  1.00  0.00     0.015 C
BRANCH  12  18
HETATM   18  O2  UNL     1      18.271  21.894  46.371  1.00  0.00    -0.391 OA
ATOM     19  H2  UNL     1      18.599  22.784  46.420  1.00  0.00     0.210 HD
ENDBRANCH  12  18
ENDBRANCH   8   9
ENDBRANCH   1   8
BRANCH   2  20
HETATM   20  S1  UNL     1      13.785  22.930  46.339  1.00  0.00    -0.094 SA
HETATM   21  C5  UNL     1      15.269  23.926  46.578  1.00  0.00     0.099 C
ENDBRANCH   2  20
BRANCH   7  22
HETATM   22  C7  UNL     1      13.783  22.796  41.124  1.00  0.00     0.290 C
HETATM   23  O1  UNL     1      13.088  22.115  40.340  1.00  0.00    -0.264 OA
HETATM   24  N5  UNL     1      14.985  23.422  40.717  1.00  0.00    -0.346 N
ATOM     25  H5  UNL     1      15.511  23.967  41.400  1.00  0.00     0.163 HD
BRANCH  24  26
HETATM   26  C8  UNL     1      15.497  23.319  39.361  1.00  0.00     0.022 C
HETATM   27  C9  UNL     1      14.984  24.415  38.467  1.00  0.00     0.037 C
HETATM   28  C10 UNL     1      17.005  23.436  39.383  1.00  0.00     0.037 C
HETATM   29  C11 UNL     1      15.172  21.966  38.757  1.00  0.00     0.037 C
ENDBRANCH  24  26
ENDBRANCH   7  22
TORSDOF 6
ENDMDL