MODEL 5
REMARK VINA RESULT: -7.092545057      1.553      2.194
REMARK  6 active torsions:
REMARK  status: ('A' for Active; 'I' for Inactive)
REMARK    1  A    between atoms: C3_4  and  N1_5
REMARK    2  A    between atoms: C6_10  and  N3_11
REMARK    3  A    between atoms: C11_22  and  C12_23
REMARK    4  A    between atoms: C12_23  and  O1_24
REMARK    5  A    between atoms: O1_24  and  C13_25
REMARK    6  A    between atoms: C13_25  and  C14_27
ROOT
HETATM    1  C1  UNL     1      16.594  20.545  44.455  1.00  0.00     0.022 C
HETATM    2  C2  UNL     1      17.929  21.049  43.991  1.00  0.00     0.051 C
HETATM    3  S1  UNL     1      18.858  21.663  45.431  1.00  0.00    -0.138 SA
HETATM    4  C3  UNL     1      20.331  22.501  44.743  1.00  0.00     0.154 C
HETATM    5  C9  UNL     1      19.830  23.469  43.708  1.00  0.00     0.037 C
HETATM    6  C10 UNL     1      19.128  22.729  42.626  1.00  0.00     0.011 C
HETATM    7  C11 UNL     1      17.812  22.157  42.999  1.00  0.00     0.024 C
ENDROOT
BRANCH   4   8
HETATM    8  N1  UNL     1      21.117  23.126  45.771  1.00  0.00    -0.313 N
HETATM    9  C4  UNL     1      21.126  24.414  46.149  1.00  0.00     0.186 A
HETATM   10  N2  UNL     1      22.002  24.607  47.152  1.00  0.00    -0.346 N
HETATM   11  C5  UNL     1      22.576  23.433  47.435  1.00  0.00     0.122 A
ATOM     12  H2  UNL     1      22.195  25.495  47.614  1.00  0.00     0.167 HD
HETATM   13  C6  UNL     1      23.529  23.067  48.359  1.00  0.00     0.131 A
HETATM   14  C8  UNL     1      22.013  22.506  46.560  1.00  0.00     0.141 A
HETATM   15  N4  UNL     1      23.905  21.780  48.396  1.00  0.00    -0.337 N
HETATM   16  C7  UNL     1      23.357  20.887  47.549  1.00  0.00     0.183 A
ATOM     17  H4  UNL     1      24.609  21.477  49.068  1.00  0.00     0.168 HD
HETATM   18  N5  UNL     1      22.427  21.244  46.647  1.00  0.00    -0.336 N
ATOM     19  H5  UNL     1      22.034  20.540  46.021  1.00  0.00     0.168 HD
BRANCH  13  20
HETATM   20  N3  UNL     1      24.056  23.901  49.167  1.00  0.00    -0.383 N
ATOM     21  H32 UNL     1      24.152  24.878  48.892  1.00  0.00     0.157 HD
ATOM     22  H31 UNL     1      24.391  23.632  50.092  1.00  0.00     0.157 HD
ENDBRANCH  13  20
ENDBRANCH   4   8
BRANCH   7  23
HETATM   23  C12 UNL     1      16.833  23.208  43.472  1.00  0.00     0.184 C
BRANCH  23  24
HETATM   24  O1  UNL     1      15.772  23.361  42.548  1.00  0.00    -0.320 OA
BRANCH  24  25
HETATM   25  C13 UNL     1      14.479  23.082  42.906  1.00  0.00     0.266 C
HETATM   26  O2  UNL     1      14.120  23.231  44.098  1.00  0.00    -0.264 OA
BRANCH  25  27
HETATM   27  C14 UNL     1      13.497  22.605  41.897  1.00  0.00     0.037 C
HETATM   28  C15 UNL     1      13.149  21.155  42.183  1.00  0.00     0.025 C
HETATM   29  C16 UNL     1      14.193  22.692  40.542  1.00  0.00     0.025 C
HETATM   30  C17 UNL     1      12.250  23.444  41.888  1.00  0.00     0.025 C
ENDBRANCH  25  27
ENDBRANCH  24  25
ENDBRANCH  23  24
ENDBRANCH   7  23
TORSDOF 6
ENDMDL