MODEL 5
REMARK VINA RESULT: -6.789535822      2.967      5.626
REMARK  3 active torsions:
REMARK  status: ('A' for Active; 'I' for Inactive)
REMARK    1  A    between atoms: C2_2  and  C3_3
REMARK    2  A    between atoms: C4_8  and  C5_9
REMARK    3  A    between atoms: C10_15  and  C11_16
ROOT
HETATM    1  C5  UNL     1      16.605  22.677  43.313  1.00  0.00     0.107 C
HETATM    2  C6  UNL     1      16.912  23.516  42.112  1.00  0.00    -0.053 C
HETATM    3  C7  UNL     1      18.321  23.924  41.969  1.00  0.00     0.045 C
HETATM    4  C8  UNL     1      16.032  23.889  41.215  1.00  0.00     0.037 C
HETATM    5  C9  UNL     1      16.580  24.698  40.148  1.00  0.00     0.096 C
HETATM    6  N3  UNL     1      17.002  25.360  39.268  1.00  0.00    -0.192 NA
HETATM    7  C10 UNL     1      14.569  23.632  41.083  1.00  0.00     0.110 C
HETATM    8  C15 UNL     1      13.838  23.356  42.331  1.00  0.00     0.154 C
HETATM    9  C16 UNL     1      13.413  21.946  42.456  1.00  0.00     0.071 C
HETATM   10  N4  UNL     1      13.065  20.839  42.580  1.00  0.00    -0.196 NA
HETATM   11  C17 UNL     1      14.461  23.803  43.574  1.00  0.00     0.018 C
HETATM   12  N5  UNL     1      13.750  24.579  44.291  1.00  0.00    -0.403 N
ATOM     13  H51 UNL     1      14.185  24.892  45.159  1.00  0.00     0.155 HD
ATOM     14  H52 UNL     1      12.848  24.749  43.846  1.00  0.00     0.155 HD
HETATM   15  C18 UNL     1      15.783  23.555  44.226  1.00  0.00     0.154 C
HETATM   16  C19 UNL     1      15.662  23.046  45.566  1.00  0.00     0.071 C
HETATM   17  N6  UNL     1      15.579  22.633  46.630  1.00  0.00    -0.196 NA
ENDROOT
BRANCH   7  18
HETATM   18  C11 UNL     1      14.329  22.577  40.078  1.00  0.00     0.063 A
HETATM   19  C12 UNL     1      15.155  22.209  39.029  1.00  0.00     0.035 A
HETATM   20  C13 UNL     1      14.515  21.184  38.363  1.00  0.00     0.027 A
HETATM   21  C14 UNL     1      13.316  20.965  39.034  1.00  0.00     0.142 A
HETATM   22  O1  UNL     1      13.267  21.814  40.030  1.00  0.00    -0.326 OA
ENDBRANCH   7  18
BRANCH   1  23
HETATM   23  C4  UNL     1      17.821  22.166  43.953  1.00  0.00     0.107 A
HETATM   24  N2  UNL     1      18.153  20.882  44.079  1.00  0.00    -0.287 N
HETATM   25  N1  UNL     1      19.310  20.840  44.714  1.00  0.00    -0.288 N
ATOM     26  H2  UNL     1      17.615  20.081  43.747  1.00  0.00     0.188 HD
HETATM   27  C3  UNL     1      19.712  22.085  44.989  1.00  0.00     0.096 A
ATOM     28  H1  UNL     1      19.819  19.990  44.957  1.00  0.00     0.188 HD
HETATM   29  N7  UNL     1      18.776  22.906  44.510  1.00  0.00    -0.333 N
ATOM     30  H7  UNL     1      18.791  23.925  44.562  1.00  0.00     0.168 HD
BRANCH  27  31
HETATM   31  C2  UNL     1      20.938  22.556  45.684  1.00  0.00     0.073 C
HETATM   32  C1  UNL     1      21.866  21.393  46.005  1.00  0.00     0.013 C
ENDBRANCH  27  31
ENDBRANCH   1  23
TORSDOF 3
ENDMDL