MODEL 5
REMARK VINA RESULT: -7.831457687      1.700      2.201
REMARK  3 active torsions:
REMARK  status: ('A' for Active; 'I' for Inactive)
REMARK    1  A    between atoms: C3_4  and  C4_5
REMARK    2  A    between atoms: N4_14  and  C7_16
REMARK    3  A    between atoms: C7_16  and  C8_17
ROOT
HETATM    1  N1  UNL     1      22.722  20.245  46.297  1.00  0.00    -0.191 NA
HETATM    2  C1  UNL     1      22.374  21.341  46.314  1.00  0.00     0.105 C
HETATM    3  C2  UNL     1      21.922  22.700  46.311  1.00  0.00     0.119 A
HETATM    4  C3  UNL     1      22.270  23.693  47.196  1.00  0.00     0.090 A
HETATM    5  N2  UNL     1      21.583  24.798  46.775  1.00  0.00    -0.296 N
ATOM      6  H2  UNL     1      21.620  25.715  47.219  1.00  0.00     0.187 HD
HETATM    7  N3  UNL     1      20.861  24.497  45.698  1.00  0.00    -0.284 N
ATOM      8  H3  UNL     1      20.262  25.154  45.199  1.00  0.00     0.188 HD
HETATM    9  C6  UNL     1      21.029  23.223  45.366  1.00  0.00     0.139 A
HETATM   10  N4  UNL     1      20.503  22.566  44.395  1.00  0.00    -0.368 N
ATOM     11  H4  UNL     1      20.735  21.580  44.274  1.00  0.00     0.161 HD
ENDROOT
BRANCH   4  12
HETATM   12  C4  UNL     1      23.183  23.620  48.360  1.00  0.00     0.048 A
HETATM   13  C5  UNL     1      23.921  24.525  49.048  1.00  0.00     0.079 A
HETATM   14  S1  UNL     1      24.729  23.705  50.278  1.00  0.00    -0.063 SA
HETATM   15  S2  UNL     1      23.673  22.332  49.314  1.00  0.00    -0.050 SA
ENDBRANCH   4  12
BRANCH  10  16
HETATM   16  C7  UNL     1      19.596  23.193  43.477  1.00  0.00     0.179 C
BRANCH  16  17
HETATM   17  C8  UNL     1      18.229  23.095  44.066  1.00  0.00     0.045 A
HETATM   18  C9  UNL     1      17.137  22.640  43.354  1.00  0.00     0.055 A
HETATM   19  C10 UNL     1      16.084  22.697  44.224  1.00  0.00     0.030 A
HETATM   20  N5  UNL     1      16.529  23.163  45.394  1.00  0.00    -0.296 N
HETATM   21  C15 UNL     1      14.706  22.300  43.879  1.00  0.00     0.059 C
HETATM   22  N6  UNL     1      17.812  23.402  45.303  1.00  0.00    -0.301 N
HETATM   23  C11 UNL     1      15.819  23.415  46.652  1.00  0.00     0.148 C
ATOM     24  H6  UNL     1      18.402  23.764  46.053  1.00  0.00     0.187 HD
HETATM   25  C12 UNL     1      14.472  22.731  46.638  1.00  0.00     0.022 C
HETATM   26  C13 UNL     1      13.476  23.420  45.768  1.00  0.00     0.002 C
HETATM   27  C14 UNL     1      13.787  23.414  44.313  1.00  0.00     0.006 C
ENDBRANCH  16  17
ENDBRANCH  10  16
TORSDOF 3
ENDMDL