MODEL 4
REMARK VINA RESULT: -8.423395989      0.737      1.384
REMARK  4 active torsions:
REMARK  status: ('A' for Active; 'I' for Inactive)
REMARK    1  A    between atoms: C2_3  and  N2_4
REMARK    2  A    between atoms: C3_5  and  N3_6
REMARK    3  A    between atoms: N3_6  and  C4_8
REMARK    4  A    between atoms: C10_16  and  C11_17
ROOT
HETATM    1  N1  UNL     1      12.398  20.543  40.295  1.00  0.00    -0.191 NA
HETATM    2  C1  UNL     1      12.669  21.650  40.570  1.00  0.00     0.106 C
HETATM    3  C2  UNL     1      12.959  23.013  40.861  1.00  0.00     0.210 C
ENDROOT
BRANCH   3   4
HETATM    4  N2  UNL     1      13.960  23.247  41.861  1.00  0.00    -0.133 N
HETATM    5  C3  UNL     1      15.321  23.511  41.398  1.00  0.00     0.683 A
HETATM    6  N4  UNL     1      16.226  23.707  42.234  1.00  0.00    -0.213 N
HETATM    7  C10 UNL     1      16.155  23.707  43.673  1.00  0.00     0.171 A
ATOM      8  H4  UNL     1      17.150  23.893  41.842  1.00  0.00     0.178 HD
HETATM    9  C17 UNL     1      14.816  23.495  44.174  1.00  0.00     0.039 A
HETATM   10  C18 UNL     1      14.534  23.523  45.521  1.00  0.00     0.060 A
HETATM   11  C21 UNL     1      13.783  23.251  43.253  1.00  0.00     0.139 A
HETATM   12  N5  UNL     1      15.531  23.808  46.525  1.00  0.00    -0.102 NA
HETATM   13  C19 UNL     1      13.231  23.306  45.919  1.00  0.00     0.044 A
HETATM   14  C20 UNL     1      12.213  23.066  45.033  1.00  0.00     0.091 A
HETATM   15  N6  UNL     1      12.546  23.051  43.735  1.00  0.00    -0.351 N
ATOM     16  H6  UNL     1      11.801  22.873  43.060  1.00  0.00     0.166 HD
BRANCH   5  17
HETATM   17  N3  UNL     1      15.492  23.522  39.981  1.00  0.00    -0.221 N
ATOM     18  H3  UNL     1      14.680  23.728  39.399  1.00  0.00     0.178 HD
BRANCH  17  19
HETATM   19  C4  UNL     1      16.741  23.258  39.331  1.00  0.00     0.099 C
HETATM   20  C5  UNL     1      17.576  22.231  40.054  1.00  0.00     0.026 C
HETATM   21  C6  UNL     1      18.808  21.916  39.276  1.00  0.00     0.002 C
HETATM   22  C7  UNL     1      18.568  21.564  37.845  1.00  0.00     0.000 C
HETATM   23  C8  UNL     1      17.093  21.484  37.598  1.00  0.00     0.002 C
HETATM   24  C9  UNL     1      16.497  22.836  37.916  1.00  0.00     0.026 C
ENDBRANCH  17  19
ENDBRANCH   5  17
BRANCH   7  25
HETATM   25  C11 UNL     1      17.184  22.738  44.155  1.00  0.00    -0.030 A
HETATM   26  C12 UNL     1      18.377  23.323  44.574  1.00  0.00     0.009 A
HETATM   27  C13 UNL     1      19.452  22.584  45.021  1.00  0.00     0.001 A
HETATM   28  C14 UNL     1      19.334  21.211  45.052  1.00  0.00     0.000 A
HETATM   29  C15 UNL     1      18.141  20.636  44.633  1.00  0.00     0.001 A
HETATM   30  C16 UNL     1      17.070  21.392  44.185  1.00  0.00     0.009 A
ENDBRANCH   7  25
ENDBRANCH   3   4
TORSDOF 4
ENDMDL