MODEL 1
REMARK VINA RESULT: -8.284677575      0.000      0.000
REMARK  4 active torsions:
REMARK  status: ('A' for Active; 'I' for Inactive)
REMARK    1  A    between atoms: C2_2  and  C10_19
REMARK    2  A    between atoms: N1_3  and  N2_5
REMARK    3  A    between atoms: C12_22  and  N5_23
REMARK    4  A    between atoms: N5_23  and  C13_25
ROOT
HETATM    1  C1  UNL     1      22.888  20.624  46.206  1.00  0.00     0.072 C
HETATM    2  C2  UNL     1      21.924  21.733  46.621  1.00  0.00     0.049 C
HETATM    3  N1  UNL     1      20.740  21.477  46.404  1.00  0.00    -0.303 N
ATOM      4  H1  UNL     1      20.593  20.561  45.980  1.00  0.00     0.186 HD
ENDROOT
BRANCH   3   5
HETATM    5  N2  UNL     1      19.606  22.159  46.611  1.00  0.00    -0.302 N
HETATM    6  C3  UNL     1      18.613  22.111  45.790  1.00  0.00     0.065 C
HETATM    7  C4  UNL     1      18.718  21.273  44.567  1.00  0.00     0.081 C
HETATM    8  C9  UNL     1      17.363  22.841  45.988  1.00  0.00     0.151 A
HETATM    9  C5  UNL     1      17.449  20.490  44.377  1.00  0.00     0.126 C
HETATM   10  N3  UNL     1      16.256  21.279  44.542  1.00  0.00    -0.386 N
HETATM   11  C6  UNL     1      16.200  22.430  45.371  1.00  0.00     0.090 A
ATOM     12  H3  UNL     1      15.414  20.999  44.040  1.00  0.00     0.159 HD
HETATM   13  C7  UNL     1      15.237  23.329  45.771  1.00  0.00     0.058 A
HETATM   14  C8  UNL     1      13.821  23.291  45.361  1.00  0.00     0.072 C
HETATM   15  N4  UNL     1      15.856  24.196  46.576  1.00  0.00    -0.263 N
HETATM   16  O1  UNL     1      17.118  23.913  46.709  1.00  0.00    -0.233 OA
ATOM     17  H4  UNL     1      15.395  24.984  47.031  1.00  0.00     0.194 HD
ATOM     18  H2  UNL     1      19.524  22.737  47.447  1.00  0.00     0.186 HD
ENDBRANCH   3   5
BRANCH   2  19
HETATM   19  C10 UNL     1      22.479  22.981  47.234  1.00  0.00     0.064 A
HETATM   20  C11 UNL     1      22.631  24.113  46.483  1.00  0.00     0.084 A
HETATM   21  S1  UNL     1      23.290  25.220  47.635  1.00  0.00    -0.064 SA
HETATM   22  C12 UNL     1      23.323  24.173  48.969  1.00  0.00     0.145 A
HETATM   23  N6  UNL     1      22.836  23.034  48.488  1.00  0.00    -0.335 N
ATOM     24  H6  UNL     1      22.743  22.214  49.088  1.00  0.00     0.168 HD
BRANCH  22  25
HETATM   25  N5  UNL     1      23.725  24.393  50.207  1.00  0.00    -0.366 N
ATOM     26  H5  UNL     1      24.001  23.611  50.801  1.00  0.00     0.162 HD
BRANCH  25  27
HETATM   27  C13 UNL     1      23.773  25.743  50.719  1.00  0.00     0.083 C
HETATM   28  C14 UNL     1      22.734  26.008  51.746  1.00  0.00     0.025 C
HETATM   29  C15 UNL     1      23.451  26.781  52.825  1.00  0.00     0.002 C
HETATM   30  C16 UNL     1      24.855  26.235  52.760  1.00  0.00     0.002 C
HETATM   31  C17 UNL     1      25.130  26.068  51.272  1.00  0.00     0.025 C
ENDBRANCH  25  27
ENDBRANCH  22  25
ENDBRANCH   2  19
TORSDOF 4
ENDMDL