MODEL 1
REMARK VINA RESULT: -5.000212113      0.000      0.000
REMARK  7 active torsions:
REMARK  status: ('A' for Active; 'I' for Inactive)
REMARK    1  A    between atoms: O1_2  and  C2_3
REMARK    2  A    between atoms: C2_3  and  C3_5
REMARK    3  A    between atoms: C5_9  and  N2_10
REMARK    4  A    between atoms: N2_10  and  C6_12
REMARK    5  A    between atoms: C13_22  and  N4_23
REMARK    6  A    between atoms: N4_23  and  C14_25
REMARK    7  A    between atoms: C19_30  and  N5_31
ROOT
HETATM    1  C3  UNL     1      40.165   8.303 -10.316  1.00  0.00     0.099 A
HETATM    2  C4  UNL     1      38.907   8.819 -10.201  1.00  0.00     0.127 A
HETATM    3  N1  UNL     1      38.401   9.673 -11.108  1.00  0.00    -0.201 N
ATOM      4  H1  UNL     1      37.455  10.029 -10.974  1.00  0.00     0.183 HD
HETATM    5  C5  UNL     1      39.094  10.073 -12.183  1.00  0.00     0.679 A
HETATM    6  N3  UNL     1      40.358   9.563 -12.313  1.00  0.00    -0.176 N
ATOM      7  H3  UNL     1      40.909   9.850 -13.122  1.00  0.00     0.186 HD
HETATM    8  C13 UNL     1      40.915   8.710 -11.443  1.00  0.00     0.135 A
ENDROOT
BRANCH   8   9
HETATM    9  N4  UNL     1      42.064   8.215 -11.514  1.00  0.00    -0.368 N
ATOM     10  H4  UNL     1      42.507   8.075 -10.607  1.00  0.00     0.161 HD
BRANCH   9  11
HETATM   11  C14 UNL     1      42.854   7.818 -12.591  1.00  0.00     0.113 C
HETATM   12  C15 UNL     1      43.440   8.881 -13.466  1.00  0.00     0.027 C
HETATM   13  C16 UNL     1      44.819   8.454 -13.941  1.00  0.00     0.002 C
HETATM   14  C17 UNL     1      44.790   7.020 -14.445  1.00  0.00     0.002 C
HETATM   15  C18 UNL     1      44.360   6.058 -13.366  1.00  0.00     0.035 C
HETATM   16  C19 UNL     1      43.954   6.878 -12.136  1.00  0.00     0.206 C
BRANCH  16  17
HETATM   17  N5  UNL     1      43.450   5.980 -11.111  1.00  0.00    -0.073 N
ATOM     18  H53 UNL     1      42.964   6.483 -10.368  1.00  0.00     0.274 HD
ATOM     19  H52 UNL     1      42.669   5.418 -11.446  1.00  0.00     0.274 HD
ATOM     20  H51 UNL     1      44.208   5.402 -10.748  1.00  0.00     0.274 HD
ENDBRANCH  16  17
ENDBRANCH   9  11
ENDBRANCH   8   9
BRANCH   1  21
HETATM   21  C2  UNL     1      40.744   7.373  -9.353  1.00  0.00     0.298 C
HETATM   22  O2  UNL     1      40.620   6.127  -9.593  1.00  0.00    -0.259 OA
BRANCH  21  23
HETATM   23  O1  UNL     1      41.406   7.755  -8.219  1.00  0.00    -0.322 OA
HETATM   24  C1  UNL     1      41.758   6.753  -7.260  1.00  0.00     0.213 C
ENDBRANCH  21  23
ENDBRANCH   1  21
BRANCH   5  25
HETATM   25  N2  UNL     1      38.681  10.870 -13.071  1.00  0.00    -0.220 N
ATOM     26  H2  UNL     1      37.942  10.492 -13.664  1.00  0.00     0.178 HD
BRANCH  25  27
HETATM   27  C6  UNL     1      39.063  12.198 -13.390  1.00  0.00     0.118 C
HETATM   28  C7  UNL     1      39.228  13.137 -12.253  1.00  0.00     0.027 C
HETATM   29  C8  UNL     1      38.698  14.532 -12.504  1.00  0.00     0.002 C
HETATM   30  C9  UNL     1      39.178  14.949 -13.873  1.00  0.00     0.006 C
HETATM   31  C10 UNL     1      38.423  14.142 -14.879  1.00  0.00     0.002 C
HETATM   32  C11 UNL     1      39.080  14.347 -16.238  1.00  0.00     0.011 C
HETATM   33  C12 UNL     1      38.218  12.710 -14.533  1.00  0.00     0.109 C
HETATM   34 CL1  UNL     1      38.732  11.760 -15.975  1.00  0.00    -0.122 Cl
ENDBRANCH  25  27
ENDBRANCH   5  25
TORSDOF 7
ENDMDL