MODEL 2
REMARK VINA RESULT: -5.214023713      1.501      1.856
REMARK  7 active torsions:
REMARK  status: ('A' for Active; 'I' for Inactive)
REMARK    1  A    between atoms: C5_5  and  O1_6
REMARK    2  A    between atoms: C6_8  and  O2_9
REMARK    3  A    between atoms: C6_8  and  C7_11
REMARK    4  A    between atoms: C8_12  and  C9_13
REMARK    5  A    between atoms: N1_15  and  C11_16
REMARK    6  A    between atoms: C14_19  and  N2_20
REMARK    7  A    between atoms: N2_20  and  C15_22
ROOT
HETATM    1  C9  UNL     1      40.158  10.164 -12.043  1.00  0.00     0.073 A
HETATM    2  C10 UNL     1      40.206   9.461 -10.868  1.00  0.00     0.114 A
HETATM    3  N1  UNL     1      40.946   8.332 -10.989  1.00  0.00    -0.357 N
HETATM    4  C20 UNL     1      41.392   8.283 -12.252  1.00  0.00     0.134 A
HETATM    5  C21 UNL     1      40.916   9.412 -12.932  1.00  0.00     0.151 A
HETATM    6  F1  UNL     1      41.145   9.731 -14.228  1.00  0.00    -0.203 F
ENDROOT
BRANCH   1   7
HETATM    7  C8  UNL     1      39.465  11.410 -12.275  1.00  0.00    -0.059 C
HETATM    8  C7  UNL     1      38.891  12.444 -12.494  1.00  0.00    -0.060 C
BRANCH   8   9
HETATM    9  C6  UNL     1      38.201  13.668 -12.789  1.00  0.00     0.147 C
HETATM   10  C5  UNL     1      38.892  14.491 -13.869  1.00  0.00     0.165 C
HETATM   11  C4  UNL     1      37.839  15.549 -14.124  1.00  0.00     0.044 C
HETATM   12  C2  UNL     1      36.513  14.854 -13.880  1.00  0.00    -0.042 C
HETATM   13  C1  UNL     1      35.806  15.524 -12.720  1.00  0.00     0.015 C
HETATM   14  C3  UNL     1      35.645  14.859 -15.096  1.00  0.00     0.015 C
HETATM   15  C22 UNL     1      36.870  13.413 -13.464  1.00  0.00     0.063 C
BRANCH  10  16
HETATM   16  O1  UNL     1      40.112  14.983 -13.491  1.00  0.00    -0.392 OA
ATOM     17  H1  UNL     1      40.770  14.319 -13.320  1.00  0.00     0.210 HD
ENDBRANCH  10  16
BRANCH   9  18
HETATM   18  O2  UNL     1      37.961  14.443 -11.651  1.00  0.00    -0.375 OA
ATOM     19  H2  UNL     1      38.778  14.700 -11.239  1.00  0.00     0.212 HD
ENDBRANCH   9  18
ENDBRANCH   8   9
ENDBRANCH   1   7
BRANCH   3  20
HETATM   20  C11 UNL     1      41.169   7.387  -9.923  1.00  0.00     0.089 C
HETATM   21  C12 UNL     1      41.099   8.052  -8.563  1.00  0.00     0.028 C
HETATM   22  C13 UNL     1      41.867   7.157  -7.602  1.00  0.00     0.027 C
HETATM   23  C14 UNL     1      41.702   5.708  -7.952  1.00  0.00     0.077 C
HETATM   24  C18 UNL     1      40.338   5.518  -8.610  1.00  0.00     0.027 C
HETATM   25  C19 UNL     1      40.243   6.223  -9.952  1.00  0.00     0.028 C
BRANCH  23  26
HETATM   26  N2  UNL     1      41.827   4.793  -6.899  1.00  0.00    -0.409 N
ATOM     27  H2  UNL     1      41.770   5.153  -5.946  1.00  0.00     0.154 HD
BRANCH  26  28
HETATM   28  C15 UNL     1      42.021   3.434  -7.068  1.00  0.00     0.124 C
HETATM   29  C16 UNL     1      43.147   3.146  -8.106  1.00  0.00     0.194 C
HETATM   30  O3  UNL     1      43.214   1.882  -7.459  1.00  0.00    -0.387 OA
HETATM   31  C17 UNL     1      43.020   2.662  -6.248  1.00  0.00     0.194 C
ENDBRANCH  26  28
ENDBRANCH  23  26
ENDBRANCH   3  20
TORSDOF 7
ENDMDL