MODEL 1
REMARK VINA RESULT: -4.152408291      0.000      0.000
REMARK  10 active torsions:
REMARK  status: ('A' for Active; 'I' for Inactive)
REMARK       I    between atoms: C1_2  and  N1_3
REMARK    1  A    between atoms: C1_2  and  O2_8
REMARK    2  A    between atoms: N1_3  and  C2_5
REMARK    3  A    between atoms: O2_8  and  C5_9
REMARK    4  A    between atoms: C5_9  and  C6_10
REMARK    5  A    between atoms: C7_11  and  C8_12
REMARK    6  A    between atoms: C9_13  and  C10_14
REMARK    7  A    between atoms: C11_15  and  C12_16
REMARK    8  A    between atoms: C14_18  and  C15_20
REMARK    9  A    between atoms: C15_20  and  O3_21
REMARK   10  A    between atoms: N2_23  and  O4_25
ROOT
HETATM    1  C10 UNL     1      42.442   7.799 -12.475  1.00  0.00    -0.077 C
HETATM    2  C11 UNL     1      43.114   6.891 -12.043  1.00  0.00    -0.089 C
ENDROOT
BRANCH   1   3
HETATM    3  C9  UNL     1      41.639   8.863 -13.006  1.00  0.00     0.073 C
HETATM    4  C8  UNL     1      40.743   9.512 -12.291  1.00  0.00     0.073 C
BRANCH   4   5
HETATM    5  C7  UNL     1      40.534   9.166 -10.913  1.00  0.00    -0.076 C
HETATM    6  C6  UNL     1      40.367   8.890  -9.744  1.00  0.00    -0.075 C
BRANCH   6   7
HETATM    7  C5  UNL     1      40.174   8.576  -8.318  1.00  0.00     0.274 C
BRANCH   7   8
HETATM    8  O2  UNL     1      40.505   7.207  -8.166  1.00  0.00    -0.292 OA
BRANCH   8   9
HETATM    9  C1  UNL     1      41.310   6.769  -7.127  1.00  0.00     0.361 C
HETATM   10  O1  UNL     1      42.439   7.309  -7.014  1.00  0.00    -0.238 OA
HETATM   11  N1  UNL     1      40.876   5.742  -6.220  1.00  0.00    -0.332 N
ATOM     12  H1  UNL     1      39.953   5.327  -6.345  1.00  0.00     0.165 HD
BRANCH  11  13
HETATM   13  C2  UNL     1      41.713   5.284  -5.136  1.00  0.00     0.086 A
HETATM   14  C3  UNL     1      41.198   4.425  -4.064  1.00  0.00     0.027 A
HETATM   15  C4  UNL     1      41.992   3.794  -5.175  1.00  0.00     0.027 A
ENDBRANCH  11  13
ENDBRANCH   8   9
ENDBRANCH   7   8
ENDBRANCH   6   7
ENDBRANCH   4   5
ENDBRANCH   1   3
BRANCH   2  16
HETATM   16  C12 UNL     1      43.928   5.772 -11.537  1.00  0.00     0.139 C
HETATM   17  C13 UNL     1      44.019   5.798  -9.994  1.00  0.00     0.062 C
HETATM   18  C14 UNL     1      43.889   4.314 -10.083  1.00  0.00     0.147 C
HETATM   19 BR1  UNL     1      45.612   3.434 -10.359  1.00  0.00    -0.068 Br
HETATM   20  C16 UNL     1      43.154   4.519 -11.371  1.00  0.00     0.170 C
HETATM   21  O5  UNL     1      42.311   3.905 -11.969  1.00  0.00    -0.294 OA
BRANCH  18  22
HETATM   22  C15 UNL     1      43.168   3.603  -9.025  1.00  0.00     0.163 C
HETATM   23  N2  UNL     1      41.942   3.648  -8.731  1.00  0.00    -0.249 N
ATOM     24  H2  UNL     1      41.659   3.061  -7.947  1.00  0.00     0.196 HD
BRANCH  22  25
HETATM   25  O3  UNL     1      43.963   2.744  -8.219  1.00  0.00    -0.347 OA
ATOM     26  H3  UNL     1      44.470   3.176  -7.542  1.00  0.00     0.219 HD
ENDBRANCH  22  25
BRANCH  23  27
HETATM   27  O4  UNL     1      40.957   4.359  -9.302  1.00  0.00    -0.288 OA
ATOM     28  H4  UNL     1      40.397   5.025  -8.921  1.00  0.00     0.244 HD
ENDBRANCH  23  27
ENDBRANCH  18  22
ENDBRANCH   2  16
TORSDOF 10
ENDMDL