MODEL 1
REMARK VINA RESULT: -4.196975210      0.000      0.000
REMARK  9 active torsions:
REMARK  status: ('A' for Active; 'I' for Inactive)
REMARK    1  A    between atoms: C2_2  and  C4_4
REMARK    2  A    between atoms: C4_4  and  C5_5
REMARK    3  A    between atoms: C9_14  and  O1_15
REMARK    4  A    between atoms: O1_15  and  C10_16
REMARK    5  A    between atoms: C10_16  and  N4_24
REMARK    6  A    between atoms: N3_17  and  C11_19
REMARK    7  A    between atoms: C12_20  and  C13_21
REMARK    8  A    between atoms: C13_21  and  C14_22
REMARK    9  A    between atoms: C17_27  and  N5_28
ROOT
HETATM    1  C5  UNL     1      39.000  14.286 -15.089  1.00  0.00     0.123 C
HETATM    2  C6  UNL     1      38.995  15.080 -16.366  1.00  0.00     0.087 C
HETATM    3  N1  UNL     1      38.486  14.726 -17.451  1.00  0.00    -0.358 N
ATOM      4  H1  UNL     1      38.613  15.435 -18.173  1.00  0.00     0.166 HD
HETATM    5  C7  UNL     1      37.800  13.633 -17.929  1.00  0.00     0.076 C
HETATM    6  N2  UNL     1      36.487  13.555 -18.053  1.00  0.00    -0.389 N
ATOM      7  H21 UNL     1      35.979  12.745 -18.408  1.00  0.00     0.157 HD
ATOM      8  H22 UNL     1      35.989  14.390 -17.745  1.00  0.00     0.157 HD
HETATM    9  C8  UNL     1      38.523  12.420 -18.377  1.00  0.00     0.111 C
HETATM   10  C9  UNL     1      39.691  12.006 -17.574  1.00  0.00     0.178 C
HETATM   11  C17 UNL     1      39.407  11.153 -16.377  1.00  0.00     0.304 C
HETATM   12  C18 UNL     1      38.557  11.764 -15.341  1.00  0.00     0.251 C
HETATM   13  O2  UNL     1      38.117  10.908 -14.479  1.00  0.00    -0.271 OA
HETATM   14  N6  UNL     1      38.180  13.107 -15.181  1.00  0.00    -0.350 N
ATOM     15  H6  UNL     1      37.176  13.271 -15.121  1.00  0.00     0.163 HD
ENDROOT
BRANCH  10  16
HETATM   16  O1  UNL     1      40.787  11.478 -18.336  1.00  0.00    -0.313 OA
BRANCH  16  17
HETATM   17  C10 UNL     1      41.798  12.255 -18.833  1.00  0.00     0.229 C
HETATM   18  N3  UNL     1      42.906  12.253 -18.208  1.00  0.00    -0.281 N
ATOM     19  H3  UNL     1      42.987  11.675 -17.371  1.00  0.00     0.179 HD
BRANCH  18  20
HETATM   20  C11 UNL     1      44.025  13.006 -18.609  1.00  0.00     0.013 C
HETATM   21  C12 UNL     1      44.991  13.650 -18.933  1.00  0.00    -0.082 C
BRANCH  21  22
HETATM   22  C13 UNL     1      46.164  14.439 -19.302  1.00  0.00     0.110 C
BRANCH  22  23
HETATM   23  C14 UNL     1      47.233  14.227 -18.242  1.00  0.00     0.126 C
HETATM   24 CL1  UNL     1      47.621  15.731 -17.408  1.00  0.00    -0.130 Cl
ENDBRANCH  22  23
ENDBRANCH  21  22
ENDBRANCH  18  20
BRANCH  17  25
HETATM   25  N4  UNL     1      41.692  13.060 -19.994  1.00  0.00    -0.355 N
HETATM   26  C15 UNL     1      41.981  12.508 -21.291  1.00  0.00     0.152 C
HETATM   27  C16 UNL     1      41.295  14.441 -19.892  1.00  0.00     0.152 C
ENDBRANCH  17  25
ENDBRANCH  16  17
ENDBRANCH  10  16
BRANCH  11  28
HETATM   28  N5  UNL     1      38.863   9.865 -16.705  1.00  0.00    -0.064 N
ATOM     29  H53 UNL     1      37.922   9.763 -16.325  1.00  0.00     0.275 HD
ATOM     30  H52 UNL     1      38.651   9.806 -17.701  1.00  0.00     0.275 HD
ATOM     31  H51 UNL     1      39.455   9.086 -16.416  1.00  0.00     0.275 HD
ENDBRANCH  11  28
BRANCH   1  32
HETATM   32  C4  UNL     1      38.823  15.123 -13.890  1.00  0.00     0.034 C
BRANCH  32  33
HETATM   33  C2  UNL     1      38.914  14.601 -12.540  1.00  0.00    -0.020 C
HETATM   34  C1  UNL     1      39.918  13.504 -12.273  1.00  0.00     0.009 C
HETATM   35  C3  UNL     1      37.629  14.175 -11.884  1.00  0.00     0.009 C
ENDBRANCH  32  33
ENDBRANCH   1  32
TORSDOF 9
ENDMDL