MODEL 5
REMARK VINA RESULT: -4.084842632      1.675      2.253
REMARK  5 active torsions:
REMARK  status: ('A' for Active; 'I' for Inactive)
REMARK       I    between atoms: C2_4  and  N2_5
REMARK       I    between atoms: C2_4  and  N4_9
REMARK    1  A    between atoms: C5_11  and  O1_12
REMARK    2  A    between atoms: C6_14  and  N5_15
REMARK       I    between atoms: N5_15  and  C8_17
REMARK       I    between atoms: C8_17  and  N6_19
REMARK    3  A    between atoms: N6_19  and  C9_20
REMARK    4  A    between atoms: C9_20  and  C10_21
REMARK    5  A    between atoms: C14_26  and  C15_27
ROOT
HETATM    1  C1  UNL     1      43.104   5.598  -9.619  1.00  0.00     0.165 C
HETATM    2  N1  UNL     1      42.264   6.762  -9.959  1.00  0.00    -0.230 N
ATOM      3  H1  UNL     1      41.970   7.415  -9.233  1.00  0.00     0.177 HD
HETATM    4  C2  UNL     1      41.902   6.947 -11.200  1.00  0.00     0.684 C
HETATM    5  N2  UNL     1      42.336   6.014 -12.162  1.00  0.00    -0.126 N
ATOM      6  H2  UNL     1      41.727   5.228 -12.388  1.00  0.00     0.197 HD
HETATM    7  C3  UNL     1      43.575   6.118 -12.828  1.00  0.00     0.196 C
HETATM    8  N3  UNL     1      44.601   6.223 -13.376  1.00  0.00    -0.171 NA
HETATM    9  N4  UNL     1      41.098   8.080 -11.519  1.00  0.00    -0.214 N
HETATM   10  C4  UNL     1      40.033   8.415 -10.648  1.00  0.00     0.179 C
HETATM   11  C5  UNL     1      39.033   9.392 -11.244  1.00  0.00     0.182 C
HETATM   12  C6  UNL     1      39.679  10.353 -12.170  1.00  0.00     0.031 C
HETATM   13  C14 UNL     1      40.438   9.687 -13.295  1.00  0.00     0.067 C
HETATM   14  C16 UNL     1      41.462   8.772 -12.721  1.00  0.00     0.153 C
ENDROOT
BRANCH  11  15
HETATM   15  O1  UNL     1      38.026   8.604 -11.793  1.00  0.00    -0.388 OA
ATOM     16  H1  UNL     1      38.189   7.724 -11.472  1.00  0.00     0.210 HD
ENDBRANCH  11  15
BRANCH  13  17
HETATM   17  C15 UNL     1      39.671   9.137 -14.427  1.00  0.00     0.126 C
HETATM   18 CL1  UNL     1      39.658  10.320 -15.811  1.00  0.00    -0.130 Cl
ENDBRANCH  13  17
BRANCH  12  19
HETATM   19  N5  UNL     1      39.009  11.545 -12.444  1.00  0.00    -0.297 N
HETATM   20  C7  UNL     1      37.652  11.509 -13.035  1.00  0.00     0.162 C
HETATM   21  C8  UNL     1      39.504  12.853 -12.205  1.00  0.00     0.399 C
HETATM   22  O2  UNL     1      40.668  12.966 -11.798  1.00  0.00    -0.230 OA
HETATM   23  N6  UNL     1      38.661  13.940 -12.434  1.00  0.00    -0.363 NA
BRANCH  23  24
HETATM   24  C9  UNL     1      37.844  14.990 -12.655  1.00  0.00     0.207 C
BRANCH  24  25
HETATM   25  C10 UNL     1      37.739  15.381 -14.108  1.00  0.00     0.033 A
HETATM   26  C11 UNL     1      38.718  15.366 -15.062  1.00  0.00     0.022 A
HETATM   27  C12 UNL     1      38.387  15.783 -16.303  1.00  0.00     0.008 A
HETATM   28  C13 UNL     1      37.097  16.188 -16.504  1.00  0.00     0.050 A
HETATM   29  S1  UNL     1      36.384  15.977 -14.972  1.00  0.00    -0.100 SA
ENDBRANCH  24  25
ENDBRANCH  23  24
ENDBRANCH  12  19
TORSDOF 5
ENDMDL