MODEL 2
REMARK VINA RESULT: -4.652529904      2.376      6.262
REMARK  5 active torsions:
REMARK  status: ('A' for Active; 'I' for Inactive)
REMARK    1  A    between atoms: O1_2  and  C2_3
REMARK       I    between atoms: C2_3  and  N1_5
REMARK    2  A    between atoms: N1_5  and  C3_7
REMARK    3  A    between atoms: C5_9  and  C6_10
REMARK    4  A    between atoms: C19_25  and  O4_26
REMARK    5  A    between atoms: C20_28  and  O5_29
ROOT
HETATM    1  C3  UNL     1      36.552  14.608 -12.799  1.00  0.00     0.094 C
HETATM    2  C4  UNL     1      37.984  14.388 -12.292  1.00  0.00     0.031 C
HETATM    3  C5  UNL     1      38.278  12.939 -12.717  1.00  0.00    -0.002 C
HETATM    4  C9  UNL     1      38.568  12.984 -14.165  1.00  0.00     0.033 C
HETATM    5  C10 UNL     1      37.975  11.957 -15.064  1.00  0.00     0.094 C
HETATM    6 CL1  UNL     1      37.166  10.595 -14.310  1.00  0.00    -0.111 Cl
HETATM    7  C11 UNL     1      38.943  11.535 -16.113  1.00  0.00     0.013 C
HETATM    8  C12 UNL     1      39.670  12.188 -17.032  1.00  0.00    -0.018 C
HETATM    9  C13 UNL     1      40.513  11.297 -17.875  1.00  0.00     0.052 C
HETATM   10  C14 UNL     1      39.770  13.609 -17.341  1.00  0.00     0.155 C
HETATM   11  O3  UNL     1      40.712  13.811 -18.142  1.00  0.00    -0.293 OA
HETATM   12  C15 UNL     1      39.085  14.865 -16.982  1.00  0.00     0.084 C
HETATM   13  C16 UNL     1      38.753  14.974 -15.530  1.00  0.00     0.021 C
HETATM   14  C17 UNL     1      37.825  14.046 -14.925  1.00  0.00     0.010 C
HETATM   15  C18 UNL     1      36.586  14.539 -14.276  1.00  0.00     0.052 C
HETATM   16  C19 UNL     1      35.845  13.312 -14.775  1.00  0.00     0.162 C
HETATM   17  C20 UNL     1      37.068  13.022 -15.613  1.00  0.00     0.117 C
ENDROOT
BRANCH   1  18
HETATM   18  N1  UNL     1      35.979  15.802 -12.264  1.00  0.00    -0.332 N
HETATM   19  C2  UNL     1      35.256  15.846 -11.045  1.00  0.00     0.360 C
HETATM   20  O2  UNL     1      35.117  14.775 -10.408  1.00  0.00    -0.239 OA
ATOM     21  H1  UNL     1      36.096  16.670 -12.787  1.00  0.00     0.165 HD
BRANCH  19  22
HETATM   22  O1  UNL     1      34.694  16.991 -10.513  1.00  0.00    -0.309 OA
HETATM   23  C1  UNL     1      35.017  17.376  -9.205  1.00  0.00     0.215 C
ENDBRANCH  19  22
ENDBRANCH   1  18
BRANCH   3  24
HETATM   24  C6  UNL     1      39.488  12.524 -11.881  1.00  0.00    -0.018 C
HETATM   25  C7  UNL     1      40.594  13.528 -11.939  1.00  0.00     0.010 C
HETATM   26  C8  UNL     1      39.945  11.135 -12.232  1.00  0.00     0.010 C
ENDBRANCH   3  24
BRANCH  16  27
HETATM   27  O4  UNL     1      34.696  13.612 -15.499  1.00  0.00    -0.392 OA
ATOM     28  H4  UNL     1      33.892  13.464 -15.015  1.00  0.00     0.210 HD
ENDBRANCH  16  27
BRANCH  17  29
HETATM   29  O5  UNL     1      36.770  13.032 -16.922  1.00  0.00    -0.384 OA
ATOM     30  H5  UNL     1      36.761  12.217 -17.410  1.00  0.00     0.210 HD
ENDBRANCH  17  29
TORSDOF 5
ENDMDL