MODEL 5
REMARK VINA RESULT: -4.380174231      5.525      7.130
REMARK  5 active torsions:
REMARK  status: ('A' for Active; 'I' for Inactive)
REMARK    1  A    between atoms: C2_2  and  O1_3
REMARK    2  A    between atoms: C5_7  and  N1_8
REMARK    3  A    between atoms: N1_8  and  C6_10
REMARK    4  A    between atoms: C7_13  and  O2_14
REMARK    5  A    between atoms: O2_14  and  C8_15
ROOT
HETATM    1  C6  UNL     1      38.698  15.255 -16.614  1.00  0.00     0.680 A
HETATM    2  N2  UNL     1      39.507  14.416 -17.295  1.00  0.00    -0.169 N
ATOM      3  H2  UNL     1      40.227  13.895 -16.795  1.00  0.00     0.186 HD
HETATM    4  C7  UNL     1      39.377  14.260 -18.620  1.00  0.00     0.176 A
HETATM    5  C15 UNL     1      38.417  14.945 -19.340  1.00  0.00     0.078 A
HETATM    6 BR1  UNL     1      38.219  14.734 -21.225  1.00  0.00    -0.045 Br
HETATM    7  C16 UNL     1      37.593  15.799 -18.646  1.00  0.00     0.129 A
HETATM    8  N4  UNL     1      37.766  15.919 -17.318  1.00  0.00    -0.201 N
ATOM      9  H4  UNL     1      37.150  16.556 -16.812  1.00  0.00     0.183 HD
ENDROOT
BRANCH   4  10
HETATM   10  O2  UNL     1      40.197  13.403 -19.343  1.00  0.00    -0.329 OA
BRANCH  10  11
HETATM   11  C8  UNL     1      41.381  12.837 -18.792  1.00  0.00     0.132 C
HETATM   12  C9  UNL     1      41.218  11.337 -18.871  1.00  0.00     0.032 C
HETATM   13  C10 UNL     1      42.055  10.595 -17.881  1.00  0.00     0.004 C
HETATM   14  C11 UNL     1      43.306  10.067 -18.546  1.00  0.00     0.027 C
HETATM   15  C12 UNL     1      44.429  11.020 -18.251  1.00  0.00     0.232 C
HETATM   16  N3  UNL     1      43.905  12.287 -17.846  1.00  0.00    -0.075 N
HETATM   17  C13 UNL     1      43.858  13.244 -18.902  1.00  0.00     0.235 C
ATOM     18  H32 UNL     1      42.986  12.178 -17.416  1.00  0.00     0.277 HD
ATOM     19  H31 UNL     1      44.423  12.653 -17.048  1.00  0.00     0.277 HD
HETATM   20  C14 UNL     1      42.537  13.351 -19.587  1.00  0.00     0.060 C
ENDBRANCH  10  11
ENDBRANCH   4  10
BRANCH   1  21
HETATM   21  N1  UNL     1      38.849  15.381 -15.353  1.00  0.00    -0.221 N
ATOM     22  H1  UNL     1      38.763  16.307 -14.933  1.00  0.00     0.178 HD
BRANCH  21  23
HETATM   23  C5  UNL     1      39.135  14.260 -14.515  1.00  0.00     0.102 C
HETATM   24  C4  UNL     1      39.591  14.633 -13.140  1.00  0.00     0.029 C
HETATM   25  C3  UNL     1      38.361  14.627 -12.269  1.00  0.00     0.039 C
HETATM   26  C2  UNL     1      37.519  13.533 -12.856  1.00  0.00     0.056 C
HETATM   27  C1  UNL     1      36.060  13.864 -12.710  1.00  0.00     0.045 C
HETATM   28  C17 UNL     1      37.898  13.413 -14.302  1.00  0.00     0.063 C
BRANCH  26  29
HETATM   29  O1  UNL     1      37.737  12.322 -12.165  1.00  0.00    -0.390 OA
ATOM     30  H1  UNL     1      38.674  12.243 -12.033  1.00  0.00     0.210 HD
ENDBRANCH  26  29
ENDBRANCH  21  23
ENDBRANCH   1  21
TORSDOF 5
ENDMDL