MODEL 3
REMARK VINA RESULT: -4.157293657      8.209      9.332
REMARK  6 active torsions:
REMARK  status: ('A' for Active; 'I' for Inactive)
REMARK    1  A    between atoms: C2_2  and  N1_4
REMARK    2  A    between atoms: N1_4  and  C4_6
REMARK       I    between atoms: N3_13  and  C8_14
REMARK       I    between atoms: C8_14  and  N4_16
REMARK    3  A    between atoms: N4_16  and  C9_18
REMARK    4  A    between atoms: C9_18  and  C10_19
REMARK    5  A    between atoms: C9_18  and  C11_22
REMARK    6  A    between atoms: C10_19  and  O2_20
ROOT
HETATM    1  C4  UNL     1      41.113   7.530 -11.495  1.00  0.00     0.116 A
HETATM    2  N2  UNL     1      41.032   6.249 -11.833  1.00  0.00    -0.312 N
ATOM      3  H2  UNL     1      41.354   5.437 -11.306  1.00  0.00     0.176 HD
HETATM    4  S1  UNL     1      40.273   6.277 -13.336  1.00  0.00    -0.014 SA
HETATM    5  C5  UNL     1      40.064   7.955 -13.518  1.00  0.00     0.049 A
HETATM    6  C6  UNL     1      40.608   8.445 -12.371  1.00  0.00     0.022 A
HETATM    7  C7  UNL     1      40.462   9.959 -12.457  1.00  0.00     0.173 C
HETATM    8  N3  UNL     1      39.362  10.083 -13.367  1.00  0.00    -0.307 N
HETATM    9  C8  UNL     1      38.311  11.010 -13.275  1.00  0.00     0.320 C
HETATM   10  O1  UNL     1      37.420  10.956 -14.196  1.00  0.00    -0.247 OA
HETATM   11  N4  UNL     1      38.209  11.969 -12.231  1.00  0.00    -0.336 N
ATOM     12  H4  UNL     1      38.913  12.016 -11.494  1.00  0.00     0.164 HD
HETATM   13  C16 UNL     1      39.545   9.087 -14.377  1.00  0.00     0.228 C
HETATM   14 CL1  UNL     1      40.769   9.544 -15.561  1.00  0.00    -0.096 Cl
ENDROOT
BRANCH  11  15
HETATM   15  C9  UNL     1      37.069  12.886 -12.240  1.00  0.00     0.113 C
BRANCH  15  16
HETATM   16  C10 UNL     1      36.248  12.465 -11.038  1.00  0.00     0.189 C
BRANCH  16  17
HETATM   17  O2  UNL     1      36.048  13.544 -10.205  1.00  0.00    -0.399 OA
ATOM     18  H2  UNL     1      35.811  13.242  -9.336  1.00  0.00     0.209 HD
ENDBRANCH  16  17
ENDBRANCH  15  16
BRANCH  15  19
HETATM   19  C11 UNL     1      37.560  14.289 -12.207  1.00  0.00     0.014 C
HETATM   20  C12 UNL     1      37.008  15.216 -13.228  1.00  0.00     0.033 C
HETATM   21  C13 UNL     1      37.352  14.722 -14.628  1.00  0.00     0.168 C
HETATM   22  O3  UNL     1      38.713  14.713 -14.794  1.00  0.00    -0.391 OA
HETATM   23  C14 UNL     1      39.443  15.020 -13.680  1.00  0.00     0.168 C
HETATM   24  C15 UNL     1      39.069  14.241 -12.438  1.00  0.00     0.033 C
ENDBRANCH  15  19
ENDBRANCH  11  15
BRANCH   1  25
HETATM   25  N1  UNL     1      41.666   7.882 -10.348  1.00  0.00    -0.371 N
ATOM     26  H1  UNL     1      42.594   8.306 -10.355  1.00  0.00     0.161 HD
BRANCH  25  27
HETATM   27  C2  UNL     1      41.008   7.687  -9.106  1.00  0.00     0.075 C
HETATM   28  C1  UNL     1      41.843   6.993  -8.071  1.00  0.00     0.031 C
HETATM   29  C3  UNL     1      40.556   9.011  -8.530  1.00  0.00     0.031 C
ENDBRANCH  25  27
ENDBRANCH   1  25
TORSDOF 6
ENDMDL