MODEL 4
REMARK VINA RESULT: -6.818478049      1.081      1.129
REMARK  10 active torsions:
REMARK  status: ('A' for Active; 'I' for Inactive)
REMARK    1  A    between atoms: N1_1  and  C1_4
REMARK    2  A    between atoms: N5_12  and  C3_13
REMARK    3  A    between atoms: C3_13  and  C4_14
REMARK    4  A    between atoms: C4_14  and  C5_15
REMARK    5  A    between atoms: C6_16  and  C7_17
REMARK    6  A    between atoms: C7_17  and  C8_19
REMARK    7  A    between atoms: C11_27  and  C12_28
REMARK    8  A    between atoms: N9_31  and  N10_32
REMARK    9  A    between atoms: N10_32  and  N11_34
REMARK   10  A    between atoms: C14_40  and  N14_41
ROOT
HETATM    1  C5  UNL     1      18.665   4.564  16.745  1.00  0.00     0.001 A
HETATM    2  C6  UNL     1      19.807   5.007  16.160  1.00  0.00     0.089 A
HETATM    3  N6  UNL     1      20.080   6.345  16.214  1.00  0.00    -0.336 N
ATOM      4  H6  UNL     1      20.941   6.670  15.773  1.00  0.00     0.168 HD
HETATM    5  C9  UNL     1      19.308   7.247  16.796  1.00  0.00     0.160 A
HETATM    6  C10 UNL     1      18.134   6.793  17.392  1.00  0.00     0.105 A
HETATM    7  N7  UNL     1      17.550   7.902  17.898  1.00  0.00    -0.332 N
ATOM      8  H7  UNL     1      16.663   7.901  18.403  1.00  0.00     0.168 HD
HETATM    9  C11 UNL     1      18.276   9.005  17.656  1.00  0.00     0.197 A
HETATM   10  N9  UNL     1      19.371   8.579  16.967  1.00  0.00    -0.202 N
HETATM   11  C13 UNL     1      17.784   5.471  17.386  1.00  0.00     0.085 A
HETATM   12  N12 UNL     1      16.586   5.039  18.000  1.00  0.00    -0.099 NA
ENDROOT
BRANCH   1  13
HETATM   13  C4  UNL     1      18.266   3.158  16.894  1.00  0.00     0.066 C
BRANCH  13  14
HETATM   14  C3  UNL     1      17.583   2.590  15.653  1.00  0.00     0.177 C
BRANCH  14  15
HETATM   15  N5  UNL     1      16.155   2.447  15.814  1.00  0.00    -0.183 N
HETATM   16  N4  UNL     1      15.598   1.409  16.510  1.00  0.00    -0.210 N
HETATM   17  N3  UNL     1      14.301   1.498  16.471  1.00  0.00    -0.113 N
ATOM     18  H4  UNL     1      16.121   0.676  16.989  1.00  0.00     0.210 HD
HETATM   19  C2  UNL     1      13.965   2.583  15.755  1.00  0.00     0.750 A
ATOM     20  H3  UNL     1      13.647   0.851  16.912  1.00  0.00     0.207 HD
HETATM   21  N2  UNL     1      12.791   3.129  15.390  1.00  0.00    -0.018 N
HETATM   22  N13 UNL     1      15.148   3.143  15.363  1.00  0.00     0.110 N
HETATM   23  C1  UNL     1      12.692   4.233  14.633  1.00  0.00     0.705 A
ATOM     24  H2  UNL     1      11.931   2.681  15.706  1.00  0.00     0.203 HD
HETATM   25  N15 UNL     1      13.844   4.787  14.242  1.00  0.00    -0.020 N
HETATM   26  C14 UNL     1      15.035   4.251  14.600  1.00  0.00     0.728 A
ATOM     27  H15 UNL     1      13.826   5.628  13.664  1.00  0.00     0.203 HD
BRANCH  23  28
HETATM   28  N1  UNL     1      11.537   4.727  14.303  1.00  0.00    -0.234 N
ATOM     29  H12 UNL     1      10.662   4.238  14.491  1.00  0.00     0.174 HD
ATOM     30  H11 UNL     1      11.457   5.632  13.840  1.00  0.00     0.174 HD
ENDBRANCH  23  28
BRANCH  26  31
HETATM   31  N14 UNL     1      16.130   4.783  14.164  1.00  0.00    -0.232 N
ATOM     32 2H14 UNL     1      16.083   5.594  13.547  1.00  0.00     0.174 HD
ATOM     33 1H14 UNL     1      17.006   4.334  14.432  1.00  0.00     0.174 HD
ENDBRANCH  26  31
ENDBRANCH  14  15
ENDBRANCH  13  14
ENDBRANCH   1  13
BRANCH   2  34
HETATM   34  C7  UNL     1      20.760   4.213  15.421  1.00  0.00     0.186 C
HETATM   35  O1  UNL     1      20.747   4.219  14.140  1.00  0.00    -0.290 OA
BRANCH  34  36
HETATM   36  C8  UNL     1      21.801   3.352  16.002  1.00  0.00     0.171 C
HETATM   37  S1  UNL     1      22.319   3.777  17.663  1.00  0.00    -0.089 SA
ENDBRANCH  34  36
ENDBRANCH   2  34
BRANCH  10  38
HETATM   38  N10 UNL     1      20.385   9.437  16.525  1.00  0.00    -0.239 N
ATOM     39  H10 UNL     1      20.445   9.664  15.532  1.00  0.00     0.208 HD
BRANCH  38  40
HETATM   40  N11 UNL     1      21.311   9.988  17.403  1.00  0.00    -0.330 N
ATOM     41 2H11 UNL     1      21.082  10.002  18.397  1.00  0.00     0.178 HD
ATOM     42 1H11 UNL     1      22.198  10.371  17.076  1.00  0.00     0.178 HD
ENDBRANCH  38  40
ENDBRANCH  10  38
BRANCH   9  43
HETATM   43  C12 UNL     1      17.982  10.383  18.039  1.00  0.00     0.300 C
HETATM   44  N8  UNL     1      17.016  10.634  19.045  1.00  0.00    -0.054 NA
HETATM   45  O2  UNL     1      18.554  11.363  17.509  1.00  0.00    -0.268 OA
ENDBRANCH   9  43
TORSDOF 10
ENDMDL