MODEL 3
REMARK VINA RESULT: -8.455844795      0.951      1.774
REMARK  10 active torsions:
REMARK  status: ('A' for Active; 'I' for Inactive)
REMARK    1  A    between atoms: N1_1  and  C1_4
REMARK    2  A    between atoms: N6_16  and  C4_17
REMARK    3  A    between atoms: C4_17  and  C5_18
REMARK    4  A    between atoms: N7_20  and  C7_21
REMARK    5  A    between atoms: C7_21  and  O1_22
REMARK    6  A    between atoms: C7_21  and  C8_24
REMARK    7  A    between atoms: C8_24  and  O2_25
REMARK    8  A    between atoms: C8_24  and  C9_27
REMARK    9  A    between atoms: C9_27  and  N8_28
REMARK   10  A    between atoms: C12_33  and  N10_34
ROOT
HETATM    1  C5  UNL     1      18.977   9.020  18.077  1.00  0.00     0.064 A
HETATM    2  C6  UNL     1      19.023   7.646  18.007  1.00  0.00     0.143 A
HETATM    3  N7  UNL     1      18.240   7.262  16.983  1.00  0.00    -0.255 N
HETATM    4  N13 UNL     1      17.747   8.360  16.464  1.00  0.00    -0.238 N
ATOM      5  H13 UNL     1      17.112   8.381  15.666  1.00  0.00     0.208 HD
HETATM    6  N14 UNL     1      18.166   9.425  17.092  1.00  0.00    -0.287 N
ATOM      7  H14 UNL     1      17.920  10.390  16.871  1.00  0.00     0.188 HD
ENDROOT
BRANCH   3   8
HETATM    8  C7  UNL     1      17.964   5.929  16.511  1.00  0.00     0.272 C
BRANCH   8   9
HETATM    9  O1  UNL     1      18.023   5.924  15.105  1.00  0.00    -0.372 OA
ATOM     10  H1  UNL     1      18.806   5.459  14.833  1.00  0.00     0.212 HD
ENDBRANCH   8   9
BRANCH   8  11
HETATM   11  C8  UNL     1      16.587   5.517  16.985  1.00  0.00     0.186 C
BRANCH  11  12
HETATM   12  O2  UNL     1      16.177   6.473  17.930  1.00  0.00    -0.389 OA
ATOM     13  H2  UNL     1      15.231   6.412  17.993  1.00  0.00     0.210 HD
ENDBRANCH  11  12
BRANCH  11  14
HETATM   14  C9  UNL     1      15.585   5.560  15.850  1.00  0.00     0.167 C
BRANCH  14  15
HETATM   15  N8  UNL     1      14.808   4.326  15.809  1.00  0.00    -0.325 N
HETATM   16  C10 UNL     1      15.180   3.117  16.266  1.00  0.00     0.185 A
HETATM   17  N9  UNL     1      14.209   2.237  16.055  1.00  0.00    -0.346 N
HETATM   18  C11 UNL     1      13.169   2.840  15.453  1.00  0.00     0.122 A
ATOM     19  H9  UNL     1      14.247   1.251  16.311  1.00  0.00     0.167 HD
HETATM   20  C12 UNL     1      11.932   2.434  15.010  1.00  0.00     0.131 A
HETATM   21  C14 UNL     1      13.569   4.167  15.305  1.00  0.00     0.140 A
HETATM   22  N11 UNL     1      11.126   3.335  14.438  1.00  0.00    -0.337 N
HETATM   23  C13 UNL     1      11.513   4.616  14.297  1.00  0.00     0.183 A
ATOM     24  H11 UNL     1      10.206   3.048  14.105  1.00  0.00     0.168 HD
HETATM   25  N12 UNL     1      12.714   5.025  14.723  1.00  0.00    -0.336 N
ATOM     26  H12 UNL     1      12.985   6.001  14.605  1.00  0.00     0.168 HD
BRANCH  20  27
HETATM   27  N10 UNL     1      11.530   1.219  15.130  1.00  0.00    -0.383 N
ATOM     28 2H10 UNL     1      11.821   0.528  14.440  1.00  0.00     0.157 HD
ATOM     29 1H10 UNL     1      10.927   0.923  15.897  1.00  0.00     0.157 HD
ENDBRANCH  20  27
ENDBRANCH  14  15
ENDBRANCH  11  14
ENDBRANCH   8  11
ENDBRANCH   3   8
BRANCH   1  30
HETATM   30  C4  UNL     1      19.654   9.938  19.016  1.00  0.00     0.212 C
BRANCH  30  31
HETATM   31  N6  UNL     1      19.597  11.317  18.571  1.00  0.00    -0.254 N
HETATM   32  N5  UNL     1      18.664  11.884  17.839  1.00  0.00    -0.238 N
HETATM   33  N4  UNL     1      18.941  13.168  17.624  1.00  0.00    -0.279 N
ATOM     34  H5  UNL     1      17.837  11.404  17.483  1.00  0.00     0.208 HD
HETATM   35  C3  UNL     1      20.102  13.474  18.235  1.00  0.00     0.140 A
ATOM     36  H4  UNL     1      18.367  13.815  17.085  1.00  0.00     0.189 HD
HETATM   37  C2  UNL     1      20.848  14.629  18.341  1.00  0.00     0.147 A
HETATM   38  C15 UNL     1      20.504  12.282  18.832  1.00  0.00     0.171 A
HETATM   39  N2  UNL     1      21.990  14.570  19.049  1.00  0.00    -0.175 N
HETATM   40  N3  UNL     1      20.477  15.724  17.792  1.00  0.00    -0.383 N
HETATM   41  C1  UNL     1      22.386  13.412  19.633  1.00  0.00     0.679 A
ATOM     42  H2  UNL     1      22.566  15.406  19.147  1.00  0.00     0.186 HD
HETATM   43  N15 UNL     1      21.659  12.285  19.528  1.00  0.00    -0.173 N
ATOM     44  H15 UNL     1      21.982  11.428  19.978  1.00  0.00     0.186 HD
ATOM     45  H32 UNL     1      21.028  16.578  17.871  1.00  0.00     0.157 HD
ATOM     46  H31 UNL     1      19.611  15.769  17.255  1.00  0.00     0.157 HD
BRANCH  41  47
HETATM   47  N1  UNL     1      23.501  13.410  20.306  1.00  0.00    -0.234 N
ATOM     48  H12 UNL     1      24.383  13.614  19.836  1.00  0.00     0.174 HD
ATOM     49  H11 UNL     1      23.463  13.201  21.304  1.00  0.00     0.174 HD
ENDBRANCH  41  47
ENDBRANCH  30  31
ENDBRANCH   1  30
TORSDOF 10
ENDMDL