MODEL 5
REMARK VINA RESULT: -6.660114929      1.897      2.814
REMARK  11 active torsions:
REMARK  status: ('A' for Active; 'I' for Inactive)
REMARK    1  A    between atoms: N1_1  and  N2_4
REMARK    2  A    between atoms: C2_9  and  N4_10
REMARK    3  A    between atoms: C2_9  and  O2_14
REMARK    4  A    between atoms: N5_17  and  N6_19
REMARK    5  A    between atoms: C4_21  and  C5_22
REMARK    6  A    between atoms: C6_23  and  O3_24
REMARK    7  A    between atoms: C7_26  and  O4_27
REMARK    8  A    between atoms: C8_29  and  O5_30
REMARK    9  A    between atoms: C12_37  and  C13_38
REMARK   10  A    between atoms: C13_38  and  N8_39
REMARK   11  A    between atoms: N8_39  and  N9_41
ROOT
HETATM    1  C5  UNL     1      14.682   3.763  15.763  1.00  0.00     0.029 A
HETATM    2  C6  UNL     1      14.554   5.130  15.410  1.00  0.00     0.114 A
HETATM    3  C7  UNL     1      13.393   5.595  14.853  1.00  0.00     0.134 A
HETATM    4  C8  UNL     1      12.358   4.718  14.644  1.00  0.00     0.114 A
HETATM    5  C9  UNL     1      12.469   3.379  14.985  1.00  0.00     0.027 A
HETATM    6  C10 UNL     1      11.410   2.536  14.755  1.00  0.00     0.102 A
HETATM    7  N7  UNL     1      11.470   1.247  15.063  1.00  0.00    -0.374 N
ATOM      8  H7  UNL     1      10.677   0.630  14.888  1.00  0.00     0.164 HD
HETATM    9  C11 UNL     1      12.600   0.776  15.609  1.00  0.00     0.097 A
HETATM   10  C12 UNL     1      13.735   1.535  15.888  1.00  0.00    -0.011 A
HETATM   11  C16 UNL     1      13.641   2.888  15.551  1.00  0.00     0.002 A
ENDROOT
BRANCH   1  12
HETATM   12  C4  UNL     1      15.923   3.397  16.313  1.00  0.00     0.122 C
HETATM   13  N6  UNL     1      17.005   3.755  15.586  1.00  0.00    -0.309 N
ATOM     14  H6  UNL     1      16.862   4.253  14.707  1.00  0.00     0.186 HD
BRANCH  13  15
HETATM   15  N5  UNL     1      18.287   3.474  15.982  1.00  0.00    -0.282 N
HETATM   16  C3  UNL     1      19.061   4.225  16.653  1.00  0.00     0.209 C
HETATM   17  N2  UNL     1      20.388   3.922  17.058  1.00  0.00    -0.181 N
HETATM   18  C2  UNL     1      18.765   5.569  17.161  1.00  0.00     0.368 C
HETATM   19  N3  UNL     1      20.846   4.905  17.963  1.00  0.00    -0.243 N
HETATM   20  C1  UNL     1      19.830   5.873  18.170  1.00  0.00     0.309 C
ATOM     21  H3  UNL     1      21.768   4.918  18.400  1.00  0.00     0.192 HD
HETATM   22  O1  UNL     1      19.777   6.804  18.999  1.00  0.00    -0.266 OA
ATOM     23  H5  UNL     1      18.659   2.564  15.709  1.00  0.00     0.188 HD
BRANCH  17  24
HETATM   24  N1  UNL     1      21.177   2.822  16.651  1.00  0.00    -0.322 N
ATOM     25  H12 UNL     1      21.807   2.777  15.850  1.00  0.00     0.179 HD
ATOM     26  H11 UNL     1      21.186   1.931  17.146  1.00  0.00     0.179 HD
ENDBRANCH  17  24
BRANCH  18  27
HETATM   27  N4  UNL     1      18.871   6.597  16.142  1.00  0.00    -0.030 N
ATOM     28  H43 UNL     1      18.137   6.546  15.435  1.00  0.00     0.279 HD
ATOM     29  H42 UNL     1      18.650   7.532  16.483  1.00  0.00     0.279 HD
ATOM     30  H41 UNL     1      19.812   6.517  15.757  1.00  0.00     0.279 HD
ENDBRANCH  18  27
BRANCH  18  31
HETATM   31  O2  UNL     1      17.540   5.638  17.798  1.00  0.00    -0.352 OA
ATOM     32  H2  UNL     1      17.108   4.798  17.697  1.00  0.00     0.213 HD
ENDBRANCH  18  31
ENDBRANCH  13  15
ENDBRANCH   1  12
BRANCH   2  33
HETATM   33  O3  UNL     1      15.598   6.029  15.617  1.00  0.00    -0.357 OA
ATOM     34  H3  UNL     1      16.389   5.993  15.091  1.00  0.00     0.217 HD
ENDBRANCH   2  33
BRANCH   3  35
HETATM   35  O4  UNL     1      13.235   6.923  14.496  1.00  0.00    -0.356 OA
ATOM     36  H4  UNL     1      12.802   7.548  15.066  1.00  0.00     0.218 HD
ENDBRANCH   3  35
BRANCH  10  37
HETATM   37  C13 UNL     1      14.928   0.954  16.464  1.00  0.00     0.180 C
BRANCH  37  38
HETATM   38  N8  UNL     1      15.431  -0.029  15.473  1.00  0.00    -0.324 N
ATOM     39  H8  UNL     1      15.057  -0.978  15.464  1.00  0.00     0.181 HD
BRANCH  38  40
HETATM   40  N9  UNL     1      16.429   0.344  14.540  1.00  0.00    -0.249 N
HETATM   41  C14 UNL     1      17.738   0.154  14.690  1.00  0.00     0.223 A
HETATM   42  N10 UNL     1      18.337   0.633  13.589  1.00  0.00    -0.293 N
HETATM   43  N11 UNL     1      17.415   1.109  12.777  1.00  0.00    -0.293 N
ATOM     44  H10 UNL     1      19.342   0.628  13.410  1.00  0.00     0.187 HD
HETATM   45  C15 UNL     1      16.223   0.938  13.348  1.00  0.00     0.223 A
ATOM     46  H11 UNL     1      17.584   1.536  11.866  1.00  0.00     0.187 HD
ENDBRANCH  38  40
ENDBRANCH  37  38
ENDBRANCH  10  37
BRANCH   4  47
HETATM   47  O5  UNL     1      11.165   5.165  14.078  1.00  0.00    -0.357 OA
ATOM     48  H5  UNL     1      10.841   6.037  14.272  1.00  0.00     0.217 HD
ENDBRANCH   4  47
TORSDOF 11
ENDMDL