MODEL 3
REMARK VINA RESULT: -6.979639153      1.406      1.467
REMARK  12 active torsions:
REMARK  status: ('A' for Active; 'I' for Inactive)
REMARK    1  A    between atoms: N1_1  and  C1_4
REMARK    2  A    between atoms: C2_9  and  S1_10
REMARK    3  A    between atoms: S1_10  and  C3_11
REMARK    4  A    between atoms: C3_11  and  O1_12
REMARK    5  A    between atoms: O1_12  and  C4_13
REMARK    6  A    between atoms: C4_13  and  C5_15
REMARK    7  A    between atoms: C6_16  and  C7_17
REMARK    8  A    between atoms: C9_24  and  O6_25
REMARK    9  A    between atoms: C10_27  and  N5_28
REMARK   10  A    between atoms: N5_28  and  O7_30
REMARK   11  A    between atoms: C11_32  and  O8_33
REMARK   12  A    between atoms: C11_32  and  C12_35
ROOT
HETATM    1  C5  UNL     1      19.768   9.281  18.716  1.00  0.00     0.114 C
HETATM    2  C6  UNL     1      18.616   9.551  18.148  1.00  0.00     0.125 C
HETATM    3  N4  UNL     1      18.087   8.499  17.280  1.00  0.00    -0.354 N
ATOM      4  H4  UNL     1      17.391   8.736  16.574  1.00  0.00     0.162 HD
HETATM    5  C8  UNL     1      18.528   7.138  17.400  1.00  0.00     0.273 C
HETATM    6  O5  UNL     1      19.258   7.027  18.583  1.00  0.00    -0.320 OA
HETATM    7  C9  UNL     1      20.314   7.923  18.376  1.00  0.00     0.228 C
HETATM    8  C10 UNL     1      20.685   7.828  16.893  1.00  0.00     0.223 C
HETATM    9  C11 UNL     1      19.671   6.862  16.400  1.00  0.00     0.217 C
ENDROOT
BRANCH   1  10
HETATM   10  C4  UNL     1      20.488  10.149  19.593  1.00  0.00     0.298 C
HETATM   11  O2  UNL     1      20.259  10.563  20.732  1.00  0.00    -0.259 OA
BRANCH  10  12
HETATM   12  O1  UNL     1      21.714  10.651  19.077  1.00  0.00    -0.307 OA
BRANCH  12  13
HETATM   13  C3  UNL     1      21.710  11.953  18.512  1.00  0.00     0.260 C
BRANCH  13  14
HETATM   14  S1  UNL     1      23.386  12.626  18.791  1.00  0.00    -0.077 SA
BRANCH  14  15
HETATM   15  C2  UNL     1      23.256  13.881  20.090  1.00  0.00     0.132 A
HETATM   16  N3  UNL     1      23.719  13.829  21.330  1.00  0.00    -0.286 N
HETATM   17  N2  UNL     1      23.538  14.807  22.118  1.00  0.00    -0.279 N
ATOM     18  H3  UNL     1      24.221  13.002  21.651  1.00  0.00     0.188 HD
HETATM   19  C1  UNL     1      22.876  15.880  21.672  1.00  0.00     0.159 A
ATOM     20  H2  UNL     1      23.892  14.775  23.074  1.00  0.00     0.189 HD
HETATM   21  S2  UNL     1      22.521  15.421  20.062  1.00  0.00    -0.027 SA
BRANCH  19  22
HETATM   22  N1  UNL     1      22.594  16.979  22.338  1.00  0.00    -0.379 N
ATOM     23  H12 UNL     1      21.731  17.518  22.405  1.00  0.00     0.158 HD
ATOM     24  H11 UNL     1      23.219  17.516  22.938  1.00  0.00     0.158 HD
ENDBRANCH  19  22
ENDBRANCH  14  15
ENDBRANCH  13  14
ENDBRANCH  12  13
ENDBRANCH  10  12
ENDBRANCH   1  10
BRANCH   2  25
HETATM   25  C7  UNL     1      17.899  10.769  18.323  1.00  0.00     0.227 C
HETATM   26  O3  UNL     1      18.075  11.863  17.813  1.00  0.00    -0.643 OA
HETATM   27  O4  UNL     1      16.803  10.713  19.233  1.00  0.00    -0.643 OA
ENDBRANCH   2  25
BRANCH   7  28
HETATM   28  O6  UNL     1      21.406   7.571  19.163  1.00  0.00    -0.359 OA
ATOM     29  H6  UNL     1      21.612   6.645  19.112  1.00  0.00     0.213 HD
ENDBRANCH   7  28
BRANCH   8  30
HETATM   30  N5  UNL     1      20.626   9.152  16.334  1.00  0.00    -0.291 N
ATOM     31  H5  UNL     1      19.747   9.650  16.194  1.00  0.00     0.188 HD
BRANCH  30  32
HETATM   32  O7  UNL     1      21.817   9.681  16.011  1.00  0.00    -0.294 OA
ATOM     33  H7  UNL     1      22.097  10.399  16.564  1.00  0.00     0.244 HD
ENDBRANCH  30  32
ENDBRANCH   8  30
BRANCH   9  34
HETATM   34  O8  UNL     1      20.147   5.580  16.687  1.00  0.00    -0.373 OA
ATOM     35  H8  UNL     1      20.163   5.503  17.633  1.00  0.00     0.211 HD
ENDBRANCH   9  34
BRANCH   9  36
HETATM   36  C12 UNL     1      19.227   6.975  15.026  1.00  0.00     0.216 C
HETATM   37  O9  UNL     1      19.114   5.897  14.342  1.00  0.00    -0.646 OA
HETATM   38  O10 UNL     1      18.906   8.124  14.365  1.00  0.00    -0.646 OA
ENDBRANCH   9  36
TORSDOF 12
ENDMDL