MODEL 1
REMARK VINA RESULT: -6.265309489      0.000      0.000
REMARK  12 active torsions:
REMARK  status: ('A' for Active; 'I' for Inactive)
REMARK    1  A    between atoms: N5_11  and  C5_12
REMARK    2  A    between atoms: C8_15  and  O1_16
REMARK    3  A    between atoms: N6_20  and  C10_21
REMARK    4  A    between atoms: C10_21  and  C11_22
REMARK    5  A    between atoms: C10_21  and  C12_25
REMARK    6  A    between atoms: C11_22  and  O3_23
REMARK    7  A    between atoms: C12_25  and  N7_26
REMARK    8  A    between atoms: C12_25  and  C13_30
REMARK    9  A    between atoms: C13_30  and  O4_31
REMARK   10  A    between atoms: C13_30  and  N8_33
REMARK   11  A    between atoms: N8_33  and  C14_35
REMARK   12  A    between atoms: C16_43  and  N12_44
ROOT
HETATM    1  C10 UNL     1      21.638  11.667  19.600  1.00  0.00     0.153 C
ENDROOT
BRANCH   1   2
HETATM    2  N6  UNL     1      22.911  11.690  18.908  1.00  0.00    -0.289 N
HETATM    3  C5  UNL     1      23.667  12.798  18.941  1.00  0.00     0.117 A
HETATM    4  C6  UNL     1      24.869  12.812  18.197  1.00  0.00     0.052 A
HETATM    5  C7  UNL     1      25.253  11.723  17.463  1.00  0.00     0.046 A
HETATM    6  C8  UNL     1      24.445  10.607  17.464  1.00  0.00     0.134 A
HETATM    7  C9  UNL     1      23.259  10.595  18.198  1.00  0.00     0.282 A
HETATM    8  O2  UNL     1      22.572   9.535  18.153  1.00  0.00    -0.265 OA
BRANCH   3   9
HETATM    9  N5  UNL     1      23.363  13.952  19.712  1.00  0.00    -0.285 N
HETATM   10  C2  UNL     1      22.656  15.115  19.330  1.00  0.00     0.191 C
HETATM   11  C1  UNL     1      23.454  15.985  18.355  1.00  0.00     0.056 C
HETATM   12  N1  UNL     1      22.334  15.986  20.435  1.00  0.00    -0.343 N
HETATM   13  C3  UNL     1      22.750  15.883  21.636  1.00  0.00     0.192 C
ATOM     14  H1  UNL     1      21.707  16.765  20.235  1.00  0.00     0.164 HD
HETATM   15  N2  UNL     1      22.346  16.835  22.633  1.00  0.00    -0.063 NA
HETATM   16  N3  UNL     1      23.577  14.776  21.953  1.00  0.00    -0.304 N
HETATM   17  C4  UNL     1      23.883  13.904  21.063  1.00  0.00     0.200 C
ATOM     18  H3  UNL     1      23.933  14.671  22.903  1.00  0.00     0.171 HD
HETATM   19  N4  UNL     1      24.743  12.810  21.467  1.00  0.00    -0.063 NA
ENDBRANCH   3   9
BRANCH   6  20
HETATM   20  O1  UNL     1      24.798   9.475  16.733  1.00  0.00    -0.356 OA
ATOM     21  H1  UNL     1      25.334   8.795  17.124  1.00  0.00     0.218 HD
ENDBRANCH   6  20
ENDBRANCH   1   2
BRANCH   1  22
HETATM   22  C11 UNL     1      21.529  10.550  20.626  1.00  0.00     0.192 C
BRANCH  22  23
HETATM   23  O3  UNL     1      22.263  10.759  21.777  1.00  0.00    -0.399 OA
ATOM     24  H3  UNL     1      22.890  10.074  21.972  1.00  0.00     0.209 HD
ENDBRANCH  22  23
ENDBRANCH   1  22
BRANCH   1  25
HETATM   25  C12 UNL     1      20.493  11.511  18.582  1.00  0.00     0.256 C
BRANCH  25  26
HETATM   26  N7  UNL     1      19.888  12.816  18.393  1.00  0.00    -0.069 N
ATOM     27  H73 UNL     1      20.547  13.582  18.531  1.00  0.00     0.275 HD
ATOM     28  H72 UNL     1      19.659  13.009  17.418  1.00  0.00     0.275 HD
ATOM     29  H71 UNL     1      19.077  12.875  19.009  1.00  0.00     0.275 HD
ENDBRANCH  25  26
BRANCH  25  30
HETATM   30  C13 UNL     1      19.443  10.562  19.183  1.00  0.00     0.252 C
BRANCH  30  31
HETATM   31  O4  UNL     1      18.477  11.381  19.738  1.00  0.00    -0.375 OA
ATOM     32  H4  UNL     1      18.934  12.170  20.005  1.00  0.00     0.212 HD
ENDBRANCH  30  31
BRANCH  30  33
HETATM   33  N8  UNL     1      18.790   9.780  18.151  1.00  0.00    -0.344 N
ATOM     34  H8  UNL     1      17.893  10.117  17.802  1.00  0.00     0.163 HD
BRANCH  33  35
HETATM   35  C14 UNL     1      19.302   8.583  17.590  1.00  0.00     0.162 A
HETATM   36  N9  UNL     1      20.303   7.887  18.154  1.00  0.00    -0.282 N
HETATM   37  N10 UNL     1      20.783   6.748  17.630  1.00  0.00    -0.294 N
ATOM     38  H9  UNL     1      20.717   8.239  19.018  1.00  0.00     0.188 HD
HETATM   39  C15 UNL     1      20.262   6.258  16.496  1.00  0.00     0.199 A
ATOM     40  H10 UNL     1      21.545   6.255  18.094  1.00  0.00     0.187 HD
HETATM   41  N11 UNL     1      19.258   6.912  15.886  1.00  0.00    -0.335 N
HETATM   42  C16 UNL     1      18.787   8.051  16.423  1.00  0.00     0.145 A
ATOM     43  H11 UNL     1      18.857   6.547  15.022  1.00  0.00     0.168 HD
BRANCH  42  44
HETATM   44  N12 UNL     1      17.825   8.665  15.827  1.00  0.00    -0.382 N
ATOM     45 2H12 UNL     1      17.321   9.394  16.331  1.00  0.00     0.157 HD
ATOM     46 1H12 UNL     1      17.591   8.406  14.868  1.00  0.00     0.157 HD
ENDBRANCH  42  44
ENDBRANCH  33  35
ENDBRANCH  30  33
ENDBRANCH  25  30
ENDBRANCH   1  25
TORSDOF 12
ENDMDL