MODEL 5
REMARK VINA RESULT: -8.923226523      1.332      2.238
REMARK  8 active torsions:
REMARK  status: ('A' for Active; 'I' for Inactive)
REMARK    1  A    between atoms: C2_3  and  C3_4
REMARK    2  A    between atoms: C2_3  and  N12_35
REMARK    3  A    between atoms: C3_4  and  C4_5
REMARK    4  A    between atoms: C4_5  and  N2_6
REMARK    5  A    between atoms: N2_6  and  C5_8
REMARK    6  A    between atoms: C8_17  and  N6_18
REMARK    7  A    between atoms: C9_23  and  N8_24
REMARK    8  A    between atoms: C13_39  and  C14_40
ROOT
HETATM    1  N1  UNL     1      18.314   3.792  14.930  1.00  0.00    -0.195 NA
HETATM    2  C1  UNL     1      17.505   4.129  15.695  1.00  0.00     0.086 C
HETATM    3  C2  UNL     1      16.483   4.540  16.657  1.00  0.00     0.215 C
ENDROOT
BRANCH   3   4
HETATM    4  C3  UNL     1      16.926   5.800  17.367  1.00  0.00     0.061 C
BRANCH   4   5
HETATM    5  C4  UNL     1      18.273   6.271  16.920  1.00  0.00     0.124 C
BRANCH   5   6
HETATM    6  N2  UNL     1      19.033   6.883  17.981  1.00  0.00    -0.374 N
ATOM      7  H2  UNL     1      19.506   6.279  18.652  1.00  0.00     0.161 HD
BRANCH   6   8
HETATM    8  C5  UNL     1      19.151   8.284  18.131  1.00  0.00     0.131 A
HETATM    9  N3  UNL     1      18.072   9.099  18.214  1.00  0.00    -0.306 N
HETATM   10  C6  UNL     1      18.171  10.432  18.358  1.00  0.00     0.277 A
ATOM     11  H3  UNL     1      17.142   8.681  18.166  1.00  0.00     0.170 HD
HETATM   12  O1  UNL     1      17.135  11.162  18.431  1.00  0.00    -0.266 OA
HETATM   13  C7  UNL     1      19.403  11.062  18.429  1.00  0.00     0.147 A
HETATM   14  N4  UNL     1      19.535  12.392  18.572  1.00  0.00    -0.257 N
HETATM   15  C11 UNL     1      20.512  10.240  18.345  1.00  0.00     0.111 A
HETATM   16  N5  UNL     1      20.773  12.885  18.629  1.00  0.00     0.091 N
ATOM     17  H4  UNL     1      18.719  13.002  18.634  1.00  0.00     0.189 HD
HETATM   18  C8  UNL     1      20.972  14.226  18.774  1.00  0.00     0.726 A
HETATM   19  C10 UNL     1      21.870  12.122  18.552  1.00  0.00     0.733 A
HETATM   20  N7  UNL     1      22.205  14.758  18.835  1.00  0.00    -0.020 N
HETATM   21  C9  UNL     1      23.263  13.935  18.751  1.00  0.00     0.705 A
ATOM     22  H7  UNL     1      22.334  15.763  18.943  1.00  0.00     0.203 HD
HETATM   23  N9  UNL     1      23.124  12.619  18.610  1.00  0.00    -0.020 N
ATOM     24  H9  UNL     1      23.937  12.007  18.547  1.00  0.00     0.203 HD
HETATM   25  N10 UNL     1      21.739  10.773  18.407  1.00  0.00    -0.184 N
ATOM     26  H10 UNL     1      22.565  10.177  18.347  1.00  0.00     0.184 HD
HETATM   27  C12 UNL     1      20.388   8.874  18.199  1.00  0.00     0.119 A
HETATM   28  N11 UNL     1      21.536   8.028  18.113  1.00  0.00    -0.096 NA
BRANCH  18  29
HETATM   29  N6  UNL     1      19.950  15.008  18.853  1.00  0.00    -0.232 N
ATOM     30  H62 UNL     1      19.200  14.911  18.169  1.00  0.00     0.174 HD
ATOM     31  H61 UNL     1      19.913  15.703  19.598  1.00  0.00     0.174 HD
ENDBRANCH  18  29
BRANCH  21  32
HETATM   32  N8  UNL     1      24.450  14.430  18.809  1.00  0.00    -0.234 N
ATOM     33  H82 UNL     1      24.959  14.586  17.939  1.00  0.00     0.174 HD
ATOM     34  H81 UNL     1      24.853  14.653  19.719  1.00  0.00     0.174 HD
ENDBRANCH  21  32
ENDBRANCH   6   8
ENDBRANCH   5   6
ENDBRANCH   4   5
ENDBRANCH   3   4
BRANCH   3  35
HETATM   35  N12 UNL     1      15.238   4.811  15.933  1.00  0.00    -0.242 N
HETATM   36  N13 UNL     1      14.904   5.953  15.341  1.00  0.00    -0.017 NA
HETATM   37  N14 UNL     1      13.699   5.839  14.781  1.00  0.00    -0.276 N
HETATM   38  C13 UNL     1      13.231   4.599  15.008  1.00  0.00     0.153 A
ATOM     39  H14 UNL     1      13.212   6.573  14.266  1.00  0.00     0.184 HD
HETATM   40  C15 UNL     1      14.213   3.962  15.736  1.00  0.00     0.166 A
HETATM   41  N16 UNL     1      14.134   2.620  16.195  1.00  0.00    -0.079 NA
BRANCH  38  42
HETATM   42  C14 UNL     1      11.939   4.035  14.571  1.00  0.00     0.285 C
HETATM   43  N15 UNL     1      10.931   4.831  13.995  1.00  0.00    -0.056 NA
HETATM   44  O2  UNL     1      11.746   2.805  14.726  1.00  0.00    -0.269 OA
ENDBRANCH  38  42
ENDBRANCH   3  35
TORSDOF 8
ENDMDL