MODEL 1
REMARK VINA RESULT: -7.659733528      0.000      0.000
REMARK  12 active torsions:
REMARK  status: ('A' for Active; 'I' for Inactive)
REMARK    1  A    between atoms: C2_3  and  C3_4
REMARK       I    between atoms: C3_4  and  N2_6
REMARK    2  A    between atoms: N2_6  and  O2_8
REMARK    3  A    between atoms: O2_8  and  C4_9
REMARK    4  A    between atoms: C4_9  and  O3_11
REMARK    5  A    between atoms: C4_9  and  C6_13
REMARK    6  A    between atoms: C6_13  and  O4_14
REMARK    7  A    between atoms: C8_22  and  C9_23
REMARK    8  A    between atoms: C9_23  and  O5_25
REMARK    9  A    between atoms: C9_23  and  C11_27
REMARK   10  A    between atoms: C11_27  and  N6_28
REMARK   11  A    between atoms: C13_36  and  N10_37
REMARK   12  A    between atoms: C14_42  and  N12_43
ROOT
HETATM    1  C6  UNL     1      15.143   3.289  15.608  1.00  0.00     0.288 C
HETATM    2  C7  UNL     1      13.840   3.878  15.306  1.00  0.00     0.096 C
HETATM    3  N3  UNL     1      12.832   4.357  15.077  1.00  0.00    -0.194 NA
ENDROOT
BRANCH   1   4
HETATM    4  C4  UNL     1      16.203   4.070  14.819  1.00  0.00     0.223 C
HETATM    5  C5  UNL     1      15.890   3.802  13.371  1.00  0.00     0.085 C
BRANCH   4   6
HETATM    6  O2  UNL     1      16.048   5.396  15.196  1.00  0.00    -0.234 OA
BRANCH   6   7
HETATM    7  N2  UNL     1      17.151   5.926  15.744  1.00  0.00    -0.225 N
HETATM    8  C3  UNL     1      17.114   6.369  17.109  1.00  0.00     0.310 C
HETATM    9  O1  UNL     1      16.028   6.224  17.715  1.00  0.00    -0.262 OA
ATOM     10  H2  UNL     1      18.008   6.014  15.197  1.00  0.00     0.198 HD
BRANCH   8  11
HETATM   11  C2  UNL     1      18.319   6.951  17.695  1.00  0.00     0.194 A
HETATM   12  N1  UNL     1      18.766   8.204  17.605  1.00  0.00    -0.318 N
HETATM   13  C1  UNL     1      18.060   9.288  16.969  1.00  0.00     0.159 C
HETATM   14  C8  UNL     1      19.987   8.339  18.254  1.00  0.00     0.140 A
HETATM   15  N5  UNL     1      20.201   7.110  18.716  1.00  0.00    -0.284 N
HETATM   16  N4  UNL     1      19.252   6.270  18.411  1.00  0.00    -0.279 N
ATOM     17  H5  UNL     1      21.027   6.851  19.256  1.00  0.00     0.188 HD
ATOM     18  H4  UNL     1      19.216   5.282  18.663  1.00  0.00     0.189 HD
BRANCH  14  19
HETATM   19  C9  UNL     1      20.769   9.569  18.310  1.00  0.00     0.147 C
HETATM   20  C10 UNL     1      22.141   9.152  18.925  1.00  0.00     0.060 C
BRANCH  19  21
HETATM   21  O5  UNL     1      21.054  10.022  16.997  1.00  0.00    -0.377 OA
ATOM     22  H5  UNL     1      21.807  10.600  17.010  1.00  0.00     0.211 HD
ENDBRANCH  19  21
BRANCH  19  23
HETATM   23  C11 UNL     1      20.282  10.677  19.156  1.00  0.00     0.136 C
BRANCH  23  24
HETATM   24  N6  UNL     1      20.042  11.952  18.608  1.00  0.00    -0.246 N
HETATM   25  N7  UNL     1      18.874  12.171  17.922  1.00  0.00    -0.234 N
HETATM   26  N8  UNL     1      18.791  13.394  17.550  1.00  0.00    -0.268 N
ATOM     27  H7  UNL     1      18.169  11.459  17.735  1.00  0.00     0.209 HD
HETATM   28  C12 UNL     1      19.922  14.052  17.981  1.00  0.00     0.169 A
ATOM     29  H8  UNL     1      18.021  13.809  17.026  1.00  0.00     0.190 HD
HETATM   30  N9  UNL     1      20.309  15.306  17.832  1.00  0.00    -0.173 N
HETATM   31  C15 UNL     1      20.673  13.103  18.637  1.00  0.00     0.146 A
HETATM   32  C13 UNL     1      21.513  15.767  18.332  1.00  0.00     0.679 A
ATOM     33  H9  UNL     1      19.701  15.955  17.333  1.00  0.00     0.186 HD
HETATM   34  N11 UNL     1      22.264  14.867  18.972  1.00  0.00    -0.175 N
HETATM   35  C14 UNL     1      21.899  13.578  19.140  1.00  0.00     0.147 A
ATOM     36  H11 UNL     1      23.160  15.170  19.354  1.00  0.00     0.186 HD
BRANCH  32  37
HETATM   37  N10 UNL     1      21.918  16.954  18.212  1.00  0.00    -0.234 N
ATOM     38 2H10 UNL     1      22.791  17.148  17.723  1.00  0.00     0.174 HD
ATOM     39 1H10 UNL     1      21.420  17.766  18.576  1.00  0.00     0.174 HD
ENDBRANCH  32  37
BRANCH  35  40
HETATM   40  N12 UNL     1      22.699  12.833  19.714  1.00  0.00    -0.383 N
ATOM     41 2H12 UNL     1      23.600  12.591  19.301  1.00  0.00     0.157 HD
ATOM     42 1H12 UNL     1      22.439  12.491  20.639  1.00  0.00     0.157 HD
ENDBRANCH  35  40
ENDBRANCH  23  24
ENDBRANCH  19  23
ENDBRANCH  14  19
ENDBRANCH   8  11
ENDBRANCH   6   7
ENDBRANCH   4   6
BRANCH   4  43
HETATM   43  O3  UNL     1      17.427   3.530  15.121  1.00  0.00    -0.361 OA
ATOM     44  H3  UNL     1      17.516   2.607  14.913  1.00  0.00     0.213 HD
ENDBRANCH   4  43
ENDBRANCH   1   4
BRANCH   1  45
HETATM   45  O4  UNL     1      15.451   3.441  16.952  1.00  0.00    -0.376 OA
ATOM     46  H4  UNL     1      14.972   2.767  17.421  1.00  0.00     0.211 HD
ENDBRANCH   1  45
TORSDOF 12
ENDMDL