MODEL 2
REMARK VINA RESULT: -5.733000545      1.860      5.552
REMARK  15 active torsions:
REMARK  status: ('A' for Active; 'I' for Inactive)
REMARK    1  A    between atoms: O1_2  and  C2_3
REMARK    2  A    between atoms: C2_3  and  C3_4
REMARK    3  A    between atoms: C4_7  and  C5_8
REMARK    4  A    between atoms: C5_8  and  O2_9
REMARK    5  A    between atoms: C5_8  and  C6_11
REMARK    6  A    between atoms: C6_11  and  O3_12
REMARK    7  A    between atoms: C6_11  and  C7_14
REMARK    8  A    between atoms: C7_14  and  O4_15
REMARK    9  A    between atoms: C7_14  and  C8_17
REMARK   10  A    between atoms: C8_17  and  O5_18
REMARK   11  A    between atoms: C8_17  and  O6_20
REMARK   12  A    between atoms: C10_24  and  O8_25
REMARK   13  A    between atoms: C11_27  and  N2_28
REMARK   14  A    between atoms: N2_28  and  O9_30
REMARK   15  A    between atoms: C14_33  and  O10_34
ROOT
HETATM    1  C3  UNL     1      19.063   8.058  18.136  1.00  0.00     0.282 C
HETATM    2  N1  UNL     1      19.722   8.465  16.901  1.00  0.00    -0.108 NA
HETATM    3  S1  UNL     1      20.952   9.546  17.609  1.00  0.00    -0.013 SA
HETATM    4  C4  UNL     1      20.131   9.710  19.248  1.00  0.00     0.190 C
HETATM    5  O7  UNL     1      18.871   9.174  18.895  1.00  0.00    -0.308 OA
HETATM    6  C9  UNL     1      20.792   8.788  20.150  1.00  0.00     0.062 A
HETATM    7  C10 UNL     1      21.583   9.138  21.211  1.00  0.00     0.107 A
HETATM    8  C11 UNL     1      22.165   8.152  22.007  1.00  0.00     0.093 A
HETATM    9  C13 UNL     1      21.958   6.801  21.741  1.00  0.00     0.074 A
HETATM   10  C14 UNL     1      21.162   6.465  20.671  1.00  0.00     0.102 A
HETATM   11  C15 UNL     1      20.587   7.439  19.886  1.00  0.00     0.120 A
HETATM   12  O11 UNL     1      19.787   7.063  18.814  1.00  0.00    -0.293 OA
ENDROOT
BRANCH   4  13
HETATM   13  C5  UNL     1      19.960  11.120  19.637  1.00  0.00     0.201 C
BRANCH  13  14
HETATM   14  O2  UNL     1      18.645  11.383  20.008  1.00  0.00    -0.389 OA
ATOM     15  H2  UNL     1      18.530  12.298  20.240  1.00  0.00     0.210 HD
ENDBRANCH  13  14
BRANCH  13  16
HETATM   16  C6  UNL     1      20.160  12.018  18.391  1.00  0.00     0.184 C
BRANCH  16  17
HETATM   17  O3  UNL     1      18.936  12.576  18.059  1.00  0.00    -0.390 OA
ATOM     18  H3  UNL     1      18.952  12.797  17.135  1.00  0.00     0.210 HD
ENDBRANCH  16  17
BRANCH  16  19
HETATM   19  C7  UNL     1      21.103  13.142  18.808  1.00  0.00     0.204 C
BRANCH  19  20
HETATM   20  O4  UNL     1      22.366  12.763  18.298  1.00  0.00    -0.388 OA
ATOM     21  H4  UNL     1      22.848  13.576  18.213  1.00  0.00     0.210 HD
ENDBRANCH  19  20
BRANCH  19  22
HETATM   22  C8  UNL     1      20.698  14.455  18.202  1.00  0.00     0.285 C
BRANCH  22  23
HETATM   23  O5  UNL     1      19.711  15.049  18.961  1.00  0.00    -0.369 OA
ATOM     24  H5  UNL     1      18.977  14.456  19.072  1.00  0.00     0.212 HD
ENDBRANCH  22  23
BRANCH  22  25
HETATM   25  O6  UNL     1      21.812  15.302  18.241  1.00  0.00    -0.369 OA
ATOM     26  H6  UNL     1      21.845  15.694  19.106  1.00  0.00     0.212 HD
ENDBRANCH  22  25
ENDBRANCH  19  22
ENDBRANCH  16  19
ENDBRANCH  13  16
ENDBRANCH   4  13
BRANCH   1  27
HETATM   27  C2  UNL     1      17.718   7.507  17.761  1.00  0.00     0.257 C
BRANCH  27  28
HETATM   28  O1  UNL     1      17.605   6.184  18.186  1.00  0.00    -0.389 OA
HETATM   29  C1  UNL     1      16.599   5.534  17.475  1.00  0.00     0.201 C
ENDBRANCH  27  28
ENDBRANCH   1  27
BRANCH   7  30
HETATM   30  O8  UNL     1      21.841  10.451  21.543  1.00  0.00    -0.358 OA
ATOM     31  H8  UNL     1      22.377  10.694  22.288  1.00  0.00     0.217 HD
ENDBRANCH   7  30
BRANCH   8  32
HETATM   32  N2  UNL     1      22.972   8.449  23.137  1.00  0.00    -0.263 N
HETATM   33  C12 UNL     1      24.370   8.076  23.121  1.00  0.00     0.185 C
BRANCH  32  34
HETATM   34  O9  UNL     1      22.482   9.071  24.234  1.00  0.00    -0.287 OA
ATOM     35  H9  UNL     1      22.190   8.594  25.003  1.00  0.00     0.244 HD
ENDBRANCH  32  34
ENDBRANCH   8  32
BRANCH  10  36
HETATM   36  O10 UNL     1      20.945   5.125  20.390  1.00  0.00    -0.358 OA
ATOM     37  H10 UNL     1      20.070   4.770  20.494  1.00  0.00     0.217 HD
ENDBRANCH  10  36
TORSDOF 15
ENDMDL