MODEL 1
REMARK VINA RESULT: -6.792561127      0.000      0.000
REMARK  13 active torsions:
REMARK  status: ('A' for Active; 'I' for Inactive)
REMARK    1  A    between atoms: O1_2  and  C2_3
REMARK    2  A    between atoms: C2_3  and  C3_5
REMARK    3  A    between atoms: C4_8  and  N2_9
REMARK    4  A    between atoms: N2_9  and  C5_11
REMARK    5  A    between atoms: C6_14  and  N4_15
REMARK    6  A    between atoms: C7_20  and  O3_21
REMARK    7  A    between atoms: C8_23  and  C9_24
REMARK    8  A    between atoms: C9_24  and  C10_25
REMARK    9  A    between atoms: C10_25  and  C11_30
REMARK   10  A    between atoms: N6_26  and  O4_28
REMARK   11  A    between atoms: C14_35  and  N7_36
REMARK   12  A    between atoms: C15_40  and  N8_41
REMARK   13  A    between atoms: N8_41  and  N9_42
ROOT
HETATM    1  N2  UNL     1      22.386  12.438  19.751  1.00  0.00    -0.348 N
ATOM      2  H2  UNL     1      22.289  11.466  20.044  1.00  0.00     0.163 HD
ENDROOT
BRANCH   1   3
HETATM    3  C4  UNL     1      23.592  13.105  20.121  1.00  0.00     0.258 C
HETATM    4  N1  UNL     1      23.255  14.349  20.748  1.00  0.00    -0.344 N
HETATM    5  C3  UNL     1      23.396  14.774  21.941  1.00  0.00     0.177 C
ATOM      6  H1  UNL     1      22.820  15.024  20.119  1.00  0.00     0.163 HD
HETATM    7  N10 UNL     1      23.964  14.080  23.039  1.00  0.00    -0.349 N
HETATM    8  C15 UNL     1      24.118  12.725  23.448  1.00  0.00     0.235 C
ATOM      9  H10 UNL     1      24.370  14.724  23.718  1.00  0.00     0.163 HD
HETATM   10  C14 UNL     1      24.174  11.710  22.353  1.00  0.00     0.296 C
HETATM   11  C13 UNL     1      24.453  12.323  21.025  1.00  0.00     0.202 C
HETATM   12  O6  UNL     1      25.588  12.140  20.629  1.00  0.00    -0.291 OA
BRANCH   5  13
HETATM   13  C2  UNL     1      22.913  16.149  22.211  1.00  0.00     0.326 C
HETATM   14  O2  UNL     1      21.973  16.575  21.503  1.00  0.00    -0.256 OA
BRANCH  13  15
HETATM   15  O1  UNL     1      23.445  16.950  23.181  1.00  0.00    -0.320 OA
HETATM   16  C1  UNL     1      22.821  17.249  24.415  1.00  0.00     0.213 C
ENDBRANCH  13  15
ENDBRANCH   5  13
BRANCH   8  17
HETATM   17  N8  UNL     1      23.140  12.326  24.456  1.00  0.00    -0.120 NA
BRANCH  17  18
HETATM   18  N9  UNL     1      22.554  13.453  25.056  1.00  0.00    -0.346 N
ATOM     19  H92 UNL     1      23.060  14.314  25.261  1.00  0.00     0.172 HD
ATOM     20  H91 UNL     1      21.567  13.287  25.252  1.00  0.00     0.172 HD
ENDBRANCH  17  18
ENDBRANCH   8  17
BRANCH  10  21
HETATM   21  N7  UNL     1      22.963  10.928  22.202  1.00  0.00    -0.065 N
ATOM     22  H73 UNL     1      23.100  10.071  21.665  1.00  0.00     0.275 HD
ATOM     23  H72 UNL     1      22.658  10.486  23.070  1.00  0.00     0.275 HD
ATOM     24  H71 UNL     1      22.262  11.549  21.798  1.00  0.00     0.275 HD
ENDBRANCH  10  21
ENDBRANCH   1   3
BRANCH   1  25
HETATM   25  C5  UNL     1      21.407  12.942  19.082  1.00  0.00     0.129 A
HETATM   26  N3  UNL     1      21.397  14.223  18.674  1.00  0.00    -0.176 N
HETATM   27  C6  UNL     1      20.371  14.746  17.971  1.00  0.00     0.679 A
ATOM     28  H3  UNL     1      22.191  14.819  18.904  1.00  0.00     0.186 HD
HETATM   29  N5  UNL     1      19.302  13.998  17.646  1.00  0.00    -0.170 N
HETATM   30  C7  UNL     1      19.239  12.696  18.023  1.00  0.00     0.165 A
ATOM     31  H5  UNL     1      18.537  14.411  17.114  1.00  0.00     0.186 HD
HETATM   32  C8  UNL     1      20.293  12.184  18.737  1.00  0.00     0.043 A
BRANCH  27  33
HETATM   33  N4  UNL     1      20.368  15.977  17.581  1.00  0.00    -0.234 N
ATOM     34  H42 UNL     1      20.102  16.156  16.613  1.00  0.00     0.174 HD
ATOM     35  H41 UNL     1      20.617  16.743  18.206  1.00  0.00     0.174 HD
ENDBRANCH  27  33
BRANCH  30  36
HETATM   36  O3  UNL     1      18.169  11.879  17.719  1.00  0.00    -0.345 OA
ATOM     37  H3  UNL     1      17.409  12.182  17.236  1.00  0.00     0.219 HD
ENDBRANCH  30  36
BRANCH  32  38
HETATM   38  C9  UNL     1      20.301  10.772  19.188  1.00  0.00     0.110 C
BRANCH  38  39
HETATM   39  C10 UNL     1      20.496   9.824  18.070  1.00  0.00     0.081 C
HETATM   40  N6  UNL     1      21.231  10.127  17.078  1.00  0.00    -0.270 N
ATOM     41  H6  UNL     1      21.692  11.036  17.052  1.00  0.00     0.194 HD
BRANCH  40  42
HETATM   42  O4  UNL     1      21.409   9.246  16.044  1.00  0.00    -0.290 OA
ATOM     43  H4  UNL     1      20.670   8.956  15.521  1.00  0.00     0.244 HD
ENDBRANCH  40  42
BRANCH  39  44
HETATM   44  C11 UNL     1      19.836   8.548  18.127  1.00  0.00     0.170 C
HETATM   45  C12 UNL     1      18.359   8.410  17.880  1.00  0.00     0.098 C
HETATM   46  O5  UNL     1      20.513   7.524  18.392  1.00  0.00    -0.291 OA
ENDBRANCH  39  44
ENDBRANCH  38  39
ENDBRANCH  32  38
ENDBRANCH   1  25
TORSDOF 13
ENDMDL