MODEL 4
REMARK VINA RESULT: -7.553448915      2.849      7.424
REMARK  9 active torsions:
REMARK  status: ('A' for Active; 'I' for Inactive)
REMARK    1  A    between atoms: N1_1  and  C1_4
REMARK    2  A    between atoms: C2_7  and  N3_8
REMARK    3  A    between atoms: C3_12  and  C4_13
REMARK    4  A    between atoms: C7_21  and  N9_22
REMARK    5  A    between atoms: C8_27  and  C9_28
REMARK    6  A    between atoms: C9_28  and  O1_29
REMARK    7  A    between atoms: C9_28  and  C10_31
REMARK    8  A    between atoms: C10_31  and  O2_32
REMARK    9  A    between atoms: C10_31  and  N11_34
ROOT
HETATM    1  C1  UNL     1      18.826   0.886  14.869  1.00  0.00     0.144 A
HETATM    2  N2  UNL     1      19.142   2.174  14.868  1.00  0.00    -0.320 N
ATOM      3  H2  UNL     1      20.039   2.489  14.499  1.00  0.00     0.169 HD
HETATM    4  C2  UNL     1      18.273   3.038  15.352  1.00  0.00     0.161 A
HETATM    5  C8  UNL     1      17.094   2.539  15.828  1.00  0.00     0.066 A
HETATM    6  S1  UNL     1      17.275   0.862  15.563  1.00  0.00    -0.052 SA
ENDROOT
BRANCH   4   7
HETATM    7  N3  UNL     1      18.546   4.476  15.374  1.00  0.00    -0.161 N
HETATM    8  N4  UNL     1      18.810   5.250  14.335  1.00  0.00     0.004 NA
HETATM    9  N5  UNL     1      19.013   6.492  14.744  1.00  0.00    -0.266 N
HETATM   10  C3  UNL     1      18.879   6.535  16.097  1.00  0.00     0.152 A
ATOM     11  H5  UNL     1      19.234   7.287  14.143  1.00  0.00     0.186 HD
HETATM   12  N10 UNL     1      18.589   5.254  16.433  1.00  0.00    -0.262 N
ATOM     13  H10 UNL     1      18.426   4.934  17.388  1.00  0.00     0.190 HD
BRANCH  10  14
HETATM   14  C4  UNL     1      19.030   7.711  16.944  1.00  0.00     0.095 A
HETATM   15  C5  UNL     1      18.344   8.884  16.610  1.00  0.00     0.135 A
HETATM   16  N6  UNL     1      17.527   8.857  15.456  1.00  0.00    -0.082 NA
HETATM   17  N7  UNL     1      18.475   9.980  17.379  1.00  0.00    -0.340 N
HETATM   18  C6  UNL     1      19.247  10.018  18.481  1.00  0.00     0.183 A
ATOM     19  H7  UNL     1      17.966  10.823  17.114  1.00  0.00     0.167 HD
HETATM   20  N8  UNL     1      19.910   8.905  18.817  1.00  0.00    -0.338 N
HETATM   21  C7  UNL     1      19.813   7.761  18.071  1.00  0.00     0.117 A
ATOM     22  H8  UNL     1      20.501   8.908  19.648  1.00  0.00     0.168 HD
BRANCH  21  23
HETATM   23  N9  UNL     1      20.457   6.703  18.412  1.00  0.00    -0.385 N
ATOM     24  H92 UNL     1      21.344   6.470  17.965  1.00  0.00     0.157 HD
ATOM     25  H91 UNL     1      20.059   6.107  19.138  1.00  0.00     0.157 HD
ENDBRANCH  21  23
ENDBRANCH  10  14
ENDBRANCH   4   7
BRANCH   5  26
HETATM   26  C9  UNL     1      15.935   3.288  16.438  1.00  0.00     0.211 C
BRANCH  26  27
HETATM   27  O1  UNL     1      16.333   3.645  17.714  1.00  0.00    -0.386 OA
ATOM     28  H1  UNL     1      15.722   4.310  18.007  1.00  0.00     0.210 HD
ENDBRANCH  26  27
BRANCH  26  29
HETATM   29  C10 UNL     1      14.716   2.436  16.485  1.00  0.00     0.263 C
BRANCH  29  30
HETATM   30  O2  UNL     1      14.365   1.978  17.733  1.00  0.00    -0.373 OA
ATOM     31  H2  UNL     1      14.644   1.092  17.936  1.00  0.00     0.212 HD
ENDBRANCH  29  30
BRANCH  29  32
HETATM   32  N11 UNL     1      13.626   3.006  15.755  1.00  0.00    -0.278 N
HETATM   33  C11 UNL     1      13.578   4.242  15.252  1.00  0.00     0.130 A
HETATM   34  C12 UNL     1      12.478   4.727  14.546  1.00  0.00     0.130 A
HETATM   35  N12 UNL     1      12.467   6.045  14.026  1.00  0.00    -0.095 NA
HETATM   36  C13 UNL     1      11.390   3.917  14.349  1.00  0.00     0.275 A
HETATM   37  O3  UNL     1      10.368   4.304  13.718  1.00  0.00    -0.266 OA
HETATM   38  N13 UNL     1      11.447   2.666  14.860  1.00  0.00    -0.274 N
HETATM   39  C14 UNL     1      12.519   2.235  15.532  1.00  0.00     0.331 A
ATOM     40  H13 UNL     1      10.654   2.038  14.730  1.00  0.00     0.173 HD
HETATM   41  O4  UNL     1      12.553   1.054  16.005  1.00  0.00    -0.246 OA
ENDBRANCH  29  32
ENDBRANCH  26  29
ENDBRANCH   5  26
BRANCH   1  42
HETATM   42  N1  UNL     1      19.561  -0.111  14.428  1.00  0.00    -0.380 N
ATOM     43  H12 UNL     1      20.577  -0.205  14.397  1.00  0.00     0.158 HD
ATOM     44  H11 UNL     1      19.230  -0.990  14.031  1.00  0.00     0.158 HD
ENDBRANCH   1  42
TORSDOF 9
ENDMDL