MODEL 4
REMARK VINA RESULT: -7.311396943      0.979      1.035
REMARK  4 active torsions:
REMARK  status: ('A' for Active; 'I' for Inactive)
REMARK    1  A    between atoms: N1_2  and  C2_5
REMARK    2  A    between atoms: N2_7  and  C4_8
REMARK    3  A    between atoms: C4_8  and  C5_9
REMARK    4  A    between atoms: C5_9  and  C6_10
ROOT
HETATM    1  C4  UNL     1      -4.549   4.695  12.399  1.00  0.00     0.128 C
ENDROOT
BRANCH   1   2
HETATM    2  N2  UNL     1      -3.551   3.819  11.821  1.00  0.00    -0.350 N
HETATM    3  C3  UNL     1      -3.902   2.561  11.221  1.00  0.00     0.161 C
HETATM    4  C2  UNL     1      -2.889   1.508  11.539  1.00  0.00     0.237 C
HETATM    5  C17 UNL     1      -1.500   1.915  11.186  1.00  0.00     0.211 C
HETATM    6  C16 UNL     1      -1.117   3.173  11.928  1.00  0.00     0.142 C
HETATM    7  F1  UNL     1      -1.291   2.110   9.845  1.00  0.00    -0.247 F
HETATM    8  C15 UNL     1      -2.175   4.218  11.769  1.00  0.00     0.222 C
HETATM    9  O1  UNL     1      -1.854   5.395  11.603  1.00  0.00    -0.273 OA
BRANCH   4  10
HETATM   10  N1  UNL     1      -3.279   0.301  10.797  1.00  0.00    -0.070 N
HETATM   11  C1  UNL     1      -3.922  -0.688  11.585  1.00  0.00     0.267 C
ATOM     12  H12 UNL     1      -2.473  -0.097  10.314  1.00  0.00     0.277 HD
ATOM     13  H11 UNL     1      -3.858   0.548   9.994  1.00  0.00     0.277 HD
ENDBRANCH   4  10
ENDBRANCH   1   2
BRANCH   1  14
HETATM   14  C5  UNL     1      -4.525   4.741  13.883  1.00  0.00     0.053 C
BRANCH  14  15
HETATM   15  C6  UNL     1      -4.932   3.378  14.454  1.00  0.00     0.188 C
HETATM   16  C7  UNL     1      -6.079   3.500  15.425  1.00  0.00     0.044 C
HETATM   17  C8  UNL     1      -5.762   2.452  16.460  1.00  0.00    -0.007 C
HETATM   18  C9  UNL     1      -4.278   2.293  16.446  1.00  0.00     0.243 C
HETATM   19  C10 UNL     1      -6.446   2.713  17.767  1.00  0.00    -0.004 C
HETATM   20  C13 UNL     1      -6.586   1.200  16.426  1.00  0.00    -0.004 C
HETATM   21  N3  UNL     1      -3.814   2.851  15.217  1.00  0.00    -0.070 N
ATOM     22  H32 UNL     1      -3.265   2.182  14.677  1.00  0.00     0.277 HD
ATOM     23  H31 UNL     1      -3.089   3.554  15.366  1.00  0.00     0.277 HD
HETATM   24  C11 UNL     1      -6.011   1.567  18.637  1.00  0.00     0.006 C
HETATM   25  C14 UNL     1      -7.677   2.052  17.101  1.00  0.00     0.011 C
HETATM   26  C12 UNL     1      -6.104   0.429  17.622  1.00  0.00     0.006 C
ENDBRANCH  14  15
ENDBRANCH   1  14
TORSDOF 4
ENDMDL