MODEL 5
REMARK VINA RESULT: -5.862133846      3.421      5.410
REMARK  6 active torsions:
REMARK  status: ('A' for Active; 'I' for Inactive)
REMARK    1  A    between atoms: C1_2  and  N1_3
REMARK    2  A    between atoms: C1_2  and  N3_13
REMARK    3  A    between atoms: N1_3  and  C2_5
REMARK    4  A    between atoms: C2_5  and  C3_6
REMARK    5  A    between atoms: C3_6  and  N2_7
REMARK    6  A    between atoms: N3_13  and  C8_15
ROOT
HETATM    1  S1  UNL     1      -0.749   5.112  10.377  1.00  0.00    -0.041 SA
HETATM    2  C1  UNL     1      -0.836   4.362  11.824  1.00  0.00     0.167 C
ENDROOT
BRANCH   2   3
HETATM    3  N1  UNL     1      -0.895   2.959  11.871  1.00  0.00    -0.366 N
ATOM      4  H1  UNL     1      -0.479   2.472  12.665  1.00  0.00     0.161 HD
BRANCH   3   5
HETATM    5  C2  UNL     1      -1.523   2.193  10.833  1.00  0.00     0.152 C
BRANCH   5   6
HETATM    6  C3  UNL     1      -1.857   0.823  11.345  1.00  0.00     0.292 C
BRANCH   6   7
HETATM    7  N2  UNL     1      -3.030   0.300  10.663  1.00  0.00     0.094 N
HETATM    8  C4  UNL     1      -4.197   1.107  11.036  1.00  0.00     0.298 C
HETATM    9  C5  UNL     1      -4.496   1.064  12.504  1.00  0.00     0.198 C
HETATM   10  O1  UNL     1      -4.409  -0.234  13.008  1.00  0.00    -0.388 OA
HETATM   11  C6  UNL     1      -4.470  -1.148  11.968  1.00  0.00     0.198 C
HETATM   12  C7  UNL     1      -3.225  -1.074  11.099  1.00  0.00     0.298 C
ENDBRANCH   6   7
ENDBRANCH   5   6
ENDBRANCH   3   5
ENDBRANCH   2   3
BRANCH   2  13
HETATM   13  N3  UNL     1      -0.811   5.148  13.042  1.00  0.00    -0.363 N
ATOM     14  H3  UNL     1      -0.006   5.724  13.289  1.00  0.00     0.162 HD
BRANCH  13  15
HETATM   15  C8  UNL     1      -1.970   5.080  13.883  1.00  0.00     0.085 C
HETATM   16  C9  UNL     1      -2.075   6.274  14.808  1.00  0.00     0.025 C
HETATM   17  C10 UNL     1      -3.423   6.960  14.673  1.00  0.00     0.004 C
HETATM   18  C11 UNL     1      -4.549   5.976  14.909  1.00  0.00     0.020 C
HETATM   19  C12 UNL     1      -4.361   4.707  14.121  1.00  0.00     0.084 C
HETATM   20 CL1  UNL     1      -3.871   3.434  15.294  1.00  0.00    -0.125 Cl
HETATM   21  C13 UNL     1      -3.252   4.931  13.111  1.00  0.00     0.045 C
ENDBRANCH  13  15
ENDBRANCH   2  13
TORSDOF 6
ENDMDL