MODEL 3
REMARK VINA RESULT: -6.737118337      1.076      1.130
REMARK  6 active torsions:
REMARK  status: ('A' for Active; 'I' for Inactive)
REMARK    1  A    between atoms: N1_2  and  C2_5
REMARK    2  A    between atoms: C2_5  and  C3_6
REMARK    3  A    between atoms: C3_6  and  C4_7
REMARK    4  A    between atoms: C3_6  and  N2_13
REMARK    5  A    between atoms: C4_7  and  C5_8
REMARK    6  A    between atoms: C6_9  and  C7_10
REMARK       I    between atoms: N2_13  and  C9_15
REMARK       I    between atoms: C9_15  and  N3_17
ROOT
HETATM    1  C3  UNL     1      -3.563   0.333  11.618  1.00  0.00     0.122 C
ENDROOT
BRANCH   1   2
HETATM    2  C2  UNL     1      -3.927  -1.143  11.713  1.00  0.00     0.257 C
BRANCH   2   3
HETATM    3  N1  UNL     1      -2.751  -1.950  11.593  1.00  0.00    -0.077 N
HETATM    4  C1  UNL     1      -3.113  -3.345  11.518  1.00  0.00     0.267 C
ATOM      5  H12 UNL     1      -2.085  -1.768  12.344  1.00  0.00     0.276 HD
ATOM      6  H11 UNL     1      -2.169  -1.663  10.806  1.00  0.00     0.276 HD
ENDBRANCH   2   3
ENDBRANCH   1   2
BRANCH   1   7
HETATM    7  C4  UNL     1      -2.079   0.390  11.282  1.00  0.00     0.121 C
BRANCH   7   8
HETATM    8  C5  UNL     1      -1.782   1.824  11.047  1.00  0.00    -0.100 C
HETATM    9  C6  UNL     1      -1.549   2.994  10.864  1.00  0.00    -0.076 C
BRANCH   9  10
HETATM   10  C7  UNL     1      -1.281   4.395  10.658  1.00  0.00     0.093 C
HETATM   11  C8  UNL     1      -2.218   5.309  10.661  1.00  0.00     0.197 C
HETATM   12  F1  UNL     1      -3.491   4.944  10.861  1.00  0.00    -0.219 F
ENDBRANCH   9  10
ENDBRANCH   7   8
ENDBRANCH   1   7
BRANCH   1  13
HETATM   13  N2  UNL     1      -3.807   1.028  12.845  1.00  0.00    -0.336 N
HETATM   14  C9  UNL     1      -4.855   1.974  12.958  1.00  0.00     0.319 C
HETATM   15  O1  UNL     1      -5.602   2.233  11.983  1.00  0.00    -0.247 OA
HETATM   16  N3  UNL     1      -5.056   2.630  14.181  1.00  0.00    -0.323 N
HETATM   17  C10 UNL     1      -6.065   3.615  14.471  1.00  0.00     0.098 C
HETATM   18  C13 UNL     1      -4.290   2.446  15.388  1.00  0.00     0.098 C
HETATM   19  C11 UNL     1      -6.390   3.430  15.955  1.00  0.00     0.028 C
HETATM   20  C15 UNL     1      -5.461   5.004  14.250  1.00  0.00     0.099 C
HETATM   21  C12 UNL     1      -5.318   2.520  16.496  1.00  0.00     0.028 C
HETATM   22  S1  UNL     1      -3.647   4.846  14.313  1.00  0.00    -0.165 SA
HETATM   23  C14 UNL     1      -3.254   3.546  15.514  1.00  0.00     0.099 C
ATOM     24  H2  UNL     1      -3.215   0.837  13.654  1.00  0.00     0.164 HD
ENDBRANCH   1  13
TORSDOF 6
ENDMDL