MODEL 4
REMARK VINA RESULT: -6.138258757      3.583      6.668
REMARK  7 active torsions:
REMARK  status: ('A' for Active; 'I' for Inactive)
REMARK    1  A    between atoms: C2_2  and  N1_3
REMARK    2  A    between atoms: N3_11  and  C7_12
REMARK    3  A    between atoms: C7_12  and  C8_13
REMARK    4  A    between atoms: C8_13  and  C9_14
REMARK    5  A    between atoms: C9_14  and  C10_15
REMARK    6  A    between atoms: C11_16  and  C12_17
REMARK    7  A    between atoms: C12_17  and  N4_18
ROOT
HETATM    1  C8  UNL     1      -5.414   4.235  15.243  1.00  0.00     0.032 C
ENDROOT
BRANCH   1   2
HETATM    2  C7  UNL     1      -5.792   3.251  14.201  1.00  0.00     0.127 C
BRANCH   2   3
HETATM    3  N3  UNL     1      -4.758   2.541  13.541  1.00  0.00    -0.353 N
HETATM    4  C3  UNL     1      -4.470   1.175  13.871  1.00  0.00     0.177 C
HETATM    5  N1  UNL     1      -4.320   0.690  14.998  1.00  0.00    -0.342 N
HETATM    6  N2  UNL     1      -4.368   0.332  12.674  1.00  0.00    -0.362 N
ATOM      7  H1  UNL     1      -4.134  -0.310  14.914  1.00  0.00     0.167 HD
HETATM    8  C4  UNL     1      -4.708   1.018  11.442  1.00  0.00     0.124 C
ATOM      9  H2  UNL     1      -4.083  -0.647  12.705  1.00  0.00     0.162 HD
HETATM   10  C5  UNL     1      -3.741   2.195  11.321  1.00  0.00     0.039 C
HETATM   11  C6  UNL     1      -3.952   3.125  12.475  1.00  0.00     0.127 C
BRANCH   5  12
HETATM   12  C2  UNL     1      -4.320   1.047  16.334  1.00  0.00     0.059 C
HETATM   13  C1  UNL     1      -5.680   0.780  16.963  1.00  0.00     0.055 C
ENDBRANCH   5  12
ENDBRANCH   2   3
ENDBRANCH   1   2
BRANCH   1  14
HETATM   14  C9  UNL     1      -6.044   5.592  15.184  1.00  0.00     0.095 C
BRANCH  14  15
HETATM   15  C10 UNL     1      -5.673   6.132  13.839  1.00  0.00    -0.105 C
HETATM   16  C11 UNL     1      -5.388   6.572  12.756  1.00  0.00    -0.076 C
BRANCH  16  17
HETATM   17  C12 UNL     1      -5.058   7.128  11.434  1.00  0.00     0.371 C
BRANCH  17  18
HETATM   18  N4  UNL     1      -6.301   7.143  10.679  1.00  0.00     0.158 N
HETATM   19  C13 UNL     1      -6.088   7.264   9.268  1.00  0.00     0.507 C
HETATM   20  N5  UNL     1      -5.271   8.426   9.022  1.00  0.00    -0.048 N
HETATM   21  C14 UNL     1      -5.830   9.641   9.540  1.00  0.00     0.239 C
ATOM     22  H52 UNL     1      -4.325   8.283   9.378  1.00  0.00     0.279 HD
ATOM     23  H51 UNL     1      -5.066   8.518   8.027  1.00  0.00     0.279 HD
HETATM   24  C15 UNL     1      -6.466   9.520  10.877  1.00  0.00     0.097 C
HETATM   25  C16 UNL     1      -7.171   8.205  11.107  1.00  0.00     0.409 C
HETATM   26  F1  UNL     1      -8.316   8.162  10.336  1.00  0.00    -0.216 F
ENDBRANCH  17  18
ENDBRANCH  16  17
ENDBRANCH  14  15
ENDBRANCH   1  14
TORSDOF 7
ENDMDL