MODEL 1
REMARK VINA RESULT: -6.676098844      0.000      0.000
REMARK  4 active torsions:
REMARK  status: ('A' for Active; 'I' for Inactive)
REMARK    1  A    between atoms: C2_2  and  C3_3
REMARK    2  A    between atoms: C3_3  and  N1_4
REMARK    3  A    between atoms: N4_14  and  S1_15
REMARK    4  A    between atoms: S1_15  and  C8_18
ROOT
HETATM    1  N1  UNL     1      -0.805   4.720  10.340  1.00  0.00    -0.226 N
ATOM      2  H1  UNL     1      -0.828   5.738  10.405  1.00  0.00     0.177 HD
HETATM    3  C4  UNL     1      -1.644   4.006  10.996  1.00  0.00     0.678 A
HETATM    4  N2  UNL     1      -1.696   2.669  10.976  1.00  0.00    -0.194 N
ATOM      5  H2  UNL     1      -1.089   2.042  10.448  1.00  0.00     0.184 HD
HETATM    6  C5  UNL     1      -2.709   2.315  11.792  1.00  0.00     0.052 A
HETATM    7  C6  UNL     1      -3.270   3.465  12.304  1.00  0.00     0.063 A
HETATM    8  N3  UNL     1      -2.601   4.504  11.802  1.00  0.00    -0.193 N
ATOM      9  H3  UNL     1      -2.781   5.489  11.994  1.00  0.00     0.184 HD
HETATM   10  C7  UNL     1      -4.431   3.420  13.253  1.00  0.00     0.164 C
HETATM   11  N4  UNL     1      -4.226   2.132  13.952  1.00  0.00    -0.225 NA
HETATM   12  C11 UNL     1      -4.530   1.157  12.888  1.00  0.00     0.112 C
HETATM   13  C12 UNL     1      -3.224   0.948  12.152  1.00  0.00     0.075 C
ENDROOT
BRANCH  11  14
HETATM   14  S1  UNL     1      -4.890   1.946  15.478  1.00  0.00     0.096 S
HETATM   15  O1  UNL     1      -3.408   1.511  16.129  1.00  0.00    -0.238 OA
HETATM   16 CL1  UNL     1      -5.481   3.881  15.392  1.00  0.00    -0.008 Cl
BRANCH  14  17
HETATM   17  C8  UNL     1      -5.759   1.819  17.062  1.00  0.00     0.089 C
HETATM   18  C9  UNL     1      -6.061   0.405  17.610  1.00  0.00     0.025 C
HETATM   19  C10 UNL     1      -7.157   2.475  17.067  1.00  0.00     0.025 C
ENDBRANCH  14  17
ENDBRANCH  11  14
BRANCH   1  20
HETATM   20  C3  UNL     1       0.175   4.060   9.506  1.00  0.00     0.137 C
BRANCH  20  21
HETATM   21  C2  UNL     1       1.497   4.086  10.243  1.00  0.00     0.016 C
HETATM   22  C1  UNL     1       2.570   4.452   9.253  1.00  0.00     0.006 C
ENDBRANCH  20  21
ENDBRANCH   1  20
TORSDOF 4
ENDMDL