MODEL 2
REMARK VINA RESULT: -6.458650808      2.121      3.887
REMARK  4 active torsions:
REMARK  status: ('A' for Active; 'I' for Inactive)
REMARK    1  A    between atoms: C2_2  and  N1_3
REMARK    2  A    between atoms: C5_6  and  N2_7
REMARK    3  A    between atoms: N2_7  and  C6_9
REMARK    4  A    between atoms: C10_17  and  C11_18
ROOT
HETATM    1  C6  UNL     1      -3.256   4.337  12.580  1.00  0.00     0.172 C
HETATM    2  C7  UNL     1      -2.820   5.585  11.820  1.00  0.00     0.285 C
HETATM    3  O1  UNL     1      -3.600   6.420  11.349  1.00  0.00    -0.264 OA
HETATM    4  N3  UNL     1      -1.414   5.738  11.671  1.00  0.00    -0.353 N
ATOM      5  H3  UNL     1      -1.000   6.668  11.605  1.00  0.00     0.162 HD
HETATM    6  C8  UNL     1      -0.587   4.571  11.615  1.00  0.00     0.143 C
HETATM    7  C9  UNL     1      -1.181   3.371  12.306  1.00  0.00     0.149 C
HETATM    8  N4  UNL     1      -2.618   3.253  12.023  1.00  0.00    -0.341 N
HETATM    9  C10 UNL     1      -2.967   2.306  11.132  1.00  0.00     0.074 C
ENDROOT
BRANCH   1  10
HETATM   10  N2  UNL     1      -4.568   4.338  13.047  1.00  0.00    -0.367 N
ATOM     11  H2  UNL     1      -5.273   4.847  12.514  1.00  0.00     0.161 HD
BRANCH  10  12
HETATM   12  C5  UNL     1      -4.964   3.673  14.216  1.00  0.00     0.086 C
HETATM   13  C4  UNL     1      -3.813   3.516  15.218  1.00  0.00     0.055 C
HETATM   14  C3  UNL     1      -4.176   2.299  16.048  1.00  0.00     0.274 C
HETATM   15  N1  UNL     1      -5.405   2.535  16.790  1.00  0.00     0.088 N
HETATM   16  C16 UNL     1      -6.488   2.968  15.987  1.00  0.00     0.274 C
HETATM   17  C15 UNL     1      -6.158   4.062  14.979  1.00  0.00     0.055 C
BRANCH  15  18
HETATM   18  C2  UNL     1      -5.760   1.225  17.341  1.00  0.00     0.268 C
HETATM   19  C1  UNL     1      -7.268   1.044  17.416  1.00  0.00     0.037 C
ENDBRANCH  15  18
ENDBRANCH  10  12
ENDBRANCH   1  10
BRANCH   9  20
HETATM   20  C11 UNL     1      -3.843   1.135  11.389  1.00  0.00    -0.019 C
HETATM   21  C12 UNL     1      -3.875   0.641  12.782  1.00  0.00     0.020 C
HETATM   22  C13 UNL     1      -3.549  -0.011  10.388  1.00  0.00     0.020 C
HETATM   23  C14 UNL     1      -5.315   1.502  11.051  1.00  0.00     0.020 C
ENDBRANCH   9  20
TORSDOF 4
ENDMDL