MODEL 1
REMARK VINA RESULT: -7.206626206      0.000      0.000
REMARK  5 active torsions:
REMARK  status: ('A' for Active; 'I' for Inactive)
REMARK    1  A    between atoms: C2_2  and  N1_3
REMARK    2  A    between atoms: N1_3  and  C3_5
REMARK    3  A    between atoms: N3_12  and  C7_14
REMARK    4  A    between atoms: C7_14  and  C8_15
REMARK    5  A    between atoms: C8_15  and  N4_16
ROOT
HETATM    1  C3  UNL     1      -5.163   2.516  16.072  1.00  0.00     0.679 A
HETATM    2  N2  UNL     1      -6.210   3.307  15.796  1.00  0.00    -0.200 N
ATOM      3  H2  UNL     1      -7.091   3.146  16.283  1.00  0.00     0.183 HD
HETATM    4  C4  UNL     1      -6.138   4.306  14.900  1.00  0.00     0.133 A
HETATM    5  C5  UNL     1      -4.960   4.567  14.211  1.00  0.00     0.094 A
HETATM    6 CL1  UNL     1      -4.921   5.880  13.053  1.00  0.00    -0.079 Cl
HETATM    7  C6  UNL     1      -3.881   3.765  14.483  1.00  0.00     0.144 A
HETATM    8  N3  UNL     1      -2.753   3.859  13.961  1.00  0.00    -0.349 N
ATOM      9  H3  UNL     1      -2.123   3.147  14.331  1.00  0.00     0.167 HD
HETATM   10  N5  UNL     1      -4.033   2.770  15.407  1.00  0.00    -0.175 N
ATOM     11  H5  UNL     1      -3.225   2.178  15.603  1.00  0.00     0.186 HD
ENDROOT
BRANCH   8  12
HETATM   12  C7  UNL     1      -2.103   4.655  13.019  1.00  0.00     0.107 C
BRANCH  12  13
HETATM   13  C8  UNL     1      -2.147   4.101  11.601  1.00  0.00     0.108 C
BRANCH  13  14
HETATM   14  N4  UNL     1      -2.676   2.810  11.535  1.00  0.00    -0.357 N
HETATM   15  C9  UNL     1      -3.930   2.653  10.981  1.00  0.00     0.064 C
HETATM   16  C10 UNL     1      -4.967   1.704  11.574  1.00  0.00     0.047 C
HETATM   17  C11 UNL     1      -4.904   0.321  10.989  1.00  0.00     0.033 C
HETATM   18  C12 UNL     1      -4.050  -0.735  11.504  1.00  0.00     0.187 C
HETATM   19  O1  UNL     1      -2.640  -0.691  11.246  1.00  0.00    -0.313 OA
HETATM   20  C13 UNL     1      -2.306   0.552  11.334  1.00  0.00    -0.007 C
HETATM   21  C14 UNL     1      -1.634   1.777  11.281  1.00  0.00     0.239 C
ENDBRANCH  13  14
ENDBRANCH  12  13
ENDBRANCH   8  12
BRANCH   1  22
HETATM   22  N1  UNL     1      -5.251   1.564  16.937  1.00  0.00    -0.226 N
ATOM     23  H1  UNL     1      -4.486   0.896  17.035  1.00  0.00     0.177 HD
BRANCH  22  24
HETATM   24  C2  UNL     1      -6.412   1.441  17.758  1.00  0.00     0.133 C
HETATM   25  C1  UNL     1      -6.326   2.154  19.078  1.00  0.00     0.027 C
ENDBRANCH  22  24
ENDBRANCH   1  22
TORSDOF 5
ENDMDL