MODEL 5
REMARK VINA RESULT: -6.477224693      3.366      6.475
REMARK  4 active torsions:
REMARK  status: ('A' for Active; 'I' for Inactive)
REMARK       I    between atoms: C1_2  and  N1_3
REMARK       I    between atoms: C1_2  and  N3_20
REMARK    1  A    between atoms: N1_3  and  C2_5
REMARK    2  A    between atoms: C9_15  and  C10_16
REMARK    3  A    between atoms: C10_16  and  C11_17
REMARK    4  A    between atoms: C11_17  and  C12_18
ROOT
HETATM    1  C2  UNL     1      -4.233   4.312  12.144  1.00  0.00     0.119 C
HETATM    2  C3  UNL     1      -4.014   3.185  11.130  1.00  0.00     0.066 C
HETATM    3  C4  UNL     1      -3.220   2.178  11.893  1.00  0.00     0.128 C
HETATM    4  C5  UNL     1      -4.051   1.204  12.659  1.00  0.00     0.039 C
HETATM    5  C6  UNL     1      -4.572   0.277  11.563  1.00  0.00     0.002 C
HETATM    6  C7  UNL     1      -3.330   0.049  10.738  1.00  0.00     0.002 C
HETATM    7  C8  UNL     1      -2.443   1.253  10.951  1.00  0.00     0.039 C
HETATM    8  N2  UNL     1      -2.343   2.977  12.691  1.00  0.00    -0.060 N
ATOM      9  H21 UNL     1      -1.450   3.162  12.236  1.00  0.00     0.278 HD
ATOM     10  H22 UNL     1      -1.978   2.477  13.502  1.00  0.00     0.278 HD
HETATM   11  C9  UNL     1      -3.057   4.186  13.048  1.00  0.00     0.209 C
ENDROOT
BRANCH   1  12
HETATM   12  N1  UNL     1      -4.263   5.560  11.405  1.00  0.00    -0.336 N
HETATM   13  C1  UNL     1      -5.233   6.560  11.617  1.00  0.00     0.318 C
HETATM   14  O1  UNL     1      -6.107   6.350  12.489  1.00  0.00    -0.247 OA
HETATM   15  N3  UNL     1      -5.251   7.762  10.898  1.00  0.00    -0.330 N
HETATM   16  C13 UNL     1      -6.313   8.733  11.203  1.00  0.00     0.153 C
HETATM   17  C16 UNL     1      -4.334   8.171   9.867  1.00  0.00     0.153 C
HETATM   18  C14 UNL     1      -6.408   9.625   9.971  1.00  0.00     0.187 C
HETATM   19  O2  UNL     1      -6.421   8.792   8.859  1.00  0.00    -0.388 OA
HETATM   20  C15 UNL     1      -5.070   8.493   8.571  1.00  0.00     0.187 C
ATOM     21  H1  UNL     1      -3.547   5.721  10.697  1.00  0.00     0.164 HD
ENDBRANCH   1  12
BRANCH  11  22
HETATM   22  C10 UNL     1      -3.394   4.088  14.511  1.00  0.00     0.037 C
BRANCH  22  23
HETATM   23  C11 UNL     1      -4.889   4.091  14.750  1.00  0.00     0.033 C
BRANCH  23  24
HETATM   24  C12 UNL     1      -5.263   2.937  15.665  1.00  0.00     0.222 C
HETATM   25  F1  UNL     1      -4.199   2.493  16.407  1.00  0.00    -0.255 F
ENDBRANCH  23  24
ENDBRANCH  22  23
ENDBRANCH  11  22
TORSDOF 4
ENDMDL