MODEL 5
REMARK VINA RESULT: -7.071449331      3.892      6.404
REMARK  5 active torsions:
REMARK  status: ('A' for Active; 'I' for Inactive)
REMARK    1  A    between atoms: C7_7  and  N1_8
REMARK       I    between atoms: N1_8  and  C8_10
REMARK    2  A    between atoms: C8_10  and  C9_12
REMARK    3  A    between atoms: C9_12  and  C10_13
REMARK    4  A    between atoms: C10_13  and  C11_14
REMARK       I    between atoms: C11_14  and  N2_16
REMARK    5  A    between atoms: C14_19  and  O3_20
ROOT
HETATM    1  C9  UNL     1      -3.621   5.037  13.739  1.00  0.00     0.112 C
ENDROOT
BRANCH   1   2
HETATM    2  C8  UNL     1      -4.050   6.310  13.128  1.00  0.00     0.218 C
HETATM    3  N1  UNL     1      -5.067   6.386  12.144  1.00  0.00    -0.356 N
ATOM      4  H1  UNL     1      -5.525   5.525  11.844  1.00  0.00     0.162 HD
HETATM    5  O1  UNL     1      -3.502   7.385  13.480  1.00  0.00    -0.274 OA
BRANCH   3   6
HETATM    6  C7  UNL     1      -5.480   7.634  11.551  1.00  0.00     0.088 C
HETATM    7  C2  UNL     1      -5.281   7.637  10.046  1.00  0.00     0.004 C
HETATM    8  C1  UNL     1      -6.338   6.787   9.360  1.00  0.00     0.012 C
HETATM    9  C3  UNL     1      -5.485   9.063   9.587  1.00  0.00     0.006 C
HETATM   10  C4  UNL     1      -6.175   9.901  10.622  1.00  0.00     0.001 C
HETATM   11  C5  UNL     1      -7.329   9.212  11.298  1.00  0.00     0.002 C
HETATM   12  C6  UNL     1      -6.953   7.864  11.808  1.00  0.00     0.025 C
ENDBRANCH   3   6
ENDBRANCH   1   2
BRANCH   1  13
HETATM   13  C10 UNL     1      -4.552   3.906  13.456  1.00  0.00     0.112 C
BRANCH  13  14
HETATM   14  C11 UNL     1      -5.638   3.898  14.464  1.00  0.00     0.220 C
HETATM   15  O2  UNL     1      -6.671   4.596  14.233  1.00  0.00    -0.273 OA
HETATM   16  N2  UNL     1      -5.538   3.130  15.674  1.00  0.00    -0.352 N
HETATM   17  C12 UNL     1      -4.339   2.365  15.867  1.00  0.00     0.128 C
HETATM   18  C16 UNL     1      -6.640   3.186  16.587  1.00  0.00     0.128 C
HETATM   19  C13 UNL     1      -4.517   1.232  16.850  1.00  0.00     0.051 C
HETATM   20  C14 UNL     1      -5.988   0.839  16.839  1.00  0.00     0.121 C
HETATM   21  C15 UNL     1      -6.744   1.979  17.480  1.00  0.00     0.051 C
BRANCH  20  22
HETATM   22  O3  UNL     1      -6.108  -0.342  17.543  1.00  0.00    -0.395 OA
ATOM     23  H3  UNL     1      -7.025  -0.589  17.533  1.00  0.00     0.210 HD
ENDBRANCH  20  22
ENDBRANCH  13  14
ENDBRANCH   1  13
TORSDOF 5
ENDMDL