MODEL 3
REMARK VINA RESULT: -5.998071774      2.062      2.489
REMARK  4 active torsions:
REMARK  status: ('A' for Active; 'I' for Inactive)
REMARK    1  A    between atoms: C2_2  and  N1_3
REMARK       I    between atoms: N1_3  and  C3_5
REMARK       I    between atoms: C3_5  and  N2_7
REMARK    2  A    between atoms: N2_7  and  C4_9
REMARK    3  A    between atoms: C4_9  and  C5_10
REMARK    4  A    between atoms: C5_10  and  N3_11
ROOT
HETATM    1  C5  UNL     1      -4.367   4.227  14.421  1.00  0.00     0.178 C
HETATM    2  C11 UNL     1      -2.931   4.681  14.635  1.00  0.00     0.044 C
HETATM    3  C12 UNL     1      -2.707   6.142  14.726  1.00  0.00     0.003 C
HETATM    4  C13 UNL     1      -3.354   6.947  13.630  1.00  0.00     0.001 C
HETATM    5  C14 UNL     1      -4.629   6.388  13.139  1.00  0.00     0.007 C
HETATM    6  C15 UNL     1      -5.264   5.406  14.080  1.00  0.00     0.022 C
HETATM    7  C16 UNL     1      -5.890   6.063  15.272  1.00  0.00     0.012 C
ENDROOT
BRANCH   1   8
HETATM    8  C4  UNL     1      -4.322   3.362  13.192  1.00  0.00     0.166 C
BRANCH   8   9
HETATM    9  N2  UNL     1      -3.079   2.821  12.797  1.00  0.00    -0.341 N
HETATM   10  C3  UNL     1      -2.529   3.318  11.576  1.00  0.00     0.316 C
HETATM   11  N1  UNL     1      -1.292   2.860  11.049  1.00  0.00    -0.344 N
HETATM   12  O1  UNL     1      -3.125   4.209  10.880  1.00  0.00    -0.247 OA
ATOM     13  H1  UNL     1      -0.781   2.146  11.569  1.00  0.00     0.164 HD
ATOM     14  H2  UNL     1      -2.599   2.114  13.353  1.00  0.00     0.164 HD
BRANCH  11  15
HETATM   15  C2  UNL     1      -0.723   3.347   9.829  1.00  0.00     0.120 C
HETATM   16  C1  UNL     1       0.606   4.007  10.010  1.00  0.00     0.026 C
ENDBRANCH  11  15
ENDBRANCH   8   9
ENDBRANCH   1   8
BRANCH   1  17
HETATM   17  N3  UNL     1      -4.974   3.573  15.513  1.00  0.00     0.103 N
HETATM   18  C6  UNL     1      -4.161   2.582  16.174  1.00  0.00     0.303 C
HETATM   19  C7  UNL     1      -4.659   1.165  16.004  1.00  0.00     0.302 C
HETATM   20  N4  UNL     1      -5.982   0.995  16.576  1.00  0.00     0.087 N
HETATM   21  C8  UNL     1      -5.981   0.229  17.784  1.00  0.00     0.310 C
HETATM   22  C9  UNL     1      -6.601   2.284  16.695  1.00  0.00     0.302 C
HETATM   23  C10 UNL     1      -6.277   3.042  15.390  1.00  0.00     0.303 C
ENDBRANCH   1  17
TORSDOF 4
ENDMDL