MODEL 3
REMARK VINA RESULT: -7.169292759      0.946      1.344
REMARK  12 active torsions:
REMARK  status: ('A' for Active; 'I' for Inactive)
REMARK    1  A    between atoms: O1_1  and  C1_3
REMARK    2  A    between atoms: C1_3  and  C2_4
REMARK    3  A    between atoms: C3_5  and  C4_6
REMARK    4  A    between atoms: C4_6  and  O2_7
REMARK    5  A    between atoms: O2_7  and  C5_8
REMARK    6  A    between atoms: C5_8  and  C6_9
REMARK    7  A    between atoms: C6_9  and  N1_10
REMARK    8  A    between atoms: N1_10  and  C7_12
REMARK    9  A    between atoms: C7_12  and  C8_13
REMARK   10  A    between atoms: N2_17  and  C12_18
REMARK   11  A    between atoms: C12_18  and  C13_19
REMARK   12  A    between atoms: C13_19  and  C14_20
ROOT
HETATM    1  C8  UNL     1      46.963   5.737  14.238  1.00  0.00     0.042 C
HETATM    2  C9  UNL     1      48.329   5.213  14.396  1.00  0.00     0.016 C
HETATM    3  C10 UNL     1      49.083   6.030  15.432  1.00  0.00     0.045 C
HETATM    4  C11 UNL     1      49.149   7.504  15.086  1.00  0.00     0.063 C
HETATM    5  N2  UNL     1      47.950   7.964  14.518  1.00  0.00    -0.373 N
HETATM    6  C20 UNL     1      46.792   7.177  14.714  1.00  0.00     0.136 C
ENDROOT
BRANCH   1   7
HETATM    7  C7  UNL     1      45.806   4.951  14.762  1.00  0.00     0.061 C
BRANCH   7   8
HETATM    8  N1  UNL     1      44.538   5.497  14.839  1.00  0.00    -0.400 N
ATOM      9  H1  UNL     1      44.416   6.324  15.422  1.00  0.00     0.158 HD
BRANCH   8  10
HETATM   10  C6  UNL     1      43.409   5.000  14.176  1.00  0.00     0.145 C
BRANCH  10  11
HETATM   11  C5  UNL     1      43.098   5.893  12.938  1.00  0.00     0.188 C
BRANCH  11  12
HETATM   12  O2  UNL     1      42.029   6.670  13.329  1.00  0.00    -0.378 OA
BRANCH  12  13
HETATM   13  C4  UNL     1      41.632   7.651  12.469  1.00  0.00     0.261 C
BRANCH  13  14
HETATM   14  C3  UNL     1      41.170   8.873  13.130  1.00  0.00    -0.078 C
HETATM   15  C2  UNL     1      40.806   9.889  13.661  1.00  0.00    -0.079 C
BRANCH  15  16
HETATM   16  C1  UNL     1      40.368  11.138  14.289  1.00  0.00     0.257 C
BRANCH  16  17
HETATM   17  O1  UNL     1      39.925  10.823  15.568  1.00  0.00    -0.389 OA
ATOM     18  H1  UNL     1      39.232  10.179  15.475  1.00  0.00     0.210 HD
ENDBRANCH  16  17
ENDBRANCH  15  16
ENDBRANCH  13  14
ENDBRANCH  12  13
ENDBRANCH  11  12
ENDBRANCH  10  11
ENDBRANCH   8  10
ENDBRANCH   7   8
ENDBRANCH   1   7
BRANCH   5  19
HETATM   19  C12 UNL     1      47.972   8.919  13.496  1.00  0.00     0.067 C
BRANCH  19  20
HETATM   20  C13 UNL     1      46.821   8.770  12.546  1.00  0.00     0.083 C
BRANCH  20  21
HETATM   21  C14 UNL     1      47.268   8.679  11.138  1.00  0.00    -0.053 A
HETATM   22  C15 UNL     1      46.457   8.352  10.078  1.00  0.00     0.007 A
HETATM   23  C16 UNL     1      46.936   8.253   8.772  1.00  0.00     0.001 A
HETATM   24  C17 UNL     1      48.260   8.483   8.484  1.00  0.00     0.000 A
HETATM   25  C18 UNL     1      49.085   8.814   9.546  1.00  0.00     0.001 A
HETATM   26  C19 UNL     1      48.599   8.908  10.832  1.00  0.00     0.007 A
ENDBRANCH  20  21
ENDBRANCH  19  20
ENDBRANCH   5  19
TORSDOF 12
ENDMDL