MODEL 4
REMARK VINA RESULT: -6.153311680      2.477      6.582
REMARK  11 active torsions:
REMARK  status: ('A' for Active; 'I' for Inactive)
REMARK    1  A    between atoms: C2_2  and  O1_3
REMARK    2  A    between atoms: O1_3  and  C3_4
REMARK    3  A    between atoms: C3_4  and  C4_5
REMARK    4  A    between atoms: C4_5  and  C5_6
REMARK    5  A    between atoms: C5_6  and  N1_7
REMARK    6  A    between atoms: N1_7  and  C6_9
REMARK    7  A    between atoms: C9_16  and  N4_17
REMARK    8  A    between atoms: N4_17  and  C10_19
REMARK    9  A    between atoms: C10_19  and  C11_20
REMARK   10  A    between atoms: C11_20  and  C12_21
REMARK   11  A    between atoms: C12_21  and  N5_22
ROOT
HETATM    1  C6  UNL     1      43.672   8.594  12.462  1.00  0.00     0.078 A
HETATM    2  C7  UNL     1      42.763   9.652  12.457  1.00  0.00     0.052 A
HETATM    3  C8  UNL     1      41.466   9.424  12.789  1.00  0.00     0.109 A
HETATM    4  N2  UNL     1      41.058   8.194  13.120  1.00  0.00    -0.310 N
ATOM      5  H2  UNL     1      40.082   8.034  13.367  1.00  0.00     0.186 HD
HETATM    6  N3  UNL     1      41.908   7.191  13.128  1.00  0.00    -0.284 N
ATOM      7  H3  UNL     1      41.562   6.267  13.386  1.00  0.00     0.188 HD
HETATM    8  C9  UNL     1      43.234   7.320  12.807  1.00  0.00     0.143 A
ENDROOT
BRANCH   8   9
HETATM    9  N4  UNL     1      43.969   6.294  12.834  1.00  0.00    -0.373 N
ATOM     10  H4  UNL     1      44.838   6.359  12.306  1.00  0.00     0.161 HD
BRANCH   9  11
HETATM   11  C10 UNL     1      43.746   5.067  13.499  1.00  0.00     0.123 C
BRANCH  11  12
HETATM   12  C11 UNL     1      45.160   4.434  13.669  1.00  0.00     0.039 C
BRANCH  12  13
HETATM   13  C12 UNL     1      45.802   5.241  14.765  1.00  0.00     0.118 C
BRANCH  13  14
HETATM   14  N5  UNL     1      47.046   5.849  14.402  1.00  0.00    -0.412 N
HETATM   15  C13 UNL     1      48.192   5.154  14.876  1.00  0.00     0.117 C
HETATM   16  C14 UNL     1      49.116   6.130  15.571  1.00  0.00     0.019 C
HETATM   17  C15 UNL     1      49.558   7.144  14.526  1.00  0.00     0.003 C
HETATM   18  C16 UNL     1      48.328   7.897  14.090  1.00  0.00     0.019 C
HETATM   19  C17 UNL     1      47.048   7.275  14.540  1.00  0.00     0.117 C
ENDBRANCH  13  14
ENDBRANCH  12  13
ENDBRANCH  11  12
ENDBRANCH   9  11
ENDBRANCH   8   9
BRANCH   1  20
HETATM   20  N1  UNL     1      44.886   8.725  12.175  1.00  0.00    -0.366 N
ATOM     21  H1  UNL     1      45.339   7.854  11.896  1.00  0.00     0.165 HD
BRANCH  20  22
HETATM   22  C5  UNL     1      45.738   9.832  12.162  1.00  0.00     0.063 C
BRANCH  22  23
HETATM   23  C4  UNL     1      46.797   9.759  11.111  1.00  0.00     0.071 C
BRANCH  23  24
HETATM   24  C3  UNL     1      46.139   9.465   9.765  1.00  0.00     0.172 C
BRANCH  24  25
HETATM   25  O1  UNL     1      45.093  10.369   9.624  1.00  0.00    -0.391 OA
BRANCH  25  26
HETATM   26  C2  UNL     1      44.062   9.914   8.841  1.00  0.00     0.163 C
HETATM   27  C1  UNL     1      44.167   8.426   8.635  1.00  0.00     0.033 C
ENDBRANCH  25  26
ENDBRANCH  24  25
ENDBRANCH  23  24
ENDBRANCH  22  23
ENDBRANCH  20  22
ENDBRANCH   1  20
TORSDOF 11
ENDMDL