MODEL 3
REMARK VINA RESULT: -6.369204629      2.229      3.999
REMARK  10 active torsions:
REMARK  status: ('A' for Active; 'I' for Inactive)
REMARK    1  A    between atoms: O1_2  and  C2_3
REMARK    2  A    between atoms: C2_3  and  C3_4
REMARK    3  A    between atoms: C3_4  and  O2_5
REMARK    4  A    between atoms: O2_5  and  C4_6
REMARK    5  A    between atoms: C4_6  and  C5_7
REMARK    6  A    between atoms: C5_7  and  N1_8
REMARK    7  A    between atoms: N1_8  and  C6_10
REMARK    8  A    between atoms: N3_17  and  C11_19
REMARK    9  A    between atoms: C11_19  and  C12_20
REMARK   10  A    between atoms: C11_19  and  C15_23
ROOT
HETATM    1  C6  UNL     1      42.852   7.846  12.907  1.00  0.00     0.118 A
HETATM    2  C7  UNL     1      42.808   6.473  13.044  1.00  0.00     0.073 A
HETATM    3  C8  UNL     1      43.985   5.779  13.162  1.00  0.00     0.026 A
HETATM    4  C9  UNL     1      43.933   4.294  13.310  1.00  0.00     0.069 C
HETATM    5  N2  UNL     1      45.149   6.418  13.147  1.00  0.00    -0.196 N
ATOM      6  H2  UNL     1      46.009   5.879  13.238  1.00  0.00     0.184 HD
HETATM    7  C10 UNL     1      45.227   7.738  13.017  1.00  0.00     0.680 A
HETATM    8  N3  UNL     1      46.314   8.402  12.988  1.00  0.00    -0.221 N
ATOM      9  H3  UNL     1      46.132   9.401  12.882  1.00  0.00     0.178 HD
HETATM   10  N4  UNL     1      44.045   8.422  12.899  1.00  0.00    -0.177 N
ATOM     11  H4  UNL     1      44.086   9.436  12.800  1.00  0.00     0.185 HD
ENDROOT
BRANCH   1  12
HETATM   12  N1  UNL     1      41.750   8.556  12.790  1.00  0.00    -0.374 N
ATOM     13  H1  UNL     1      40.830   8.120  12.722  1.00  0.00     0.161 HD
BRANCH  12  14
HETATM   14  C5  UNL     1      41.920   9.992  12.764  1.00  0.00     0.147 C
BRANCH  14  15
HETATM   15  C4  UNL     1      41.755  10.551  11.368  1.00  0.00     0.187 C
BRANCH  15  16
HETATM   16  O2  UNL     1      43.025  10.720  10.834  1.00  0.00    -0.387 OA
BRANCH  16  17
HETATM   17  C3  UNL     1      43.278   9.924   9.729  1.00  0.00     0.193 C
BRANCH  17  18
HETATM   18  C2  UNL     1      44.740   9.669   9.496  1.00  0.00     0.193 C
BRANCH  18  19
HETATM   19  O1  UNL     1      45.170   8.467   9.978  1.00  0.00    -0.394 OA
HETATM   20  C1  UNL     1      44.521   7.383   9.407  1.00  0.00     0.201 C
ENDBRANCH  18  19
ENDBRANCH  17  18
ENDBRANCH  16  17
ENDBRANCH  15  16
ENDBRANCH  14  15
ENDBRANCH  12  14
ENDBRANCH   1  12
BRANCH   8  21
HETATM   21  C11 UNL     1      47.674   8.146  13.061  1.00  0.00     0.107 C
BRANCH  21  22
HETATM   22  C12 UNL     1      48.522   9.074  12.218  1.00  0.00     0.009 A
HETATM   23  C13 UNL     1      48.664   8.951  10.768  1.00  0.00     0.007 A
HETATM   24  C14 UNL     1      47.971  10.156  11.404  1.00  0.00     0.007 A
ENDBRANCH  21  22
BRANCH  21  25
HETATM   25  C15 UNL     1      48.279   7.987  14.438  1.00  0.00     0.009 A
HETATM   26  C16 UNL     1      48.075   6.758  15.230  1.00  0.00     0.007 A
HETATM   27  C17 UNL     1      49.416   6.928  14.547  1.00  0.00     0.007 A
ENDBRANCH  21  25
ENDBRANCH   8  21
TORSDOF 10
ENDMDL