MODEL 3
REMARK VINA RESULT: -6.631737422      2.259      4.324
REMARK  9 active torsions:
REMARK  status: ('A' for Active; 'I' for Inactive)
REMARK    1  A    between atoms: O1_2  and  C2_3
REMARK    2  A    between atoms: C2_3  and  C3_4
REMARK    3  A    between atoms: C3_4  and  N1_5
REMARK    4  A    between atoms: N1_5  and  S1_7
REMARK    5  A    between atoms: S1_7  and  N2_10
REMARK    6  A    between atoms: N2_10  and  C4_12
REMARK    7  A    between atoms: C8_16  and  O4_17
REMARK    8  A    between atoms: O4_17  and  C9_18
REMARK    9  A    between atoms: C9_18  and  C10_19
ROOT
HETATM    1  C4  UNL     1      44.104   6.424  12.669  1.00  0.00     0.123 C
HETATM    2  C5  UNL     1      44.599   6.675  11.244  1.00  0.00     0.028 C
HETATM    3  C6  UNL     1      45.183   8.051  11.364  1.00  0.00     0.005 C
HETATM    4  C7  UNL     1      44.555   8.712  12.561  1.00  0.00     0.034 C
HETATM    5  C8  UNL     1      43.432   7.753  12.954  1.00  0.00     0.145 C
ENDROOT
BRANCH   1   6
HETATM    6  N2  UNL     1      45.268   6.247  13.490  1.00  0.00    -0.296 N
ATOM      7  H2  UNL     1      46.004   6.940  13.622  1.00  0.00     0.174 HD
BRANCH   6   8
HETATM    8  S1  UNL     1      45.236   4.679  14.222  1.00  0.00     0.315 S
HETATM    9  O2  UNL     1      44.838   3.652  13.192  1.00  0.00    -0.183 OA
HETATM   10  O3  UNL     1      44.135   4.698  15.257  1.00  0.00    -0.183 OA
BRANCH   8  11
HETATM   11  N1  UNL     1      46.759   4.325  14.930  1.00  0.00    -0.301 N
ATOM     12  H1  UNL     1      46.894   3.667  15.698  1.00  0.00     0.173 HD
BRANCH  11  13
HETATM   13  C3  UNL     1      47.832   5.079  14.301  1.00  0.00     0.160 C
BRANCH  13  14
HETATM   14  C2  UNL     1      48.377   6.006  15.358  1.00  0.00     0.187 C
BRANCH  14  15
HETATM   15  O1  UNL     1      47.670   7.179  15.444  1.00  0.00    -0.394 OA
HETATM   16  C1  UNL     1      48.029   8.073  14.453  1.00  0.00     0.201 C
ENDBRANCH  14  15
ENDBRANCH  13  14
ENDBRANCH  11  13
ENDBRANCH   8  11
ENDBRANCH   6   8
ENDBRANCH   1   6
BRANCH   5  17
HETATM   17  O4  UNL     1      42.341   7.871  12.128  1.00  0.00    -0.379 OA
BRANCH  17  18
HETATM   18  C9  UNL     1      41.167   8.201  12.796  1.00  0.00     0.206 C
BRANCH  18  19
HETATM   19  C10 UNL     1      40.996   9.676  12.733  1.00  0.00    -0.035 A
HETATM   20  C11 UNL     1      41.158  10.315  11.522  1.00  0.00     0.009 A
HETATM   21  C12 UNL     1      41.007  11.699  11.421  1.00  0.00     0.001 A
HETATM   22  C13 UNL     1      40.693  12.422  12.550  1.00  0.00     0.000 A
HETATM   23  C14 UNL     1      40.525  11.807  13.777  1.00  0.00     0.001 A
HETATM   24  C15 UNL     1      40.683  10.441  13.833  1.00  0.00     0.009 A
ENDBRANCH  18  19
ENDBRANCH  17  18
ENDBRANCH   5  17
TORSDOF 9
ENDMDL