MODEL 5
REMARK VINA RESULT: -6.658982908      3.508      6.218
REMARK  9 active torsions:
REMARK  status: ('A' for Active; 'I' for Inactive)
REMARK    1  A    between atoms: C2_3  and  C3_4
REMARK    2  A    between atoms: C4_5  and  C5_6
REMARK    3  A    between atoms: C5_6  and  C6_7
REMARK    4  A    between atoms: C6_7  and  C7_8
REMARK    5  A    between atoms: C7_8  and  N2_9
REMARK    6  A    between atoms: C12_17  and  O1_18
REMARK    7  A    between atoms: O1_18  and  C13_19
REMARK    8  A    between atoms: C13_19  and  C14_20
REMARK    9  A    between atoms: C14_20  and  N5_21
ROOT
HETATM    1  N1  UNL     1      45.887  10.229  12.905  1.00  0.00    -0.197 NA
HETATM    2  C1  UNL     1      45.827   9.197  12.424  1.00  0.00     0.063 C
HETATM    3  C2  UNL     1      45.750   7.851  11.827  1.00  0.00     0.165 C
ENDROOT
BRANCH   3   4
HETATM    4  C3  UNL     1      44.540   7.134  12.224  1.00  0.00    -0.005 A
HETATM    5  C4  UNL     1      43.331   7.447  11.662  1.00  0.00    -0.048 A
HETATM    6  C9  UNL     1      42.202   6.702  12.029  1.00  0.00     0.008 A
HETATM    7  C10 UNL     1      42.317   5.676  12.940  1.00  0.00     0.003 A
HETATM    8  C11 UNL     1      43.570   5.389  13.492  1.00  0.00     0.037 A
HETATM    9  C12 UNL     1      44.687   6.102  13.150  1.00  0.00     0.076 A
BRANCH   5  10
HETATM   10  C5  UNL     1      43.140   8.558  10.699  1.00  0.00     0.041 C
BRANCH  10  11
HETATM   11  C6  UNL     1      41.931   9.396  10.942  1.00  0.00     0.024 C
BRANCH  11  12
HETATM   12  C7  UNL     1      42.308  10.428  12.018  1.00  0.00     0.122 C
BRANCH  12  13
HETATM   13  N2  UNL     1      41.520  10.275  13.191  1.00  0.00    -0.367 N
HETATM   14  C8  UNL     1      40.827  11.243  13.679  1.00  0.00     0.196 C
HETATM   15  N3  UNL     1      40.087  10.948  14.854  1.00  0.00    -0.067 NA
HETATM   16  N4  UNL     1      40.795  12.527  13.080  1.00  0.00    -0.067 NA
ATOM     17  H2  UNL     1      41.503   9.369  13.660  1.00  0.00     0.161 HD
ENDBRANCH  12  13
ENDBRANCH  11  12
ENDBRANCH  10  11
ENDBRANCH   5  10
BRANCH   9  18
HETATM   18  O1  UNL     1      45.894   5.853  13.664  1.00  0.00    -0.349 OA
BRANCH  18  19
HETATM   19  C13 UNL     1      46.416   5.282  14.781  1.00  0.00     0.206 C
BRANCH  19  20
HETATM   20  C14 UNL     1      47.850   4.882  14.731  1.00  0.00     0.299 C
BRANCH  20  21
HETATM   21  N5  UNL     1      48.698   5.967  15.193  1.00  0.00     0.090 N
HETATM   22  C15 UNL     1      47.945   7.199  15.333  1.00  0.00     0.272 C
HETATM   23  C16 UNL     1      48.521   8.224  14.418  1.00  0.00     0.032 C
HETATM   24  C17 UNL     1      49.547   7.517  13.599  1.00  0.00     0.032 C
HETATM   25  C18 UNL     1      49.813   6.248  14.343  1.00  0.00     0.272 C
ENDBRANCH  20  21
ENDBRANCH  19  20
ENDBRANCH  18  19
ENDBRANCH   9  18
ENDBRANCH   3   4
TORSDOF 9
ENDMDL