MODEL 4
REMARK VINA RESULT: -6.227493828      2.797      5.465
REMARK  13 active torsions:
REMARK  status: ('A' for Active; 'I' for Inactive)
REMARK    1  A    between atoms: O1_3  and  C2_4
REMARK    2  A    between atoms: C2_4  and  C3_5
REMARK    3  A    between atoms: C4_6  and  C5_7
REMARK    4  A    between atoms: C5_7  and  C6_8
REMARK    5  A    between atoms: C6_8  and  N2_9
REMARK    6  A    between atoms: N2_9  and  C7_11
REMARK    7  A    between atoms: C7_11  and  C8_12
REMARK    8  A    between atoms: C8_12  and  C9_13
REMARK    9  A    between atoms: C9_13  and  C10_14
REMARK   10  A    between atoms: C10_14  and  N3_16
REMARK   11  A    between atoms: N3_16  and  C11_18
REMARK   12  A    between atoms: C11_18  and  C12_19
REMARK   13  A    between atoms: C12_19  and  C13_20
ROOT
HETATM    1  N1  UNL     1      41.157  12.227  12.661  1.00  0.00    -0.164 NA
HETATM    2  C1  UNL     1      41.101  11.179  13.144  1.00  0.00     0.229 C
HETATM    3  O1  UNL     1      41.032   9.964  13.728  1.00  0.00    -0.271 OA
ENDROOT
BRANCH   3   4
HETATM    4  C2  UNL     1      40.459   8.817  13.112  1.00  0.00     0.283 C
BRANCH   4   5
HETATM    5  C3  UNL     1      41.426   7.727  13.019  1.00  0.00    -0.079 C
HETATM    6  C4  UNL     1      42.234   6.806  12.914  1.00  0.00    -0.099 C
BRANCH   6   7
HETATM    7  C5  UNL     1      43.224   5.748  12.820  1.00  0.00     0.138 C
BRANCH   7   8
HETATM    8  C6  UNL     1      42.946   4.562  13.656  1.00  0.00     0.067 C
BRANCH   8   9
HETATM    9  N2  UNL     1      43.979   3.677  13.993  1.00  0.00    -0.401 N
ATOM     10  H2  UNL     1      43.756   2.791  14.448  1.00  0.00     0.158 HD
BRANCH   9  11
HETATM   11  C7  UNL     1      45.325   3.996  13.711  1.00  0.00     0.119 C
BRANCH  11  12
HETATM   12  C8  UNL     1      45.953   4.860  14.799  1.00  0.00     0.026 C
BRANCH  12  13
HETATM   13  C9  UNL     1      47.440   4.908  14.753  1.00  0.00     0.071 C
BRANCH  13  14
HETATM   14  C10 UNL     1      47.836   6.352  14.836  1.00  0.00     0.073 C
HETATM   15  S1  UNL     1      49.409   6.748  15.026  1.00  0.00    -0.066 SA
BRANCH  14  16
HETATM   16  N3  UNL     1      46.901   7.410  14.745  1.00  0.00    -0.384 N
ATOM     17  H3  UNL     1      46.065   7.395  15.329  1.00  0.00     0.160 HD
BRANCH  16  18
HETATM   18  C11 UNL     1      47.116   8.506  13.841  1.00  0.00     0.125 C
BRANCH  18  19
HETATM   19  C12 UNL     1      47.165   8.083  12.402  1.00  0.00     0.058 C
BRANCH  19  20
HETATM   20  C13 UNL     1      45.918   8.436  11.683  1.00  0.00    -0.057 A
HETATM   21  C14 UNL     1      45.506   7.667  10.597  1.00  0.00     0.007 A
HETATM   22  C15 UNL     1      44.352   7.951   9.885  1.00  0.00     0.001 A
HETATM   23  C16 UNL     1      43.586   9.054  10.286  1.00  0.00     0.000 A
HETATM   24  C17 UNL     1      43.975   9.828  11.355  1.00  0.00     0.001 A
HETATM   25  C18 UNL     1      45.147   9.508  12.049  1.00  0.00     0.007 A
ENDBRANCH  19  20
ENDBRANCH  18  19
ENDBRANCH  16  18
ENDBRANCH  14  16
ENDBRANCH  13  14
ENDBRANCH  12  13
ENDBRANCH  11  12
ENDBRANCH   9  11
ENDBRANCH   8   9
ENDBRANCH   7   8
ENDBRANCH   6   7
ENDBRANCH   4   5
ENDBRANCH   3   4
TORSDOF 13
ENDMDL