MODEL 1
REMARK VINA RESULT: -6.736315139      0.000      0.000
REMARK  10 active torsions:
REMARK  status: ('A' for Active; 'I' for Inactive)
REMARK    1  A    between atoms: O1_1  and  C1_3
REMARK    2  A    between atoms: C1_3  and  C2_4
REMARK    3  A    between atoms: C2_4  and  C3_5
REMARK    4  A    between atoms: C2_4  and  N1_17
REMARK    5  A    between atoms: C3_5  and  O2_6
REMARK    6  A    between atoms: O2_6  and  C4_7
REMARK    7  A    between atoms: C4_7  and  C5_8
REMARK    8  A    between atoms: C5_8  and  O3_9
REMARK    9  A    between atoms: O3_9  and  C6_10
REMARK   10  A    between atoms: C6_10  and  C7_11
ROOT
HETATM    1  C2  UNL     1      41.884   8.633  12.801  1.00  0.00     0.134 C
ENDROOT
BRANCH   1   2
HETATM    2  C1  UNL     1      40.458   9.003  13.236  1.00  0.00     0.191 C
BRANCH   2   3
HETATM    3  O1  UNL     1      40.429   9.904  14.276  1.00  0.00    -0.399 OA
ATOM      4  H1  UNL     1      39.687  10.494  14.236  1.00  0.00     0.209 HD
ENDBRANCH   2   3
ENDBRANCH   1   2
BRANCH   1   5
HETATM    5  C3  UNL     1      41.902   7.142  12.620  1.00  0.00     0.195 C
BRANCH   5   6
HETATM    6  O2  UNL     1      42.432   6.508  13.711  1.00  0.00    -0.387 OA
BRANCH   6   7
HETATM    7  C4  UNL     1      43.204   5.431  13.370  1.00  0.00     0.193 C
BRANCH   7   8
HETATM    8  C5  UNL     1      43.422   4.652  14.686  1.00  0.00     0.194 C
BRANCH   8   9
HETATM    9  O3  UNL     1      44.644   5.009  15.202  1.00  0.00    -0.385 OA
BRANCH   9  10
HETATM   10  C6  UNL     1      45.645   4.675  14.307  1.00  0.00     0.206 C
BRANCH  10  11
HETATM   11  C7  UNL     1      46.749   5.658  14.439  1.00  0.00    -0.035 A
HETATM   12  C8  UNL     1      46.627   6.970  14.029  1.00  0.00     0.009 A
HETATM   13  C9  UNL     1      47.684   7.827  14.178  1.00  0.00     0.001 A
HETATM   14  C10 UNL     1      48.875   7.410  14.733  1.00  0.00     0.000 A
HETATM   15  C11 UNL     1      48.990   6.107  15.139  1.00  0.00     0.001 A
HETATM   16  C12 UNL     1      47.941   5.244  14.993  1.00  0.00     0.009 A
ENDBRANCH  10  11
ENDBRANCH   9  10
ENDBRANCH   8   9
ENDBRANCH   7   8
ENDBRANCH   6   7
ENDBRANCH   5   6
ENDBRANCH   1   5
BRANCH   1  17
HETATM   17  N1  UNL     1      42.156   9.296  11.528  1.00  0.00    -0.349 N
HETATM   18  C13 UNL     1      41.088   9.598  10.626  1.00  0.00     0.127 C
HETATM   19  C14 UNL     1      41.414   9.268   9.195  1.00  0.00     0.039 C
HETATM   20  C15 UNL     1      42.835   9.439   8.805  1.00  0.00     0.123 C
HETATM   21  N2  UNL     1      43.706   9.968   9.798  1.00  0.00    -0.367 N
HETATM   22  C16 UNL     1      43.478   9.647  11.172  1.00  0.00     0.170 C
ATOM     23  H2  UNL     1      44.485  10.571   9.532  1.00  0.00     0.161 HD
HETATM   24  S1  UNL     1      44.637   9.672  12.283  1.00  0.00    -0.041 SA
ENDBRANCH   1  17
TORSDOF 10
ENDMDL