MODEL 1
REMARK VINA RESULT: -7.122734301      0.000      0.000
REMARK  9 active torsions:
REMARK  status: ('A' for Active; 'I' for Inactive)
REMARK    1  A    between atoms: N3_4  and  C2_6
REMARK    2  A    between atoms: C2_6  and  C3_7
REMARK    3  A    between atoms: C3_7  and  C4_8
REMARK    4  A    between atoms: C4_8  and  C5_9
REMARK    5  A    between atoms: N4_13  and  C8_14
REMARK    6  A    between atoms: C8_14  and  C9_15
REMARK    7  A    between atoms: C12_18  and  O2_19
REMARK    8  A    between atoms: O2_19  and  C13_20
REMARK    9  A    between atoms: C13_20  and  C14_21
ROOT
HETATM    1  C5  UNL     1      47.361   8.030  13.210  1.00  0.00     0.249 C
HETATM    2  C6  UNL     1      48.472   8.438  12.270  1.00  0.00     0.205 C
HETATM    3  O1  UNL     1      48.069   9.683  11.737  1.00  0.00    -0.360 OA
HETATM    4  C7  UNL     1      47.374  10.220  12.822  1.00  0.00     0.441 C
HETATM    5  N4  UNL     1      46.443   9.147  13.100  1.00  0.00     0.122 N
ENDROOT
BRANCH   5   6
HETATM    6  C8  UNL     1      45.586   8.858  11.984  1.00  0.00     0.314 C
BRANCH   6   7
HETATM    7  C9  UNL     1      44.165   8.738  12.317  1.00  0.00    -0.030 A
HETATM    8  C10 UNL     1      43.628   7.515  12.651  1.00  0.00     0.011 A
HETATM    9  C11 UNL     1      42.276   7.378  12.970  1.00  0.00     0.037 A
HETATM   10  C12 UNL     1      41.425   8.464  12.962  1.00  0.00     0.068 A
HETATM   11  C17 UNL     1      41.964   9.688  12.629  1.00  0.00     0.037 A
HETATM   12  C18 UNL     1      43.310   9.828  12.310  1.00  0.00     0.011 A
BRANCH  10  13
HETATM   13  O2  UNL     1      40.079   8.340  13.279  1.00  0.00    -0.351 OA
BRANCH  13  14
HETATM   14  C13 UNL     1      39.046   8.886  12.507  1.00  0.00     0.180 C
BRANCH  14  15
HETATM   15  C14 UNL     1      37.810   9.044  13.364  1.00  0.00     0.010 A
HETATM   16  C15 UNL     1      36.657   8.099  13.181  1.00  0.00     0.007 A
HETATM   17  C16 UNL     1      36.573   9.482  12.643  1.00  0.00     0.007 A
ENDBRANCH  14  15
ENDBRANCH  13  14
ENDBRANCH  10  13
ENDBRANCH   6   7
ENDBRANCH   5   6
BRANCH   1  18
HETATM   18  C4  UNL     1      47.911   7.836  14.593  1.00  0.00     0.040 C
BRANCH  18  19
HETATM   19  C3  UNL     1      47.750   6.376  14.954  1.00  0.00     0.022 C
BRANCH  19  20
HETATM   20  C2  UNL     1      46.619   5.802  14.129  1.00  0.00     0.122 C
BRANCH  20  21
HETATM   21  N3  UNL     1      45.493   5.499  14.980  1.00  0.00    -0.367 N
HETATM   22  C1  UNL     1      44.653   4.573  14.688  1.00  0.00     0.196 C
HETATM   23  N1  UNL     1      43.565   4.310  15.548  1.00  0.00    -0.067 NA
HETATM   24  N2  UNL     1      44.834   3.830  13.501  1.00  0.00    -0.067 NA
ATOM     25  H3  UNL     1      45.361   6.036  15.837  1.00  0.00     0.161 HD
ENDBRANCH  20  21
ENDBRANCH  19  20
ENDBRANCH  18  19
ENDBRANCH   1  18
TORSDOF 9
ENDMDL