MODEL 3
REMARK VINA RESULT: -6.527282655      0.983      1.422
REMARK  11 active torsions:
REMARK  status: ('A' for Active; 'I' for Inactive)
REMARK    1  A    between atoms: O1_2  and  C2_3
REMARK    2  A    between atoms: C2_3  and  C3_4
REMARK    3  A    between atoms: C3_4  and  C4_5
REMARK    4  A    between atoms: C4_5  and  C5_6
REMARK    5  A    between atoms: C5_6  and  N1_7
REMARK    6  A    between atoms: N1_7  and  C6_9
REMARK    7  A    between atoms: C9_14  and  N3_15
REMARK    8  A    between atoms: N3_15  and  C10_17
REMARK    9  A    between atoms: C10_17  and  C11_18
REMARK   10  A    between atoms: C11_18  and  C12_19
REMARK   11  A    between atoms: C12_19  and  N4_20
ROOT
HETATM    1  C6  UNL     1      45.420   5.006  14.512  1.00  0.00     0.683 A
HETATM    2  N2  UNL     1      44.978   3.861  15.067  1.00  0.00    -0.202 N
ATOM      3  H2  UNL     1      45.641   3.235  15.523  1.00  0.00     0.183 HD
HETATM    4  C7  UNL     1      43.664   3.528  15.029  1.00  0.00     0.110 A
HETATM    5  C8  UNL     1      42.760   4.356  14.420  1.00  0.00     0.066 A
HETATM    6  C9  UNL     1      43.224   5.547  13.843  1.00  0.00     0.118 A
HETATM    7  N5  UNL     1      44.506   5.846  13.895  1.00  0.00    -0.177 N
ATOM      8  H5  UNL     1      44.833   6.714  13.472  1.00  0.00     0.186 HD
ENDROOT
BRANCH   6   9
HETATM    9  N3  UNL     1      42.385   6.319  13.276  1.00  0.00    -0.376 N
ATOM     10  H3  UNL     1      41.443   6.329  13.669  1.00  0.00     0.161 HD
BRANCH   9  11
HETATM   11  C10 UNL     1      42.612   7.179  12.147  1.00  0.00     0.126 C
BRANCH  11  12
HETATM   12  C11 UNL     1      42.492   8.640  12.616  1.00  0.00     0.064 C
BRANCH  12  13
HETATM   13  C12 UNL     1      41.093   8.850  13.116  1.00  0.00     0.065 C
BRANCH  13  14
HETATM   14  N4  UNL     1      40.294   9.730  12.421  1.00  0.00    -0.369 N
HETATM   15  C13 UNL     1      39.111   9.358  11.776  1.00  0.00     0.063 C
HETATM   16  C14 UNL     1      38.184  10.529  12.056  1.00  0.00     0.046 C
HETATM   17  C15 UNL     1      39.148  11.693  11.953  1.00  0.00     0.030 C
HETATM   18  C16 UNL     1      40.485  11.119  12.453  1.00  0.00     0.084 C
HETATM   19  C17 UNL     1      40.626  11.587  13.886  1.00  0.00     0.033 C
ENDBRANCH  13  14
ENDBRANCH  12  13
ENDBRANCH  11  12
ENDBRANCH   9  11
ENDBRANCH   6   9
BRANCH   1  20
HETATM   20  N1  UNL     1      46.597   5.371  14.515  1.00  0.00    -0.202 N
ATOM     21  H1  UNL     1      46.597   6.315  14.130  1.00  0.00     0.183 HD
BRANCH  20  22
HETATM   22  C5  UNL     1      47.917   5.081  14.803  1.00  0.00     0.106 C
BRANCH  22  23
HETATM   23  C4  UNL     1      48.810   6.131  15.321  1.00  0.00     0.019 C
BRANCH  23  24
HETATM   24  C3  UNL     1      49.224   7.281  14.511  1.00  0.00     0.025 C
BRANCH  24  25
HETATM   25  C2  UNL     1      48.365   8.434  14.197  1.00  0.00     0.134 C
BRANCH  25  26
HETATM   26  O1  UNL     1      47.128   8.458  13.904  1.00  0.00    -0.368 OA
HETATM   27  C1  UNL     1      46.223   8.730  13.047  1.00  0.00     0.208 C
ENDBRANCH  25  26
ENDBRANCH  24  25
ENDBRANCH  23  24
ENDBRANCH  22  23
ENDBRANCH  20  22
ENDBRANCH   1  20
TORSDOF 11
ENDMDL