MODEL 4
REMARK VINA RESULT: -6.905251550      2.876      4.999
REMARK  9 active torsions:
REMARK  status: ('A' for Active; 'I' for Inactive)
REMARK    1  A    between atoms: S1_2  and  C1_4
REMARK    2  A    between atoms: S1_2  and  N3_17
REMARK    3  A    between atoms: C1_4  and  C2_5
REMARK    4  A    between atoms: C2_5  and  N1_6
REMARK    5  A    between atoms: N1_6  and  C3_9
REMARK    6  A    between atoms: C3_9  and  C4_10
REMARK    7  A    between atoms: N3_17  and  C9_19
REMARK    8  A    between atoms: C9_19  and  C10_20
REMARK    9  A    between atoms: C10_20  and  C11_21
ROOT
HETATM    1  O1  UNL     1      42.066   3.106  15.080  1.00  0.00    -0.206 OA
HETATM    2  S1  UNL     1      43.101   4.134  14.719  1.00  0.00     0.228 S
HETATM    3  O2  UNL     1      43.236   5.064  15.912  1.00  0.00    -0.206 OA
ENDROOT
BRANCH   2   4
HETATM    4  C1  UNL     1      42.547   5.036  13.287  1.00  0.00     0.190 C
BRANCH   4   5
HETATM    5  C2  UNL     1      42.759   6.501  13.506  1.00  0.00     0.249 C
BRANCH   5   6
HETATM    6  N1  UNL     1      41.939   7.354  12.711  1.00  0.00    -0.070 N
ATOM      7  H12 UNL     1      40.952   7.207  12.923  1.00  0.00     0.277 HD
ATOM      8  H11 UNL     1      42.033   8.325  13.008  1.00  0.00     0.277 HD
BRANCH   6   9
HETATM    9  C3  UNL     1      42.183   7.226  11.291  1.00  0.00     0.270 C
BRANCH   9  10
HETATM   10  C4  UNL     1      43.482   7.846  10.921  1.00  0.00    -0.030 A
HETATM   11  C5  UNL     1      44.496   7.111  10.333  1.00  0.00     0.026 A
HETATM   12  C6  UNL     1      45.695   7.696   9.993  1.00  0.00     0.088 A
HETATM   13  N2  UNL     1      45.896   8.997  10.232  1.00  0.00    -0.375 N
HETATM   14  C7  UNL     1      44.922   9.731  10.804  1.00  0.00     0.088 A
ATOM     15  H2  UNL     1      46.784   9.432   9.982  1.00  0.00     0.164 HD
HETATM   16  C8  UNL     1      43.714   9.170  11.153  1.00  0.00     0.026 A
ENDBRANCH   9  10
ENDBRANCH   6   9
ENDBRANCH   5   6
ENDBRANCH   4   5
ENDBRANCH   2   4
BRANCH   2  17
HETATM   17  N3  UNL     1      44.568   3.314  14.426  1.00  0.00    -0.319 N
ATOM     18  H3  UNL     1      44.738   2.352  14.717  1.00  0.00     0.172 HD
BRANCH  17  19
HETATM   19  C9  UNL     1      45.552   4.117  13.725  1.00  0.00     0.136 C
BRANCH  19  20
HETATM   20  C10 UNL     1      46.580   4.532  14.766  1.00  0.00     0.058 C
BRANCH  20  21
HETATM   21  C11 UNL     1      47.135   5.881  14.489  1.00  0.00    -0.057 A
HETATM   22  C12 UNL     1      46.442   6.839  13.769  1.00  0.00     0.007 A
HETATM   23  C13 UNL     1      47.022   8.074  13.551  1.00  0.00     0.001 A
HETATM   24  C14 UNL     1      48.277   8.388  14.028  1.00  0.00     0.000 A
HETATM   25  C15 UNL     1      48.971   7.433  14.749  1.00  0.00     0.001 A
HETATM   26  C16 UNL     1      48.386   6.222  14.955  1.00  0.00     0.007 A
ENDBRANCH  20  21
ENDBRANCH  19  20
ENDBRANCH  17  19
ENDBRANCH   2  17
TORSDOF 9
ENDMDL