MODEL 2
REMARK VINA RESULT: -9.266200984      1.924      2.853
REMARK  16 active torsions:
REMARK  status: ('A' for Active; 'I' for Inactive)
REMARK    1  A    between atoms: O1_2  and  C2_3
REMARK    2  A    between atoms: C2_3  and  C3_4
REMARK    3  A    between atoms: C3_4  and  C4_5
REMARK       I    between atoms: N1_9  and  C8_10
REMARK    4  A    between atoms: C8_10  and  C9_12
REMARK    5  A    between atoms: C9_12  and  N2_13
REMARK    6  A    between atoms: C9_12  and  C28_43
REMARK       I    between atoms: N2_13  and  C10_15
REMARK    7  A    between atoms: C10_15  and  C11_17
REMARK    8  A    between atoms: C11_17  and  C12_18
REMARK    9  A    between atoms: N3_21  and  C15_22
REMARK   10  A    between atoms: C15_22  and  O4_23
REMARK   11  A    between atoms: C15_22  and  C16_25
REMARK   12  A    between atoms: C16_25  and  N4_27
REMARK       I    between atoms: N4_27  and  C18_29
REMARK   13  A    between atoms: C18_29  and  C19_31
REMARK   14  A    between atoms: C19_31  and  N5_33
REMARK       I    between atoms: N5_33  and  C21_34
REMARK   15  A    between atoms: C21_34  and  O7_36
REMARK   16  A    between atoms: O7_36  and  C22_37
ROOT
HETATM    1  C12 UNL     1      16.372  21.378   8.767  1.00  0.00    -0.003 C
HETATM    2  C13 UNL     1      15.459  20.852   9.881  1.00  0.00     0.025 C
HETATM    3  C14 UNL     1      15.475  19.359   9.752  1.00  0.00     0.125 C
HETATM    4  N3  UNL     1      16.831  18.866   9.897  1.00  0.00    -0.364 N
HETATM    5  C26 UNL     1      17.935  19.798   9.832  1.00  0.00     0.125 C
HETATM    6  C27 UNL     1      17.769  21.041   9.058  1.00  0.00     0.025 C
ENDROOT
BRANCH   1   7
HETATM    7  C11 UNL     1      16.033  22.812   8.491  1.00  0.00     0.107 C
BRANCH   7   8
HETATM    8  C10 UNL     1      15.295  23.077   7.260  1.00  0.00     0.218 C
HETATM    9  N2  UNL     1      13.996  22.573   7.030  1.00  0.00    -0.347 N
ATOM     10  H2  UNL     1      13.555  21.940   7.697  1.00  0.00     0.163 HD
HETATM   11  O3  UNL     1      15.830  23.808   6.352  1.00  0.00    -0.274 OA
BRANCH   9  12
HETATM   12  C9  UNL     1      13.290  22.987   5.790  1.00  0.00     0.184 C
BRANCH  12  13
HETATM   13  C8  UNL     1      11.904  23.221   6.282  1.00  0.00     0.243 C
HETATM   14  N1  UNL     1      11.055  24.258   5.902  1.00  0.00    -0.350 N
HETATM   15  C7  UNL     1      11.300  25.319   4.985  1.00  0.00     0.126 C
HETATM   16  C32 UNL     1       9.718  24.275   6.552  1.00  0.00     0.126 C
HETATM   17  C6  UNL     1      10.084  25.498   4.092  1.00  0.00     0.029 C
HETATM   18  C4  UNL     1       8.925  25.957   4.906  1.00  0.00    -0.039 C
HETATM   19  C5  UNL     1       8.839  27.462   4.887  1.00  0.00     0.015 C
HETATM   20  C33 UNL     1       9.212  25.670   6.432  1.00  0.00     0.029 C
HETATM   21  O2  UNL     1      11.490  22.363   7.133  1.00  0.00    -0.271 OA
BRANCH  18  22
HETATM   22  C3  UNL     1       7.619  25.262   4.669  1.00  0.00     0.035 C
BRANCH  22  23
HETATM   23  C2  UNL     1       7.516  24.482   3.422  1.00  0.00     0.167 C
BRANCH  23  24
HETATM   24  O1  UNL     1       6.560  25.079   2.599  1.00  0.00    -0.396 OA
HETATM   25  C1  UNL     1       7.089  25.919   1.658  1.00  0.00     0.201 C
ENDBRANCH  23  24
ENDBRANCH  22  23
ENDBRANCH  18  22
ENDBRANCH  12  13
BRANCH  12  26
HETATM   26  C28 UNL     1      13.388  21.961   4.757  1.00  0.00    -0.022 C
HETATM   27  C29 UNL     1      14.397  22.363   3.664  1.00  0.00     0.017 C
HETATM   28  C30 UNL     1      13.836  20.597   5.263  1.00  0.00     0.017 C
HETATM   29  C31 UNL     1      12.063  21.758   3.985  1.00  0.00     0.017 C
ENDBRANCH  12  26
ENDBRANCH   9  12
ENDBRANCH   7   8
ENDBRANCH   1   7
BRANCH   4  30
HETATM   30  C15 UNL     1      17.039  17.530  10.200  1.00  0.00     0.136 C
BRANCH  30  31
HETATM   31  O4  UNL     1      16.755  17.180  11.459  1.00  0.00    -0.348 OA
ATOM     32  H4  UNL     1      15.889  16.816  11.593  1.00  0.00     0.219 HD
ENDBRANCH  30  31
BRANCH  30  33
HETATM   33  C16 UNL     1      17.498  16.444   9.372  1.00  0.00     0.155 C
HETATM   34  C17 UNL     1      18.657  15.809  10.219  1.00  0.00     0.041 C
BRANCH  33  35
HETATM   35  N4  UNL     1      18.043  16.850   8.111  1.00  0.00    -0.343 N
HETATM   36  C18 UNL     1      18.350  15.986   7.069  1.00  0.00     0.278 C
HETATM   37  O5  UNL     1      18.220  14.744   7.112  1.00  0.00    -0.265 OA
ATOM     38  H4  UNL     1      18.218  17.845   7.968  1.00  0.00     0.163 HD
BRANCH  36  39
HETATM   39  C19 UNL     1      18.902  16.590   5.773  1.00  0.00     0.154 C
HETATM   40  C20 UNL     1      19.156  15.416   4.797  1.00  0.00     0.091 C
BRANCH  39  41
HETATM   41  N5  UNL     1      18.343  17.699   5.394  1.00  0.00    -0.345 NA
HETATM   42  C21 UNL     1      17.733  18.909   4.981  1.00  0.00     0.441 C
HETATM   43  O6  UNL     1      17.335  19.866   5.720  1.00  0.00    -0.221 OA
BRANCH  42  44
HETATM   44  O7  UNL     1      17.517  19.118   3.611  1.00  0.00    -0.282 OA
BRANCH  44  45
HETATM   45  C22 UNL     1      16.631  18.444   2.784  1.00  0.00     0.062 C
HETATM   46  C23 UNL     1      17.286  17.365   1.941  1.00  0.00     0.046 C
HETATM   47  C24 UNL     1      15.663  17.686   3.733  1.00  0.00     0.046 C
HETATM   48  C25 UNL     1      15.752  19.309   1.911  1.00  0.00     0.046 C
ENDBRANCH  44  45
ENDBRANCH  42  44
ENDBRANCH  39  41
ENDBRANCH  36  39
ENDBRANCH  33  35
ENDBRANCH  30  33
ENDBRANCH   4  30
TORSDOF 16
ENDMDL