MODEL 2
REMARK VINA RESULT: -8.022973389      2.630      3.932
REMARK  16 active torsions:
REMARK  status: ('A' for Active; 'I' for Inactive)
REMARK    1  A    between atoms: C2_2  and  C3_3
REMARK    2  A    between atoms: C3_3  and  C4_4
REMARK    3  A    between atoms: C3_3  and  C6_6
REMARK    4  A    between atoms: C3_3  and  C28_36
REMARK    5  A    between atoms: C6_6  and  C7_7
REMARK       I    between atoms: C7_7  and  N1_9
REMARK    6  A    between atoms: N2_12  and  C10_13
REMARK    7  A    between atoms: C10_13  and  O2_14
REMARK    8  A    between atoms: C10_13  and  C11_16
REMARK    9  A    between atoms: C11_16  and  N3_17
REMARK   10  A    between atoms: C11_16  and  C17_25
REMARK       I    between atoms: N3_17  and  C12_18
REMARK   11  A    between atoms: C12_18  and  O4_20
REMARK   12  A    between atoms: O4_20  and  C13_21
REMARK       I    between atoms: C28_36  and  N4_38
REMARK   13  A    between atoms: N4_38  and  C29_40
REMARK   14  A    between atoms: C29_40  and  C30_41
REMARK   15  A    between atoms: C30_41  and  S1_42
REMARK   16  A    between atoms: S1_42  and  N5_43
ROOT
HETATM    1  C7  UNL     1      11.637  25.561   7.040  1.00  0.00     0.224 C
HETATM    2  O1  UNL     1      11.590  25.939   8.220  1.00  0.00    -0.273 OA
HETATM    3  N1  UNL     1      10.577  25.988   6.150  1.00  0.00    -0.328 N
HETATM    4  C8  UNL     1       9.536  26.821   6.690  1.00  0.00     0.151 C
HETATM    5  C9  UNL     1       8.191  26.538   6.173  1.00  0.00     0.146 C
HETATM    6  N2  UNL     1       8.148  26.291   4.688  1.00  0.00    -0.347 N
HETATM    7  C21 UNL     1       9.208  25.513   4.139  1.00  0.00     0.066 C
HETATM    8  C22 UNL     1       8.736  24.051   4.298  1.00  0.00     0.037 C
HETATM    9  C23 UNL     1       9.589  23.048   3.617  1.00  0.00     0.003 C
HETATM   10  C24 UNL     1       9.826  23.424   2.181  1.00  0.00     0.000 C
HETATM   11  C25 UNL     1      10.465  24.774   2.117  1.00  0.00     0.003 C
HETATM   12  C26 UNL     1       9.533  25.836   2.692  1.00  0.00     0.037 C
HETATM   13  C27 UNL     1      10.559  25.644   4.801  1.00  0.00     0.098 C
ENDROOT
BRANCH   1  14
HETATM   14  C6  UNL     1      12.713  24.725   6.538  1.00  0.00     0.122 C
BRANCH  14  15
HETATM   15  C3  UNL     1      12.571  23.254   6.776  1.00  0.00     0.049 C
BRANCH  15  16
HETATM   16  C2  UNL     1      11.294  22.787   7.367  1.00  0.00     0.015 C
HETATM   17  C1  UNL     1      10.737  21.518   6.795  1.00  0.00     0.006 C
ENDBRANCH  15  16
BRANCH  15  18
HETATM   18  C4  UNL     1      12.801  22.527   5.469  1.00  0.00     0.015 C
HETATM   19  C5  UNL     1      13.305  23.433   4.365  1.00  0.00     0.006 C
ENDBRANCH  15  18
BRANCH  15  20
HETATM   20  C28 UNL     1      13.754  22.799   7.639  1.00  0.00     0.230 C
HETATM   21  O5  UNL     1      13.512  21.946   8.482  1.00  0.00    -0.272 OA
HETATM   22  N4  UNL     1      15.017  23.366   7.433  1.00  0.00    -0.336 N
ATOM     23  H4  UNL     1      15.074  24.083   6.709  1.00  0.00     0.168 HD
BRANCH  22  24
HETATM   24  C29 UNL     1      16.211  23.071   8.098  1.00  0.00     0.104 C
BRANCH  24  25
HETATM   25  C30 UNL     1      17.208  22.083   7.742  1.00  0.00     0.148 C
BRANCH  25  26
HETATM   26  S1  UNL     1      17.356  20.511   8.450  1.00  0.00     0.247 S
HETATM   27  O6  UNL     1      17.964  19.514   7.446  1.00  0.00    -0.202 OA
HETATM   28  O7  UNL     1      18.339  20.478   9.607  1.00  0.00    -0.202 OA
BRANCH  26  29
HETATM   29  N5  UNL     1      15.851  19.849   8.901  1.00  0.00    -0.325 N
ATOM     30  H52 UNL     1      15.118  20.398   9.349  1.00  0.00     0.169 HD
ATOM     31  H51 UNL     1      15.774  18.858   8.674  1.00  0.00     0.169 HD
ENDBRANCH  26  29
ENDBRANCH  25  26
ENDBRANCH  24  25
ENDBRANCH  22  24
ENDBRANCH  15  20
ENDBRANCH  14  15
ENDBRANCH   1  14
BRANCH   6  32
HETATM   32  C10 UNL     1       7.073  26.866   4.053  1.00  0.00     0.152 C
BRANCH  32  33
HETATM   33  O2  UNL     1       7.295  28.262   4.090  1.00  0.00    -0.347 OA
ATOM     34  H2  UNL     1       6.447  28.660   4.250  1.00  0.00     0.219 HD
ENDBRANCH  32  33
BRANCH  32  35
HETATM   35  C11 UNL     1       5.822  26.731   3.364  1.00  0.00     0.250 C
BRANCH  35  36
HETATM   36  N3  UNL     1       4.733  27.171   4.116  1.00  0.00    -0.376 NA
HETATM   37  C12 UNL     1       3.661  27.595   4.847  1.00  0.00     0.436 C
HETATM   38  O3  UNL     1       2.480  27.109   4.810  1.00  0.00    -0.221 OA
BRANCH  37  39
HETATM   39  O4  UNL     1       3.752  28.676   5.768  1.00  0.00    -0.283 OA
BRANCH  39  40
HETATM   40  C13 UNL     1       4.360  28.463   7.018  1.00  0.00     0.062 C
HETATM   41  C14 UNL     1       4.626  27.013   7.278  1.00  0.00     0.046 C
HETATM   42  C15 UNL     1       3.453  29.071   8.074  1.00  0.00     0.046 C
HETATM   43  C16 UNL     1       5.695  29.193   7.114  1.00  0.00     0.046 C
ENDBRANCH  39  40
ENDBRANCH  37  39
ENDBRANCH  35  36
BRANCH  35  44
HETATM   44  C17 UNL     1       5.434  25.396   2.756  1.00  0.00    -0.011 C
HETATM   45  C18 UNL     1       4.863  24.381   3.692  1.00  0.00     0.018 C
HETATM   46  C19 UNL     1       4.120  25.743   1.882  1.00  0.00     0.018 C
HETATM   47  C20 UNL     1       6.311  24.776   1.742  1.00  0.00     0.018 C
ENDBRANCH  35  44
ENDBRANCH  32  35
ENDBRANCH   6  32
TORSDOF 16
ENDMDL