MODEL 2
REMARK VINA RESULT: -9.207251731      3.285     12.281
REMARK  11 active torsions:
REMARK  status: ('A' for Active; 'I' for Inactive)
REMARK    1  A    between atoms: S1_2  and  C2_3
REMARK    2  A    between atoms: C2_3  and  C3_4
REMARK    3  A    between atoms: C3_4  and  C4_5
REMARK    4  A    between atoms: C7_11  and  C8_12
REMARK    5  A    between atoms: C8_12  and  N3_13
REMARK    6  A    between atoms: C8_12  and  C28_42
REMARK       I    between atoms: N3_13  and  C9_15
REMARK    7  A    between atoms: C9_15  and  C10_17
REMARK    8  A    between atoms: C10_17  and  C11_19
REMARK       I    between atoms: C11_19  and  N4_21
REMARK    9  A    between atoms: C15_25  and  C16_26
REMARK       I    between atoms: C16_26  and  N5_28
REMARK   10  A    between atoms: N5_28  and  C17_30
REMARK   11  A    between atoms: N6_33  and  C20_34
ROOT
HETATM    1  C10 UNL     1      11.003  23.687   6.789  1.00  0.00     0.306 C
HETATM    2  O2  UNL     1      10.316  22.771   7.278  1.00  0.00    -0.276 OA
ENDROOT
BRANCH   1   3
HETATM    3  C9  UNL     1      10.310  24.894   6.309  1.00  0.00     0.301 C
HETATM    4  N3  UNL     1       8.905  25.005   6.281  1.00  0.00    -0.321 N
ATOM      5  H3  UNL     1       8.361  24.208   6.611  1.00  0.00     0.169 HD
HETATM    6  O1  UNL     1      11.008  25.843   5.917  1.00  0.00    -0.264 OA
BRANCH   4   7
HETATM    7  C8  UNL     1       8.175  26.174   5.815  1.00  0.00     0.040 C
BRANCH   7   8
HETATM    8  C7  UNL     1       7.174  25.836   4.800  1.00  0.00     0.049 C
HETATM    9  C4  UNL     1       7.058  26.588   3.543  1.00  0.00     0.054 C
HETATM   10  C5  UNL     1       6.238  25.641   2.672  1.00  0.00     0.124 C
HETATM   11  N1  UNL     1       6.262  24.359   3.326  1.00  0.00    -0.235 NA
HETATM   12  C6  UNL     1       4.913  23.915   3.627  1.00  0.00     0.136 C
HETATM   13  N2  UNL     1       7.067  24.463   4.452  1.00  0.00    -0.321 N
ATOM     14  H2  UNL     1       7.506  23.686   4.946  1.00  0.00     0.180 HD
BRANCH   9  15
HETATM   15  C3  UNL     1       8.256  27.103   2.866  1.00  0.00     0.022 C
BRANCH  15  16
HETATM   16  C2  UNL     1       8.688  26.091   1.792  1.00  0.00     0.074 C
BRANCH  16  17
HETATM   17  S1  UNL     1      10.109  25.118   2.424  1.00  0.00    -0.173 SA
HETATM   18  C1  UNL     1       9.698  23.357   2.515  1.00  0.00     0.089 C
ENDBRANCH  16  17
ENDBRANCH  15  16
ENDBRANCH   9  15
ENDBRANCH   7   8
BRANCH   7  19
HETATM   19  C28 UNL     1       7.828  27.113   6.918  1.00  0.00     0.038 C
HETATM   20  C29 UNL     1       6.309  27.457   6.843  1.00  0.00     0.011 C
HETATM   21  C30 UNL     1       6.033  28.544   7.842  1.00  0.00     0.001 C
HETATM   22  C31 UNL     1       7.247  28.987   8.593  1.00  0.00     0.000 C
HETATM   23  C32 UNL     1       7.984  27.831   9.229  1.00  0.00     0.001 C
HETATM   24  C33 UNL     1       7.940  26.578   8.321  1.00  0.00     0.011 C
ENDBRANCH   7  19
ENDBRANCH   4   7
ENDBRANCH   1   3
BRANCH   1  25
HETATM   25  C11 UNL     1      12.443  23.563   6.698  1.00  0.00     0.300 C
HETATM   26  O3  UNL     1      13.153  24.100   7.631  1.00  0.00    -0.264 OA
HETATM   27  N4  UNL     1      13.109  22.895   5.656  1.00  0.00    -0.332 N
HETATM   28  C12 UNL     1      12.609  22.241   4.486  1.00  0.00     0.127 C
HETATM   29  C15 UNL     1      14.579  22.725   5.602  1.00  0.00     0.179 C
HETATM   30  C13 UNL     1      13.629  22.591   3.423  1.00  0.00     0.022 C
HETATM   31  C14 UNL     1      14.928  22.660   4.160  1.00  0.00     0.037 C
BRANCH  29  32
HETATM   32  C16 UNL     1      14.997  21.505   6.326  1.00  0.00     0.241 C
HETATM   33  O4  UNL     1      15.047  20.433   5.654  1.00  0.00    -0.271 OA
HETATM   34  N5  UNL     1      15.327  21.505   7.688  1.00  0.00    -0.355 N
ATOM     35  H5  UNL     1      15.281  22.382   8.208  1.00  0.00     0.162 HD
BRANCH  34  36
HETATM   36  C17 UNL     1      15.736  20.282   8.389  1.00  0.00     0.087 C
HETATM   37  C18 UNL     1      15.334  20.428   9.840  1.00  0.00     0.044 C
HETATM   38  C19 UNL     1      16.431  19.721  10.657  1.00  0.00     0.119 C
HETATM   39  N6  UNL     1      16.784  18.557   9.948  1.00  0.00    -0.408 N
HETATM   40  C26 UNL     1      17.614  18.782   8.835  1.00  0.00     0.119 C
HETATM   41  C27 UNL     1      17.246  20.160   8.264  1.00  0.00     0.044 C
BRANCH  39  42
HETATM   42  C20 UNL     1      16.804  17.338  10.622  1.00  0.00     0.079 C
HETATM   43  C21 UNL     1      17.348  17.452  12.029  1.00  0.00     0.025 C
HETATM   44  C22 UNL     1      17.485  16.008  12.533  1.00  0.00     0.002 C
HETATM   45  C23 UNL     1      16.078  15.605  12.955  1.00  0.00     0.000 C
HETATM   46  C24 UNL     1      15.070  16.373  12.166  1.00  0.00     0.002 C
HETATM   47  C25 UNL     1      15.504  16.589  10.713  1.00  0.00     0.025 C
ENDBRANCH  39  42
ENDBRANCH  34  36
ENDBRANCH  29  32
ENDBRANCH   1  25
TORSDOF 11
ENDMDL