MODEL 3
REMARK VINA RESULT: -9.787085111      4.546     10.987
REMARK  14 active torsions:
REMARK  status: ('A' for Active; 'I' for Inactive)
REMARK    1  A    between atoms: C2_2  and  O1_4
REMARK    2  A    between atoms: O1_4  and  C4_5
REMARK       I    between atoms: C4_5  and  N1_7
REMARK    3  A    between atoms: N1_7  and  C5_9
REMARK    4  A    between atoms: C5_9  and  C6_10
REMARK    5  A    between atoms: C5_9  and  C23_37
REMARK    6  A    between atoms: C6_10  and  O3_11
REMARK    7  A    between atoms: C6_10  and  N2_13
REMARK    8  A    between atoms: N2_13  and  C7_15
REMARK    9  A    between atoms: C7_15  and  C8_16
REMARK   10  A    between atoms: C8_16  and  O4_17
REMARK   11  A    between atoms: C8_16  and  N3_19
REMARK   12  A    between atoms: C27_41  and  C28_42
REMARK   13  A    between atoms: C28_42  and  S1_43
REMARK   14  A    between atoms: S1_43  and  N5_46
ROOT
HETATM    1  C6  UNL     1      10.698  25.207   3.428  1.00  0.00     0.140 C
ENDROOT
BRANCH   1   2
HETATM    2  C5  UNL     1       9.294  25.691   3.365  1.00  0.00     0.169 C
BRANCH   2   3
HETATM    3  N1  UNL     1       8.996  26.258   4.648  1.00  0.00    -0.324 N
HETATM    4  C4  UNL     1       8.551  27.488   5.066  1.00  0.00     0.361 C
HETATM    5  O2  UNL     1       8.320  28.414   4.264  1.00  0.00    -0.238 OA
ATOM      6  H1  UNL     1       9.149  25.606   5.418  1.00  0.00     0.165 HD
BRANCH   4   7
HETATM    7  O1  UNL     1       8.327  27.781   6.403  1.00  0.00    -0.299 OA
BRANCH   7   8
HETATM    8  C2  UNL     1       7.024  28.110   6.870  1.00  0.00     0.125 C
HETATM    9  C1  UNL     1       6.359  26.862   7.402  1.00  0.00     0.040 C
HETATM   10  C3  UNL     1       7.192  29.166   7.936  1.00  0.00     0.040 C
ENDBRANCH   7   8
ENDBRANCH   4   7
ENDBRANCH   2   3
BRANCH   2  11
HETATM   11  C23 UNL     1       8.291  24.761   2.826  1.00  0.00    -0.016 C
HETATM   12  C24 UNL     1       8.731  23.404   2.398  1.00  0.00     0.018 C
HETATM   13  C25 UNL     1       7.440  25.363   1.760  1.00  0.00     0.012 C
HETATM   14  C26 UNL     1       6.028  24.779   1.736  1.00  0.00     0.006 C
HETATM   15  C27 UNL     1       5.214  25.208   2.923  1.00  0.00     0.001 C
HETATM   16  C31 UNL     1       6.221  25.544   4.017  1.00  0.00     0.006 C
HETATM   17  C32 UNL     1       7.272  24.470   3.984  1.00  0.00     0.012 C
BRANCH  15  18
HETATM   18  C28 UNL     1       4.324  24.139   3.474  1.00  0.00     0.162 C
BRANCH  18  19
HETATM   19  S1  UNL     1       2.976  24.731   4.432  1.00  0.00     0.211 S
HETATM   20  O5  UNL     1       1.716  23.968   4.201  1.00  0.00    -0.211 OA
HETATM   21  O6  UNL     1       3.340  24.501   5.893  1.00  0.00    -0.211 OA
BRANCH  19  22
HETATM   22  N5  UNL     1       2.690  26.404   4.250  1.00  0.00    -0.219 NA
HETATM   23  C29 UNL     1       3.079  27.154   5.409  1.00  0.00     0.128 C
HETATM   24  C30 UNL     1       1.266  26.596   4.037  1.00  0.00     0.128 C
ENDBRANCH  19  22
ENDBRANCH  18  19
ENDBRANCH  15  18
ENDBRANCH   2  11
ENDBRANCH   1   2
BRANCH   1  25
HETATM   25  O3  UNL     1      11.565  25.642   2.558  1.00  0.00    -0.348 OA
ATOM     26  H3  UNL     1      12.316  26.140   2.858  1.00  0.00     0.219 HD
ENDBRANCH   1  25
BRANCH   1  27
HETATM   27  N2  UNL     1      11.250  24.304   4.332  1.00  0.00    -0.335 N
ATOM     28  H2  UNL     1      11.045  23.313   4.207  1.00  0.00     0.168 HD
BRANCH  27  29
HETATM   29  C7  UNL     1      12.133  24.709   5.483  1.00  0.00     0.087 C
HETATM   30  C17 UNL     1      11.284  24.926   6.634  1.00  0.00    -0.049 C
HETATM   31  C18 UNL     1      10.469  23.808   7.197  1.00  0.00     0.036 C
HETATM   32  C22 UNL     1      11.699  25.936   7.648  1.00  0.00     0.036 C
HETATM   33  C19 UNL     1       9.224  24.425   7.808  1.00  0.00     0.004 C
HETATM   34  C20 UNL     1       9.693  25.290   8.957  1.00  0.00     0.001 C
HETATM   35  C21 UNL     1      10.468  26.464   8.388  1.00  0.00     0.004 C
BRANCH  29  36
HETATM   36  C8  UNL     1      13.384  24.040   5.393  1.00  0.00     0.167 C
BRANCH  36  37
HETATM   37  O4  UNL     1      14.094  24.535   4.345  1.00  0.00    -0.344 OA
ATOM     38  H4  UNL     1      14.966  24.161   4.344  1.00  0.00     0.219 HD
ENDBRANCH  36  37
BRANCH  36  39
HETATM   39  N3  UNL     1      14.141  23.049   6.010  1.00  0.00    -0.332 N
HETATM   40  C9  UNL     1      15.201  23.286   6.923  1.00  0.00     0.134 C
HETATM   41  C10 UNL     1      15.217  22.144   7.884  1.00  0.00     0.045 A
HETATM   42  C11 UNL     1      15.616  20.977   6.909  1.00  0.00     0.203 A
HETATM   43  C14 UNL     1      16.174  21.154   8.200  1.00  0.00    -0.012 A
HETATM   44  N4  UNL     1      14.349  20.621   6.424  1.00  0.00    -0.049 N
HETATM   45  C12 UNL     1      13.827  21.677   5.633  1.00  0.00     0.284 C
ATOM     46  H42 UNL     1      14.365  19.734   5.919  1.00  0.00     0.280 HD
ATOM     47  H41 UNL     1      13.712  20.350   7.173  1.00  0.00     0.280 HD
HETATM   48  C13 UNL     1      14.225  21.406   4.191  1.00  0.00     0.063 C
HETATM   49  C15 UNL     1      15.820  20.144   9.296  1.00  0.00     0.017 C
HETATM   50  C16 UNL     1      17.624  21.600   8.325  1.00  0.00     0.017 C
ENDBRANCH  36  39
ENDBRANCH  29  36
ENDBRANCH  27  29
ENDBRANCH   1  27
TORSDOF 14
ENDMDL