MODEL 4
REMARK VINA RESULT: -9.982023839      3.205     10.047
REMARK  12 active torsions:
REMARK  status: ('A' for Active; 'I' for Inactive)
REMARK    1  A    between atoms: C2_2  and  C3_3
REMARK       I    between atoms: C3_3  and  N1_5
REMARK    2  A    between atoms: C6_8  and  C7_9
REMARK    3  A    between atoms: C6_8  and  C33_45
REMARK    4  A    between atoms: C7_9  and  N2_10
REMARK       I    between atoms: N2_10  and  C8_12
REMARK    5  A    between atoms: C8_12  and  C9_14
REMARK    6  A    between atoms: C15_20  and  C16_21
REMARK       I    between atoms: C16_21  and  N3_23
REMARK    7  A    between atoms: N3_23  and  C17_25
REMARK    8  A    between atoms: C17_25  and  C18_26
REMARK    9  A    between atoms: C17_25  and  C25_33
REMARK   10  A    between atoms: C18_26  and  C19_27
REMARK   11  A    between atoms: C25_33  and  C26_35
REMARK   12  A    between atoms: C27_38  and  C28_39
ROOT
HETATM    1  C9  UNL     1       9.532  26.098   7.828  1.00  0.00     0.005 C
HETATM    2  C10 UNL     1      10.058  26.931   8.967  1.00  0.00     0.021 C
HETATM    3  C11 UNL     1       9.675  28.352   9.022  1.00  0.00     0.014 C
HETATM    4  C12 UNL     1       8.285  27.884   9.368  1.00  0.00    -0.012 C
HETATM    5  C13 UNL     1       8.983  26.740  10.071  1.00  0.00     0.014 C
HETATM    6  C14 UNL     1       7.491  27.373   8.233  1.00  0.00     0.023 C
HETATM    7  C15 UNL     1       8.225  26.427   7.289  1.00  0.00     0.113 C
ENDROOT
BRANCH   7   8
HETATM    8  C16 UNL     1       8.000  26.881   5.933  1.00  0.00     0.226 C
HETATM    9  O3  UNL     1       8.193  28.107   5.582  1.00  0.00    -0.273 OA
HETATM   10  N3  UNL     1       7.570  26.030   4.897  1.00  0.00    -0.349 N
ATOM     11  H3  UNL     1       7.363  25.049   5.085  1.00  0.00     0.163 HD
BRANCH  10  12
HETATM   12  C17 UNL     1       7.426  26.576   3.550  1.00  0.00     0.162 C
BRANCH  12  13
HETATM   13  C18 UNL     1       8.370  25.856   2.605  1.00  0.00     0.038 C
BRANCH  13  14
HETATM   14  C19 UNL     1       9.182  24.770   3.208  1.00  0.00    -0.012 C
HETATM   15  C20 UNL     1      10.553  24.578   2.622  1.00  0.00     0.005 C
HETATM   16  C21 UNL     1      11.198  23.351   3.265  1.00  0.00     0.000 C
HETATM   17  C22 UNL     1      10.446  22.106   2.861  1.00  0.00     0.000 C
HETATM   18  C23 UNL     1       9.202  22.511   2.114  1.00  0.00     0.000 C
HETATM   19  C24 UNL     1       8.406  23.469   2.983  1.00  0.00     0.005 C
ENDBRANCH  13  14
ENDBRANCH  12  13
BRANCH  12  20
HETATM   20  C25 UNL     1       6.062  26.368   3.072  1.00  0.00     0.205 C
HETATM   21  O4  UNL     1       5.742  26.476   1.875  1.00  0.00    -0.288 OA
BRANCH  20  22
HETATM   22  C26 UNL     1       4.957  26.007   3.994  1.00  0.00     0.122 A
HETATM   23  N4  UNL     1       4.348  26.749   4.900  1.00  0.00    -0.350 N
HETATM   24  C27 UNL     1       3.389  26.255   5.606  1.00  0.00     0.024 A
ATOM     25  H4  UNL     1       4.638  27.716   5.042  1.00  0.00     0.166 HD
HETATM   26  C32 UNL     1       3.034  24.944   5.377  1.00  0.00     0.077 A
HETATM   27  S1  UNL     1       4.124  24.508   4.142  1.00  0.00    -0.079 SA
BRANCH  24  28
HETATM   28  C28 UNL     1       2.649  27.061   6.664  1.00  0.00    -0.008 C
HETATM   29  C29 UNL     1       1.754  26.207   7.500  1.00  0.00     0.021 C
HETATM   30  C30 UNL     1       1.857  28.144   5.987  1.00  0.00     0.021 C
HETATM   31  C31 UNL     1       3.678  27.694   7.566  1.00  0.00     0.021 C
ENDBRANCH  24  28
ENDBRANCH  20  22
ENDBRANCH  12  20
ENDBRANCH  10  12
ENDBRANCH   7   8
BRANCH   1  32
HETATM   32  C8  UNL     1      10.591  25.648   6.904  1.00  0.00     0.244 C
HETATM   33  N2  UNL     1      11.444  24.609   7.305  1.00  0.00    -0.356 N
ATOM     34  H2  UNL     1      11.285  24.211   8.230  1.00  0.00     0.162 HD
HETATM   35  O2  UNL     1      10.731  26.168   5.801  1.00  0.00    -0.268 OA
BRANCH  33  36
HETATM   36  C7  UNL     1      12.526  24.053   6.528  1.00  0.00     0.143 C
BRANCH  36  37
HETATM   37  C6  UNL     1      12.703  22.563   6.909  1.00  0.00     0.072 C
HETATM   38  C5  UNL     1      13.748  21.932   6.053  1.00  0.00     0.042 C
HETATM   39  C4  UNL     1      14.834  21.450   6.937  1.00  0.00     0.127 C
HETATM   40  N1  UNL     1      14.368  21.603   8.276  1.00  0.00    -0.347 N
HETATM   41  C3  UNL     1      15.025  21.001   9.394  1.00  0.00     0.242 C
HETATM   42  C34 UNL     1      13.197  22.428   8.298  1.00  0.00     0.146 C
HETATM   43  O1  UNL     1      14.570  21.180  10.536  1.00  0.00    -0.268 OA
BRANCH  41  44
HETATM   44  C2  UNL     1      16.205  20.195   9.189  1.00  0.00     0.064 C
HETATM   45  C1  UNL     1      16.569  19.245  10.048  1.00  0.00     0.017 C
ENDBRANCH  41  44
BRANCH  37  46
HETATM   46  C33 UNL     1      11.423  21.848   6.775  1.00  0.00     0.243 C
HETATM   47  N5  UNL     1      10.324  21.967   7.653  1.00  0.00    -0.061 NA
HETATM   48  O5  UNL     1      11.255  21.043   5.795  1.00  0.00    -0.276 OA
ENDBRANCH  37  46
ENDBRANCH  36  37
ENDBRANCH  33  36
ENDBRANCH   1  32
TORSDOF 12
ENDMDL