MODEL 1
REMARK VINA RESULT: -8.954110612      0.000      0.000
REMARK  14 active torsions:
REMARK  status: ('A' for Active; 'I' for Inactive)
REMARK    1  A    between atoms: C2_2  and  C3_3
REMARK    2  A    between atoms: C10_10  and  O1_11
REMARK    3  A    between atoms: O1_11  and  C11_12
REMARK       I    between atoms: C11_12  and  N1_14
REMARK    4  A    between atoms: N1_14  and  C12_16
REMARK    5  A    between atoms: C12_16  and  C14_18
REMARK    6  A    between atoms: C14_18  and  C15_19
REMARK    7  A    between atoms: C15_19  and  O3_20
REMARK    8  A    between atoms: C15_19  and  C16_22
REMARK       I    between atoms: C16_22  and  N2_24
REMARK    9  A    between atoms: N2_24  and  C18_26
REMARK   10  A    between atoms: C18_26  and  C20_28
REMARK   11  A    between atoms: C20_28  and  N3_30
REMARK       I    between atoms: N3_30  and  C22_32
REMARK   12  A    between atoms: C22_32  and  C23_34
REMARK   13  A    between atoms: C23_34  and  N4_35
REMARK   14  A    between atoms: C23_34  and  C29_45
REMARK       I    between atoms: N4_35  and  C24_37
REMARK       I    between atoms: C24_37  and  N5_39
ROOT
HETATM    1  C16 UNL     1       9.743  24.093   4.332  1.00  0.00     0.248 C
HETATM    2  O4  UNL     1       8.544  23.837   4.732  1.00  0.00    -0.270 OA
HETATM    3  N2  UNL     1      10.779  23.663   5.125  1.00  0.00    -0.348 N
HETATM    4  C17 UNL     1      10.408  22.964   6.386  1.00  0.00     0.153 C
ENDROOT
BRANCH   3   5
HETATM    5  C18 UNL     1      12.214  23.758   4.939  1.00  0.00     0.105 C
HETATM    6  C19 UNL     1      12.624  22.687   3.916  1.00  0.00     0.034 C
BRANCH   5   7
HETATM    7  C20 UNL     1      12.829  23.477   6.280  1.00  0.00     0.103 C
HETATM    8  C21 UNL     1      13.066  24.791   7.003  1.00  0.00     0.034 C
BRANCH   7   9
HETATM    9  N3  UNL     1      14.071  22.755   6.272  1.00  0.00    -0.350 N
HETATM   10  C22 UNL     1      14.298  21.771   7.284  1.00  0.00     0.265 C
HETATM   11  O5  UNL     1      13.329  21.635   8.086  1.00  0.00    -0.266 OA
ATOM     12  H3  UNL     1      14.776  22.939   5.559  1.00  0.00     0.163 HD
BRANCH  10  13
HETATM   13  C23 UNL     1      15.501  20.953   7.459  1.00  0.00     0.089 C
BRANCH  13  14
HETATM   14  N4  UNL     1      15.994  20.267   6.331  1.00  0.00    -0.307 N
HETATM   15  C24 UNL     1      15.450  19.821   5.148  1.00  0.00     0.322 C
HETATM   16  O6  UNL     1      14.263  19.939   4.794  1.00  0.00    -0.247 OA
HETATM   17  N5  UNL     1      16.283  19.140   4.163  1.00  0.00    -0.330 N
HETATM   18  C25 UNL     1      15.774  18.718   2.902  1.00  0.00     0.153 C
HETATM   19  C28 UNL     1      17.657  18.895   4.505  1.00  0.00     0.153 C
HETATM   20  C26 UNL     1      16.889  18.955   1.895  1.00  0.00     0.187 C
HETATM   21  O7  UNL     1      18.067  18.332   2.204  1.00  0.00    -0.388 OA
HETATM   22  C27 UNL     1      18.232  17.912   3.499  1.00  0.00     0.187 C
ATOM     23  H4  UNL     1      16.988  20.051   6.410  1.00  0.00     0.170 HD
ENDBRANCH  13  14
BRANCH  13  24
HETATM   24  C29 UNL     1      16.584  21.555   8.310  1.00  0.00    -0.003 C
HETATM   25  C30 UNL     1      16.371  23.007   8.549  1.00  0.00     0.021 C
HETATM   26  C31 UNL     1      16.522  20.884   9.698  1.00  0.00     0.021 C
HETATM   27  C32 UNL     1      17.959  21.244   7.775  1.00  0.00     0.021 C
ENDBRANCH  13  24
ENDBRANCH  10  13
ENDBRANCH   7   9
ENDBRANCH   5   7
ENDBRANCH   3   5
BRANCH   1  28
HETATM   28  C15 UNL     1       9.771  24.831   3.046  1.00  0.00     0.212 C
BRANCH  28  29
HETATM   29  C14 UNL     1       8.452  24.812   2.342  1.00  0.00     0.066 C
BRANCH  29  30
HETATM   30  C12 UNL     1       7.722  26.101   2.268  1.00  0.00     0.085 C
HETATM   31  C13 UNL     1       6.532  26.097   1.349  1.00  0.00     0.032 C
BRANCH  30  32
HETATM   32  N1  UNL     1       7.190  26.366   3.610  1.00  0.00    -0.333 N
HETATM   33  C11 UNL     1       7.498  27.530   4.349  1.00  0.00     0.361 C
HETATM   34  O2  UNL     1       8.253  28.442   3.934  1.00  0.00    -0.238 OA
ATOM     35  H1  UNL     1       6.568  25.675   4.030  1.00  0.00     0.165 HD
BRANCH  33  36
HETATM   36  O1  UNL     1       6.940  27.679   5.590  1.00  0.00    -0.298 OA
BRANCH  36  37
HETATM   37  C10 UNL     1       7.637  27.768   6.816  1.00  0.00     0.138 C
HETATM   38  C3  UNL     1       6.835  28.466   7.907  1.00  0.00     0.015 C
HETATM   39  C4  UNL     1       7.792  28.636   9.061  1.00  0.00     0.008 C
HETATM   40  C5  UNL     1       8.243  27.347   9.623  1.00  0.00     0.009 C
HETATM   41  C6  UNL     1       8.669  26.309   8.625  1.00  0.00    -0.045 C
HETATM   42  C7  UNL     1      10.191  26.478   8.506  1.00  0.00     0.015 C
HETATM   43  C8  UNL     1       8.467  24.928   9.231  1.00  0.00     0.015 C
HETATM   44  C9  UNL     1       8.119  26.419   7.274  1.00  0.00     0.041 C
BRANCH  38  45
HETATM   45  C2  UNL     1       6.399  29.824   7.399  1.00  0.00     0.002 C
HETATM   46  C1  UNL     1       4.877  29.871   7.484  1.00  0.00     0.005 C
ENDBRANCH  38  45
ENDBRANCH  36  37
ENDBRANCH  33  36
ENDBRANCH  30  32
ENDBRANCH  29  30
ENDBRANCH  28  29
BRANCH  28  47
HETATM   47  O3  UNL     1      10.315  26.076   3.088  1.00  0.00    -0.386 OA
ATOM     48  H3  UNL     1      11.203  26.093   2.751  1.00  0.00     0.210 HD
ENDBRANCH  28  47
ENDBRANCH   1  28
TORSDOF 14
ENDMDL