MODEL 3
REMARK VINA RESULT: -8.487362218      1.487      2.094
REMARK  13 active torsions:
REMARK  status: ('A' for Active; 'I' for Inactive)
REMARK    1  A    between atoms: C2_2  and  C5_5
REMARK    2  A    between atoms: C5_5  and  C6_6
REMARK    3  A    between atoms: C6_6  and  C7_7
REMARK    4  A    between atoms: C7_7  and  C8_8
REMARK    5  A    between atoms: C8_8  and  C9_9
REMARK       I    between atoms: C9_9  and  N1_11
REMARK    6  A    between atoms: N1_11  and  C10_13
REMARK    7  A    between atoms: C10_13  and  C11_14
REMARK    8  A    between atoms: C15_20  and  C16_21
REMARK    9  A    between atoms: C21_26  and  O4_27
REMARK   10  A    between atoms: C21_26  and  N2_29
REMARK   11  A    between atoms: C24_32  and  C25_33
REMARK   12  A    between atoms: C24_32  and  N4_41
REMARK       I    between atoms: C25_33  and  N3_35
REMARK   13  A    between atoms: N3_35  and  S1_37
ROOT
HETATM    1  C5  UNL     1      11.498  24.613   5.572  1.00  0.00    -0.004 C
HETATM    2  C21 UNL     1      12.640  23.772   5.756  1.00  0.00     0.144 C
ENDROOT
BRANCH   1   3
HETATM    3  C2  UNL     1      10.639  24.503   4.350  1.00  0.00    -0.020 C
HETATM    4  C1  UNL     1      11.449  24.418   3.105  1.00  0.00     0.019 C
HETATM    5  C3  UNL     1       9.605  23.400   4.524  1.00  0.00     0.019 C
HETATM    6  C4  UNL     1       9.765  25.769   4.158  1.00  0.00     0.019 C
ENDBRANCH   1   3
BRANCH   1   7
HETATM    7  C6  UNL     1      11.160  25.597   6.428  1.00  0.00    -0.014 C
BRANCH   7   8
HETATM    8  C7  UNL     1      10.704  25.554   7.796  1.00  0.00     0.037 C
BRANCH   8   9
HETATM    9  C8  UNL     1       9.194  25.444   7.917  1.00  0.00     0.106 C
BRANCH   9  10
HETATM   10  C9  UNL     1       8.525  26.695   7.461  1.00  0.00     0.218 C
HETATM   11  O1  UNL     1       9.143  27.762   7.679  1.00  0.00    -0.274 OA
HETATM   12  N1  UNL     1       7.282  26.713   6.819  1.00  0.00    -0.342 N
ATOM     13  H1  UNL     1       6.804  25.828   6.646  1.00  0.00     0.163 HD
BRANCH  12  14
HETATM   14  C10 UNL     1       6.659  27.926   6.400  1.00  0.00     0.125 C
HETATM   15  C12 UNL     1       7.192  29.137   7.119  1.00  0.00     0.043 C
HETATM   16  C13 UNL     1       6.039  29.782   7.833  1.00  0.00     0.004 C
HETATM   17  C14 UNL     1       4.819  28.928   7.628  1.00  0.00     0.008 C
HETATM   18  C15 UNL     1       5.159  27.966   6.531  1.00  0.00     0.029 C
BRANCH  14  19
HETATM   19  C11 UNL     1       6.923  28.119   4.921  1.00  0.00     0.203 C
HETATM   20  O2  UNL     1       6.095  27.825   4.041  1.00  0.00    -0.646 OA
HETATM   21  O3  UNL     1       8.145  28.645   4.573  1.00  0.00    -0.646 OA
ENDBRANCH  14  19
BRANCH  18  22
HETATM   22  C16 UNL     1       4.478  26.645   6.601  1.00  0.00    -0.007 C
HETATM   23  C17 UNL     1       3.759  26.383   5.290  1.00  0.00     0.005 C
HETATM   24  C18 UNL     1       2.543  25.552   5.657  1.00  0.00     0.000 C
HETATM   25  C19 UNL     1       2.233  25.867   7.088  1.00  0.00     0.000 C
HETATM   26  C20 UNL     1       3.339  26.768   7.613  1.00  0.00     0.005 C
ENDBRANCH  18  22
ENDBRANCH  12  14
ENDBRANCH   9  10
ENDBRANCH   8   9
ENDBRANCH   7   8
ENDBRANCH   1   7
BRANCH   2  27
HETATM   27  O4  UNL     1      13.320  24.118   6.859  1.00  0.00    -0.346 OA
ATOM     28  H4  UNL     1      13.484  25.053   6.880  1.00  0.00     0.219 HD
ENDBRANCH   2  27
BRANCH   2  29
HETATM   29  N2  UNL     1      13.254  22.706   5.139  1.00  0.00    -0.359 N
HETATM   30  C22 UNL     1      12.435  21.459   4.829  1.00  0.00     0.128 C
HETATM   31  C23 UNL     1      13.374  20.402   5.323  1.00  0.00     0.062 C
HETATM   32  C24 UNL     1      14.731  20.840   5.056  1.00  0.00     0.128 C
HETATM   33  C32 UNL     1      14.516  22.303   4.611  1.00  0.00     0.166 C
BRANCH  32  34
HETATM   34  C25 UNL     1      15.500  20.954   6.322  1.00  0.00     0.261 C
HETATM   35  O5  UNL     1      14.832  20.822   7.395  1.00  0.00    -0.270 OA
HETATM   36  N3  UNL     1      16.887  21.194   6.422  1.00  0.00    -0.253 N
ATOM     37  H3  UNL     1      17.447  21.313   5.578  1.00  0.00     0.181 HD
BRANCH  36  38
HETATM   38  S1  UNL     1      17.642  21.287   7.994  1.00  0.00     0.229 S
HETATM   39  C26 UNL     1      17.442  19.799   8.910  1.00  0.00     0.186 C
HETATM   40  O6  UNL     1      19.087  21.621   7.766  1.00  0.00    -0.206 OA
HETATM   41  O7  UNL     1      16.987  22.437   8.752  1.00  0.00    -0.206 OA
ENDBRANCH  36  38
ENDBRANCH  32  34
BRANCH  32  42
HETATM   42  N4  UNL     1      15.547  20.198   4.101  1.00  0.00    -0.394 N
HETATM   43  C27 UNL     1      15.860  18.837   4.339  1.00  0.00     0.118 C
HETATM   44  C28 UNL     1      17.130  18.479   3.598  1.00  0.00     0.019 C
HETATM   45  C29 UNL     1      16.875  18.641   2.104  1.00  0.00     0.003 C
HETATM   46  C30 UNL     1      15.484  19.208   1.894  1.00  0.00     0.019 C
HETATM   47  C31 UNL     1      15.218  20.433   2.735  1.00  0.00     0.118 C
ENDBRANCH  32  42
ENDBRANCH   2  29
TORSDOF 13
ENDMDL