MODEL 3
REMARK VINA RESULT: -10.243229854      1.593      2.555
REMARK  12 active torsions:
REMARK  status: ('A' for Active; 'I' for Inactive)
REMARK    1  A    between atoms: C2_2  and  N1_3
REMARK       I    between atoms: N1_3  and  C3_5
REMARK    2  A    between atoms: C3_5  and  C4_7
REMARK    3  A    between atoms: C4_7  and  C5_8
REMARK    4  A    between atoms: C5_8  and  N2_9
REMARK    5  A    between atoms: C5_8  and  C13_20
REMARK       I    between atoms: N2_9  and  C6_10
REMARK    6  A    between atoms: C6_10  and  C7_12
REMARK       I    between atoms: C13_20  and  N3_22
REMARK    7  A    between atoms: N3_22  and  C14_24
REMARK    8  A    between atoms: C14_24  and  C15_25
REMARK    9  A    between atoms: C14_24  and  C22_32
REMARK   10  A    between atoms: C15_25  and  C16_26
REMARK   11  A    between atoms: C22_32  and  C23_34
REMARK   12  A    between atoms: C23_34  and  C24_35
REMARK       I    between atoms: C24_35  and  N4_37
ROOT
HETATM    1  C14 UNL     1      13.003  22.932   5.478  1.00  0.00     0.178 C
ENDROOT
BRANCH   1   2
HETATM    2  N3  UNL     1      13.801  21.755   6.018  1.00  0.00    -0.344 N
HETATM    3  C13 UNL     1      15.103  21.918   6.489  1.00  0.00     0.255 C
HETATM    4  O5  UNL     1      15.693  23.018   6.440  1.00  0.00    -0.270 OA
ATOM      5  H3  UNL     1      13.375  20.828   6.035  1.00  0.00     0.163 HD
BRANCH   3   6
HETATM    6  C5  UNL     1      15.837  20.779   7.081  1.00  0.00     0.267 C
BRANCH   6   7
HETATM    7  C4  UNL     1      17.315  20.755   6.679  1.00  0.00     0.152 C
BRANCH   7   8
HETATM    8  C3  UNL     1      17.505  19.805   5.539  1.00  0.00     0.221 C
HETATM    9  N1  UNL     1      16.444  18.993   5.094  1.00  0.00    -0.361 N
ATOM     10  H1  UNL     1      15.525  19.030   5.533  1.00  0.00     0.162 HD
HETATM   11  O1  UNL     1      18.618  19.745   4.996  1.00  0.00    -0.273 OA
BRANCH   9  12
HETATM   12  C2  UNL     1      16.715  18.101   3.983  1.00  0.00     0.118 C
HETATM   13  C1  UNL     1      16.038  18.447   2.710  1.00  0.00     0.026 C
ENDBRANCH   9  12
ENDBRANCH   7   8
ENDBRANCH   6   7
BRANCH   6  14
HETATM   14  N2  UNL     1      15.663  20.493   8.413  1.00  0.00    -0.399 NA
HETATM   15  C6  UNL     1      15.481  20.214   9.737  1.00  0.00     0.294 C
HETATM   16  O2  UNL     1      14.516  20.584  10.477  1.00  0.00    -0.257 OA
BRANCH  15  17
HETATM   17  C7  UNL     1      16.476  19.377  10.521  1.00  0.00     0.125 C
HETATM   18  C8  UNL     1      17.890  19.687  10.175  1.00  0.00     0.186 C
HETATM   19  O3  UNL     1      18.451  18.646   9.477  1.00  0.00    -0.360 OA
HETATM   20  C9  UNL     1      17.528  17.614   9.384  1.00  0.00     0.264 C
HETATM   21  O4  UNL     1      18.093  16.418   9.873  1.00  0.00    -0.361 OA
HETATM   22  C12 UNL     1      16.356  17.925  10.255  1.00  0.00     0.059 C
HETATM   23  C10 UNL     1      18.029  16.482  11.253  1.00  0.00     0.171 C
HETATM   24  C11 UNL     1      16.654  17.106  11.507  1.00  0.00     0.036 C
ENDBRANCH  15  17
ENDBRANCH   6  14
ENDBRANCH   3   6
ENDBRANCH   1   2
BRANCH   1  25
HETATM   25  C15 UNL     1      12.246  22.406   4.342  1.00  0.00     0.008 C
BRANCH  25  26
HETATM   26  C16 UNL     1      11.056  23.067   3.803  1.00  0.00    -0.081 C
HETATM   27  C17 UNL     1       9.982  22.047   3.375  1.00  0.00     0.034 C
HETATM   28  C18 UNL     1       9.208  22.578   2.199  1.00  0.00     0.004 C
HETATM   29  C19 UNL     1       8.711  23.986   2.377  1.00  0.00     0.001 C
HETATM   30  C20 UNL     1       9.710  24.914   3.003  1.00  0.00     0.004 C
HETATM   31  C21 UNL     1      11.090  24.229   2.892  1.00  0.00     0.034 C
ENDBRANCH  25  26
ENDBRANCH   1  25
BRANCH   1  32
HETATM   32  C22 UNL     1      12.289  23.406   6.675  1.00  0.00     0.161 C
HETATM   33  O6  UNL     1      11.647  22.430   7.230  1.00  0.00    -0.295 OA
BRANCH  32  34
HETATM   34  C23 UNL     1      12.159  24.695   7.318  1.00  0.00     0.183 C
BRANCH  34  35
HETATM   35  C24 UNL     1      11.173  25.563   6.579  1.00  0.00     0.226 C
HETATM   36  O7  UNL     1      11.538  26.135   5.540  1.00  0.00    -0.273 OA
HETATM   37  N4  UNL     1       9.855  25.685   7.108  1.00  0.00    -0.351 N
HETATM   38  C25 UNL     1       9.245  25.058   8.245  1.00  0.00     0.126 C
HETATM   39  C34 UNL     1       8.872  26.551   6.489  1.00  0.00     0.135 C
HETATM   40  C26 UNL     1       7.944  25.786   8.519  1.00  0.00     0.031 C
HETATM   41  C27 UNL     1       7.967  26.986   7.604  1.00  0.00    -0.023 C
HETATM   42  C28 UNL     1       8.432  28.190   8.355  1.00  0.00     0.011 C
HETATM   43  C33 UNL     1       6.568  27.274   7.054  1.00  0.00     0.011 C
HETATM   44  C29 UNL     1       7.211  28.929   8.924  1.00  0.00     0.005 C
HETATM   45  C30 UNL     1       6.517  29.613   7.770  1.00  0.00    -0.019 C
HETATM   46  C31 UNL     1       5.052  29.848   8.056  1.00  0.00     0.010 C
HETATM   47  C32 UNL     1       6.634  28.699   6.535  1.00  0.00     0.005 C
ENDBRANCH  34  35
ENDBRANCH  32  34
ENDBRANCH   1  32
TORSDOF 12
ENDMDL