MODEL 3
REMARK VINA RESULT: -9.439861274      2.619     11.435
REMARK  14 active torsions:
REMARK  status: ('A' for Active; 'I' for Inactive)
REMARK       I    between atoms: C2_2  and  N1_4
REMARK    1  A    between atoms: N1_4  and  C3_6
REMARK    2  A    between atoms: C3_6  and  C4_7
REMARK    3  A    between atoms: C3_6  and  C32_45
REMARK       I    between atoms: C4_7  and  N2_9
REMARK    4  A    between atoms: N2_9  and  C5_11
REMARK    5  A    between atoms: C5_11  and  C6_12
REMARK    6  A    between atoms: C5_11  and  C12_18
REMARK    7  A    between atoms: C6_12  and  C7_13
REMARK    8  A    between atoms: C12_18  and  O4_20
REMARK    9  A    between atoms: O4_20  and  C13_21
REMARK   10  A    between atoms: C16_24  and  C17_25
REMARK   11  A    between atoms: C17_25  and  C18_26
REMARK       I    between atoms: C18_26  and  N3_28
REMARK   12  A    between atoms: N3_28  and  C19_29
REMARK   13  A    between atoms: C19_29  and  C20_30
REMARK   14  A    between atoms: C19_29  and  C25_38
REMARK       I    between atoms: C20_30  and  N4_32
ROOT
HETATM    1  C13 UNL     1      12.032  24.007   4.848  1.00  0.00     0.132 C
HETATM    2  C14 UNL     1      11.576  22.707   5.496  1.00  0.00     0.033 C
HETATM    3  C15 UNL     1      12.186  21.526   4.782  1.00  0.00     0.013 C
HETATM    4  C16 UNL     1      13.656  21.674   4.529  1.00  0.00    -0.027 A
HETATM    5  C29 UNL     1      14.085  22.309   3.197  1.00  0.00     0.015 A
HETATM    6  C30 UNL     1      14.248  22.975   4.507  1.00  0.00    -0.002 A
HETATM    7  C31 UNL     1      13.485  24.206   4.813  1.00  0.00     0.038 C
ENDROOT
BRANCH   1   8
HETATM    8  O4  UNL     1      11.201  25.108   5.095  1.00  0.00    -0.314 OA
BRANCH   8   9
HETATM    9  C12 UNL     1      10.885  25.598   6.357  1.00  0.00     0.282 C
HETATM   10  O3  UNL     1      11.875  25.583   7.167  1.00  0.00    -0.263 OA
BRANCH   9  11
HETATM   11  C5  UNL     1       9.602  26.092   6.829  1.00  0.00     0.184 C
BRANCH  11  12
HETATM   12  N2  UNL     1       8.618  25.686   5.749  1.00  0.00    -0.345 N
HETATM   13  C4  UNL     1       8.064  26.599   4.881  1.00  0.00     0.241 C
HETATM   14  O2  UNL     1       8.393  27.824   5.103  1.00  0.00    -0.271 OA
ATOM     15  H2  UNL     1       8.358  24.704   5.663  1.00  0.00     0.163 HD
BRANCH  13  16
HETATM   16  C3  UNL     1       7.163  26.274   3.766  1.00  0.00     0.184 C
BRANCH  16  17
HETATM   17  N1  UNL     1       6.046  25.475   4.333  1.00  0.00    -0.347 N
HETATM   18  C2  UNL     1       4.712  25.976   4.265  1.00  0.00     0.214 C
HETATM   19  C1  UNL     1       3.606  25.176   4.822  1.00  0.00     0.117 C
HETATM   20  O1  UNL     1       4.467  27.085   3.744  1.00  0.00    -0.274 OA
ATOM     21  H1  UNL     1       6.233  24.572   4.768  1.00  0.00     0.163 HD
ENDBRANCH  16  17
BRANCH  16  22
HETATM   22  C32 UNL     1       7.793  25.473   2.667  1.00  0.00    -0.022 C
HETATM   23  C33 UNL     1       7.040  25.903   1.393  1.00  0.00     0.017 C
HETATM   24  C34 UNL     1       7.713  24.006   2.796  1.00  0.00     0.017 C
HETATM   25  C35 UNL     1       9.236  25.901   2.397  1.00  0.00     0.017 C
ENDBRANCH  16  22
ENDBRANCH  13  16
ENDBRANCH  11  12
BRANCH  11  26
HETATM   26  C6  UNL     1       9.078  25.438   8.097  1.00  0.00     0.040 C
BRANCH  26  27
HETATM   27  C7  UNL     1       8.435  26.403   9.011  1.00  0.00    -0.012 C
HETATM   28  C8  UNL     1       7.626  27.508   8.488  1.00  0.00     0.005 C
HETATM   29  C9  UNL     1       7.710  28.568   9.628  1.00  0.00     0.000 C
HETATM   30  C10 UNL     1       9.203  28.508   9.881  1.00  0.00     0.000 C
HETATM   31  C11 UNL     1       9.464  27.025   9.967  1.00  0.00     0.005 C
ENDBRANCH  26  27
ENDBRANCH  11  26
ENDBRANCH   9  11
ENDBRANCH   8   9
ENDBRANCH   1   8
BRANCH   4  32
HETATM   32  C17 UNL     1      14.393  20.374   4.704  1.00  0.00     0.128 C
BRANCH  32  33
HETATM   33  C18 UNL     1      15.733  20.505   5.403  1.00  0.00     0.288 C
HETATM   34  O5  UNL     1      16.751  20.609   4.666  1.00  0.00    -0.258 OA
HETATM   35  N3  UNL     1      15.708  20.508   6.731  1.00  0.00    -0.399 NA
BRANCH  35  36
HETATM   36  C19 UNL     1      15.686  20.512   8.154  1.00  0.00     0.265 C
BRANCH  36  37
HETATM   37  C20 UNL     1      16.897  20.094   8.850  1.00  0.00     0.256 C
HETATM   38  O6  UNL     1      18.012  20.624   8.505  1.00  0.00    -0.270 OA
HETATM   39  N4  UNL     1      16.951  19.127   9.918  1.00  0.00    -0.345 N
HETATM   40  C21 UNL     1      15.886  18.292  10.344  1.00  0.00     0.152 C
HETATM   41  C24 UNL     1      18.221  19.102  10.673  1.00  0.00     0.152 C
HETATM   42  C22 UNL     1      16.419  16.996  10.942  1.00  0.00     0.187 C
HETATM   43  O7  UNL     1      17.285  17.329  11.966  1.00  0.00    -0.388 OA
HETATM   44  C23 UNL     1      18.461  17.788  11.332  1.00  0.00     0.187 C
ENDBRANCH  36  37
BRANCH  36  45
HETATM   45  C25 UNL     1      15.153  21.871   8.637  1.00  0.00    -0.010 C
HETATM   46  C26 UNL     1      13.710  21.991   8.092  1.00  0.00     0.018 C
HETATM   47  C27 UNL     1      15.858  23.066   8.131  1.00  0.00     0.018 C
HETATM   48  C28 UNL     1      15.004  21.888  10.136  1.00  0.00     0.018 C
ENDBRANCH  36  45
ENDBRANCH  35  36
ENDBRANCH  32  33
ENDBRANCH   4  32
TORSDOF 14
ENDMDL