MODEL 5
REMARK VINA RESULT: -8.835919937      4.060      7.886
REMARK  15 active torsions:
REMARK  status: ('A' for Active; 'I' for Inactive)
REMARK    1  A    between atoms: O1_2  and  C2_3
REMARK    2  A    between atoms: C2_3  and  C3_5
REMARK    3  A    between atoms: C3_5  and  C4_6
REMARK    4  A    between atoms: C4_6  and  C5_7
REMARK    5  A    between atoms: C5_7  and  N1_8
REMARK       I    between atoms: N1_8  and  C6_10
REMARK    6  A    between atoms: C6_10  and  C7_12
REMARK    7  A    between atoms: C7_12  and  C8_13
REMARK    8  A    between atoms: C7_12  and  N2_20
REMARK    9  A    between atoms: C8_13  and  C9_14
REMARK   10  A    between atoms: N2_20  and  C15_22
REMARK   11  A    between atoms: C15_22  and  C18_25
REMARK   12  A    between atoms: C18_25  and  N3_27
REMARK       I    between atoms: N3_27  and  C20_29
REMARK       I    between atoms: C20_29  and  N4_31
REMARK   13  A    between atoms: N4_31  and  C21_33
REMARK   14  A    between atoms: C29_42  and  O5_43
REMARK   15  A    between atoms: C29_42  and  N6_45
ROOT
HETATM    1  C7  UNL     1      14.513  20.616   5.807  1.00  0.00     0.170 C
ENDROOT
BRANCH   1   2
HETATM    2  C6  UNL     1      14.109  21.744   4.976  1.00  0.00     0.244 C
HETATM    3  N1  UNL     1      12.769  21.787   4.514  1.00  0.00    -0.325 N
ATOM      4  H1  UNL     1      12.531  21.095   3.803  1.00  0.00     0.169 HD
HETATM    5  O3  UNL     1      14.804  22.722   4.590  1.00  0.00    -0.271 OA
BRANCH   3   6
HETATM    6  C5  UNL     1      11.808  22.576   4.863  1.00  0.00     0.063 C
HETATM    7  C29 UNL     1      11.476  23.728   4.084  1.00  0.00     0.161 C
BRANCH   6   8
HETATM    8  C4  UNL     1      11.160  22.306   6.175  1.00  0.00     0.071 C
BRANCH   8   9
HETATM    9  C3  UNL     1      11.747  23.145   7.285  1.00  0.00     0.117 C
BRANCH   9  10
HETATM   10  C2  UNL     1      10.757  24.171   7.667  1.00  0.00     0.258 C
HETATM   11  O2  UNL     1       9.534  23.899   7.588  1.00  0.00    -0.265 OA
BRANCH  10  12
HETATM   12  O1  UNL     1      11.104  25.435   8.111  1.00  0.00    -0.326 OA
HETATM   13  C1  UNL     1      10.185  26.453   8.455  1.00  0.00     0.213 C
ENDBRANCH  10  12
ENDBRANCH   9  10
ENDBRANCH   8   9
ENDBRANCH   6   8
BRANCH   7  14
HETATM   14  O5  UNL     1      12.251  23.997   3.062  1.00  0.00    -0.345 OA
ATOM     15  H5  UNL     1      11.930  24.634   2.434  1.00  0.00     0.219 HD
ENDBRANCH   7  14
BRANCH   7  16
HETATM   16  N6  UNL     1      10.436  24.671   4.198  1.00  0.00    -0.356 N
HETATM   17  C30 UNL     1       9.051  24.247   3.803  1.00  0.00     0.151 C
HETATM   18  C31 UNL     1       8.437  25.324   2.951  1.00  0.00     0.187 C
HETATM   19  O6  UNL     1       8.426  26.564   3.569  1.00  0.00    -0.388 OA
HETATM   20  C32 UNL     1       9.021  26.548   4.808  1.00  0.00     0.187 C
HETATM   21  C33 UNL     1      10.464  26.009   4.719  1.00  0.00     0.151 C
ENDBRANCH   7  16
ENDBRANCH   3   6
ENDBRANCH   1   2
BRANCH   1  22
HETATM   22  C8  UNL     1      14.766  19.410   4.930  1.00  0.00     0.039 C
BRANCH  22  23
HETATM   23  C9  UNL     1      16.023  19.473   4.101  1.00  0.00    -0.012 C
HETATM   24  C10 UNL     1      15.772  19.424   2.624  1.00  0.00     0.005 C
HETATM   25  C11 UNL     1      16.265  18.158   1.957  1.00  0.00     0.000 C
HETATM   26  C12 UNL     1      17.695  17.825   2.255  1.00  0.00     0.000 C
HETATM   27  C13 UNL     1      18.035  18.000   3.721  1.00  0.00     0.000 C
HETATM   28  C14 UNL     1      16.760  18.168   4.473  1.00  0.00     0.005 C
ENDBRANCH  22  23
ENDBRANCH   1  22
BRANCH   1  29
HETATM   29  N2  UNL     1      15.542  20.823   6.680  1.00  0.00    -0.399 N
ATOM     30  H2  UNL     1      16.406  20.375   6.376  1.00  0.00     0.154 HD
BRANCH  29  31
HETATM   31  C15 UNL     1      15.689  21.493   7.874  1.00  0.00     0.039 C
HETATM   32  C16 UNL     1      16.285  22.881   7.822  1.00  0.00     0.039 C
HETATM   33  C17 UNL     1      14.586  21.435   8.888  1.00  0.00     0.039 C
BRANCH  31  34
HETATM   34  C18 UNL     1      16.860  20.692   8.569  1.00  0.00     0.109 C
HETATM   35  C19 UNL     1      18.019  21.644   8.624  1.00  0.00     0.035 C
BRANCH  34  36
HETATM   36  N3  UNL     1      17.174  19.528   7.832  1.00  0.00    -0.336 N
HETATM   37  C20 UNL     1      17.630  18.283   8.502  1.00  0.00     0.316 C
HETATM   38  O4  UNL     1      17.646  18.356   9.756  1.00  0.00    -0.247 OA
HETATM   39  N4  UNL     1      17.970  17.232   7.679  1.00  0.00    -0.338 N
ATOM     40  H4  UNL     1      17.920  17.432   6.680  1.00  0.00     0.164 HD
ATOM     41  H3  UNL     1      17.085  19.542   6.816  1.00  0.00     0.164 HD
BRANCH  39  42
HETATM   42  C21 UNL     1      18.386  15.890   8.015  1.00  0.00     0.089 C
HETATM   43  C22 UNL     1      19.533  15.781   8.954  1.00  0.00     0.055 C
HETATM   44  C23 UNL     1      20.885  15.570   8.343  1.00  0.00     0.275 C
HETATM   45  N5  UNL     1      20.933  14.650   7.270  1.00  0.00     0.093 N
HETATM   46  C24 UNL     1      21.718  13.493   7.602  1.00  0.00     0.273 C
HETATM   47  C27 UNL     1      19.726  14.155   6.737  1.00  0.00     0.225 C
HETATM   48  C25 UNL     1      20.767  12.345   7.844  1.00  0.00     0.032 C
HETATM   49  C26 UNL     1      19.424  12.837   7.426  1.00  0.00     0.037 C
HETATM   50  C28 UNL     1      18.558  15.088   6.778  1.00  0.00     0.061 C
ENDBRANCH  39  42
ENDBRANCH  34  36
ENDBRANCH  31  34
ENDBRANCH  29  31
ENDBRANCH   1  29
TORSDOF 15
ENDMDL