MODEL 2
REMARK VINA RESULT: -8.183624132      2.228      4.329
REMARK  13 active torsions:
REMARK  status: ('A' for Active; 'I' for Inactive)
REMARK    1  A    between atoms: C3_3  and  N1_4
REMARK       I    between atoms: N1_4  and  C4_6
REMARK    2  A    between atoms: C4_6  and  C5_8
REMARK    3  A    between atoms: C7_10  and  N2_11
REMARK       I    between atoms: N2_11  and  C8_13
REMARK    4  A    between atoms: C8_13  and  C9_15
REMARK    5  A    between atoms: C9_15  and  C10_17
REMARK    6  A    between atoms: C10_17  and  C11_18
REMARK    7  A    between atoms: C13_20  and  O4_21
REMARK    8  A    between atoms: C13_20  and  C14_23
REMARK    9  A    between atoms: C14_23  and  C15_24
REMARK   10  A    between atoms: C14_23  and  N3_28
REMARK   11  A    between atoms: C15_24  and  C16_25
REMARK       I    between atoms: N3_28  and  C19_30
REMARK   12  A    between atoms: C19_30  and  O6_32
REMARK   13  A    between atoms: O6_32  and  C20_33
ROOT
HETATM    1  C1  UNL     1      10.967   8.640  25.494  1.00  0.00     0.014 C
HETATM    2  C2  UNL     1       9.860   8.164  25.504  1.00  0.00    -0.098 C
HETATM    3  C3  UNL     1       8.516   7.567  25.535  1.00  0.00     0.216 C
ENDROOT
BRANCH   3   4
HETATM    4  N1  UNL     1       7.883   7.564  24.244  1.00  0.00    -0.350 N
HETATM    5  C4  UNL     1       6.685   8.271  24.038  1.00  0.00     0.223 C
HETATM    6  O1  UNL     1       6.154   8.921  24.994  1.00  0.00    -0.273 OA
ATOM      7  H1  UNL     1       8.306   7.046  23.473  1.00  0.00     0.163 HD
BRANCH   5   8
HETATM    8  C5  UNL     1       6.034   8.272  22.736  1.00  0.00     0.094 C
HETATM    9  C6  UNL     1       6.083   6.894  22.054  1.00  0.00     0.040 C
HETATM   10  C7  UNL     1       5.660   7.325  20.666  1.00  0.00     0.092 C
HETATM   11  C24 UNL     1       6.629   8.424  20.381  1.00  0.00     0.047 C
HETATM   12  C25 UNL     1       8.043   7.993  20.264  1.00  0.00     0.186 C
HETATM   13  C27 UNL     1       6.624   9.197  21.710  1.00  0.00     0.106 C
HETATM   14  O7  UNL     1       8.809   8.694  21.243  1.00  0.00    -0.321 OA
HETATM   15  C26 UNL     1       8.020   9.566  21.935  1.00  0.00     0.264 C
HETATM   16  O8  UNL     1       8.425  10.518  22.642  1.00  0.00    -0.265 OA
BRANCH  10  17
HETATM   17  N2  UNL     1       5.610   6.269  19.703  1.00  0.00    -0.349 N
HETATM   18  C8  UNL     1       4.413   5.632  19.292  1.00  0.00     0.292 C
HETATM   19  O2  UNL     1       3.319   5.996  19.790  1.00  0.00    -0.264 OA
ATOM     20  H2  UNL     1       6.487   5.955  19.288  1.00  0.00     0.163 HD
BRANCH  18  21
HETATM   21  C9  UNL     1       4.476   4.556  18.291  1.00  0.00     0.247 C
HETATM   22  O3  UNL     1       3.428   3.923  18.120  1.00  0.00    -0.282 OA
BRANCH  21  23
HETATM   23  C10 UNL     1       5.718   4.255  17.546  1.00  0.00     0.028 C
HETATM   24  C13 UNL     1       6.794   3.596  18.220  1.00  0.00     0.076 C
BRANCH  23  25
HETATM   25  C11 UNL     1       5.485   3.963  16.086  1.00  0.00     0.041 C
HETATM   26  C12 UNL     1       5.280   2.526  15.727  1.00  0.00     0.010 C
ENDBRANCH  23  25
BRANCH  24  27
HETATM   27  O4  UNL     1       7.764   4.493  18.420  1.00  0.00    -0.362 OA
ATOM     28  H4  UNL     1       8.526   4.213  17.928  1.00  0.00     0.217 HD
ENDBRANCH  24  27
BRANCH  24  29
HETATM   29  C14 UNL     1       7.241   2.356  18.772  1.00  0.00     0.144 C
BRANCH  29  30
HETATM   30  C15 UNL     1       7.646   1.195  17.979  1.00  0.00     0.036 C
BRANCH  30  31
HETATM   31  C16 UNL     1       8.739   1.245  17.000  1.00  0.00    -0.020 C
HETATM   32  C17 UNL     1      10.075   0.782  17.568  1.00  0.00     0.009 C
HETATM   33  C18 UNL     1       8.409   0.186  15.927  1.00  0.00     0.009 C
ENDBRANCH  30  31
ENDBRANCH  29  30
BRANCH  29  34
HETATM   34  N3  UNL     1       6.290   1.864  19.768  1.00  0.00    -0.326 N
HETATM   35  C19 UNL     1       6.107   2.567  20.975  1.00  0.00     0.361 C
HETATM   36  O5  UNL     1       6.774   3.638  21.205  1.00  0.00    -0.238 OA
ATOM     37  H3  UNL     1       5.760   1.011  19.588  1.00  0.00     0.165 HD
BRANCH  35  38
HETATM   38  O6  UNL     1       5.245   2.198  21.969  1.00  0.00    -0.294 OA
BRANCH  38  39
HETATM   39  C20 UNL     1       3.931   2.573  22.165  1.00  0.00     0.061 C
HETATM   40  C21 UNL     1       3.032   2.364  20.971  1.00  0.00     0.046 C
HETATM   41  C22 UNL     1       3.329   1.704  23.282  1.00  0.00     0.046 C
HETATM   42  C23 UNL     1       3.833   4.000  22.638  1.00  0.00     0.046 C
ENDBRANCH  38  39
ENDBRANCH  35  38
ENDBRANCH  29  34
ENDBRANCH  24  29
ENDBRANCH  21  23
ENDBRANCH  18  21
ENDBRANCH  10  17
ENDBRANCH   5   8
ENDBRANCH   3   4
TORSDOF 13
ENDMDL