MODEL 5
REMARK VINA RESULT: -7.076928670      2.977      7.639
REMARK  12 active torsions:
REMARK  status: ('A' for Active; 'I' for Inactive)
REMARK    1  A    between atoms: C2_2  and  C3_3
REMARK    2  A    between atoms: C3_3  and  C4_4
REMARK    3  A    between atoms: C4_4  and  C5_5
REMARK    4  A    between atoms: C5_5  and  C6_6
REMARK       I    between atoms: C6_6  and  N1_8
REMARK    5  A    between atoms: N1_8  and  C7_10
REMARK    6  A    between atoms: C8_11  and  C9_12
REMARK    7  A    between atoms: C9_12  and  O2_13
REMARK    8  A    between atoms: C9_12  and  C10_15
REMARK    9  A    between atoms: C18_24  and  O4_25
REMARK   10  A    between atoms: C21_29  and  C22_30
REMARK   11  A    between atoms: C23_31  and  O6_32
REMARK   12  A    between atoms: O6_32  and  C24_33
ROOT
HETATM    1  C7  UNL     1       7.141   8.938  21.672  1.00  0.00     0.058 C
HETATM    2  C8  UNL     1       8.122   8.216  22.534  1.00  0.00     0.199 C
HETATM    3  O3  UNL     1       8.014   6.931  21.913  1.00  0.00    -0.368 OA
HETATM    4  C13 UNL     1       6.655   6.701  21.701  1.00  0.00     0.167 C
HETATM    5  C14 UNL     1       6.490   5.787  20.566  1.00  0.00     0.019 C
HETATM    6  C15 UNL     1       6.240   6.511  19.298  1.00  0.00     0.019 C
HETATM    7  C16 UNL     1       4.943   7.275  19.477  1.00  0.00     0.059 C
HETATM    8  C17 UNL     1       5.001   8.278  20.556  1.00  0.00     0.059 C
HETATM    9  C18 UNL     1       5.946   8.040  21.690  1.00  0.00     0.128 C
HETATM   10  C20 UNL     1       3.907   6.226  19.686  1.00  0.00     0.135 C
HETATM   11  O5  UNL     1       2.917   6.224  18.973  1.00  0.00    -0.297 OA
HETATM   12  C21 UNL     1       4.065   5.182  20.751  1.00  0.00     0.064 C
HETATM   13  C28 UNL     1       5.480   4.692  20.846  1.00  0.00     0.020 C
ENDROOT
BRANCH  12  14
HETATM   14  C22 UNL     1       3.016   4.159  20.596  1.00  0.00     0.043 A
HETATM   15  C23 UNL     1       2.688   3.127  21.607  1.00  0.00     0.152 A
HETATM   16  C25 UNL     1       1.818   4.273  21.403  1.00  0.00     0.036 A
HETATM   17  C26 UNL     1       0.433   4.296  20.958  1.00  0.00     0.182 A
HETATM   18  C27 UNL     1       1.502   5.299  22.423  1.00  0.00     0.182 A
HETATM   19  O8  UNL     1       0.159   5.240  21.973  1.00  0.00    -0.389 OA
BRANCH  15  20
HETATM   20  O6  UNL     1       3.327   3.034  22.853  1.00  0.00    -0.300 OA
BRANCH  20  21
HETATM   21  C24 UNL     1       2.889   2.276  23.924  1.00  0.00     0.373 C
HETATM   22  N2  UNL     1       2.884   0.878  23.971  1.00  0.00    -0.032 NA
HETATM   23  O7  UNL     1       2.464   2.914  24.929  1.00  0.00    -0.242 OA
ENDBRANCH  20  21
ENDBRANCH  15  20
ENDBRANCH  12  14
BRANCH   9  24
HETATM   24  O4  UNL     1       5.288   8.114  22.863  1.00  0.00    -0.376 OA
HETATM   25  C19 UNL     1       4.008   7.974  23.113  1.00  0.00     0.203 C
ENDBRANCH   9  24
BRANCH   1  26
HETATM   26  N1  UNL     1       6.983  10.315  21.757  1.00  0.00    -0.329 N
HETATM   27  C6  UNL     1       7.657  11.181  20.858  1.00  0.00     0.221 C
HETATM   28  O1  UNL     1       8.421  10.692  19.997  1.00  0.00    -0.273 OA
ATOM     29  H1  UNL     1       6.375  10.709  22.475  1.00  0.00     0.168 HD
BRANCH  27  30
HETATM   30  C5  UNL     1       7.537  12.662  20.847  1.00  0.00     0.103 C
BRANCH  30  31
HETATM   31  C4  UNL     1       7.459  13.145  19.385  1.00  0.00     0.013 C
BRANCH  31  32
HETATM   32  C3  UNL     1       5.998  13.099  19.008  1.00  0.00     0.027 C
BRANCH  32  33
HETATM   33  C2  UNL     1       5.679  12.355  17.797  1.00  0.00    -0.037 C
HETATM   34  C1  UNL     1       6.332  11.357  17.246  1.00  0.00     0.007 C
ENDBRANCH  32  33
ENDBRANCH  31  32
ENDBRANCH  30  31
ENDBRANCH  27  30
ENDBRANCH   1  26
BRANCH   2  35
HETATM   35  C9  UNL     1       7.934   8.038  23.960  1.00  0.00     0.156 C
BRANCH  35  36
HETATM   36  O2  UNL     1       7.271   9.022  24.645  1.00  0.00    -0.392 OA
ATOM     37  H2  UNL     1       7.000   8.837  25.536  1.00  0.00     0.210 HD
ENDBRANCH  35  36
BRANCH  35  38
HETATM   38  C10 UNL     1       9.365   8.066  24.579  1.00  0.00     0.009 C
HETATM   39  C11 UNL     1      10.102   9.308  24.250  1.00  0.00     0.012 C
HETATM   40  C12 UNL     1       9.191   7.868  26.057  1.00  0.00     0.012 C
ENDBRANCH  35  38
ENDBRANCH   2  35
TORSDOF 12
ENDMDL