MODEL 2
REMARK VINA RESULT: -7.440504374      1.412      1.796
REMARK  14 active torsions:
REMARK  status: ('A' for Active; 'I' for Inactive)
REMARK    1  A    between atoms: C2_2  and  C3_3
REMARK    2  A    between atoms: C3_3  and  C4_4
REMARK    3  A    between atoms: C4_4  and  C6_6
REMARK    4  A    between atoms: C6_6  and  O1_7
REMARK    5  A    between atoms: C6_6  and  N1_9
REMARK    6  A    between atoms: C12_18  and  C13_19
REMARK    7  A    between atoms: C12_18  and  C15_21
REMARK    8  A    between atoms: C17_23  and  N2_24
REMARK    9  A    between atoms: C21_28  and  N3_29
REMARK   10  A    between atoms: N3_29  and  C22_31
REMARK   11  A    between atoms: C22_31  and  O4_32
REMARK   12  A    between atoms: C22_31  and  C23_34
REMARK   13  A    between atoms: C23_34  and  N4_35
REMARK   14  A    between atoms: C23_34  and  C24_39
ROOT
HETATM    1  N1  UNL     1       7.559   5.597  19.448  1.00  0.00    -0.339 N
ATOM      2  H1  UNL     1       8.520   5.877  19.645  1.00  0.00     0.167 HD
HETATM    3  C7  UNL     1       6.830   6.546  19.080  1.00  0.00     0.082 C
HETATM    4  C8  UNL     1       5.416   6.230  18.770  1.00  0.00     0.094 C
HETATM    5  C9  UNL     1       4.924   7.256  17.768  1.00  0.00     0.128 C
HETATM    6  C10 UNL     1       3.724   6.738  16.995  1.00  0.00     0.040 C
HETATM    7  O2  UNL     1       4.609   8.414  18.466  1.00  0.00    -0.338 OA
HETATM    8  C11 UNL     1       5.601   9.410  18.113  1.00  0.00     0.378 C
HETATM    9  O3  UNL     1       5.063  10.585  18.457  1.00  0.00    -0.327 OA
HETATM   10  C12 UNL     1       5.573  11.778  18.029  1.00  0.00     0.102 C
HETATM   11  C17 UNL     1       6.822  12.247  18.613  1.00  0.00     0.022 C
HETATM   12  C20 UNL     1       7.708  11.429  19.439  1.00  0.00     0.042 C
HETATM   13  C21 UNL     1       7.524  10.032  19.762  1.00  0.00     0.215 C
HETATM   14  N5  UNL     1       6.779   9.160  18.905  1.00  0.00    -0.273 N
HETATM   15  C27 UNL     1       7.439   7.902  19.042  1.00  0.00     0.272 C
HETATM   16  O5  UNL     1       8.677   7.945  19.143  1.00  0.00    -0.266 OA
ENDROOT
BRANCH  13  17
HETATM   17  N3  UNL     1       6.915   9.848  21.086  1.00  0.00    -0.371 N
ATOM     18  H3  UNL     1       5.908   9.932  21.226  1.00  0.00     0.158 HD
BRANCH  17  19
HETATM   19  C22 UNL     1       7.781   9.552  22.150  1.00  0.00     0.246 C
BRANCH  19  20
HETATM   20  O4  UNL     1       9.092   9.218  21.855  1.00  0.00    -0.375 OA
ATOM     21  H4  UNL     1       9.570   8.679  22.475  1.00  0.00     0.212 HD
ENDBRANCH  19  20
BRANCH  19  22
HETATM   22  C23 UNL     1       7.274   8.470  23.097  1.00  0.00     0.234 C
BRANCH  22  23
HETATM   23  N4  UNL     1       7.695   7.155  22.587  1.00  0.00    -0.071 N
ATOM     24  H43 UNL     1       8.706   7.089  22.467  1.00  0.00     0.274 HD
ATOM     25  H42 UNL     1       7.586   6.415  23.281  1.00  0.00     0.274 HD
ATOM     26  H41 UNL     1       7.187   6.957  21.725  1.00  0.00     0.274 HD
ENDBRANCH  22  23
BRANCH  22  27
HETATM   27  C24 UNL     1       5.759   8.443  23.018  1.00  0.00     0.012 C
HETATM   28  C25 UNL     1       5.064   8.702  24.311  1.00  0.00     0.012 C
HETATM   29  C26 UNL     1       5.252   7.119  22.475  1.00  0.00     0.012 C
ENDBRANCH  22  27
ENDBRANCH  19  22
ENDBRANCH  17  19
ENDBRANCH  13  17
BRANCH  11  30
HETATM   30  N2  UNL     1       6.814  13.595  19.149  1.00  0.00    -0.293 NA
HETATM   31  C18 UNL     1       8.129  13.977  19.692  1.00  0.00     0.116 C
HETATM   32  C19 UNL     1       5.857  13.886  20.169  1.00  0.00     0.116 C
ENDBRANCH  11  30
BRANCH  10  33
HETATM   33  C13 UNL     1       4.359  12.701  18.066  1.00  0.00     0.040 C
HETATM   34  C14 UNL     1       3.193  12.171  18.864  1.00  0.00     0.008 C
ENDBRANCH  10  33
BRANCH  10  35
HETATM   35  C15 UNL     1       5.726  11.542  16.491  1.00  0.00     0.040 C
HETATM   36  C16 UNL     1       4.688  12.389  15.799  1.00  0.00     0.008 C
ENDBRANCH  10  35
BRANCH   1  37
HETATM   37  C6  UNL     1       7.329   4.253  19.641  1.00  0.00     0.119 C
BRANCH  37  38
HETATM   38  C4  UNL     1       7.324   3.139  18.687  1.00  0.00     0.056 C
HETATM   39  C5  UNL     1       6.684   1.887  19.333  1.00  0.00     0.018 C
BRANCH  38  40
HETATM   40  C3  UNL     1       8.690   2.677  18.241  1.00  0.00     0.012 C
BRANCH  40  41
HETATM   41  C2  UNL     1       8.680   1.158  18.273  1.00  0.00    -0.004 C
HETATM   42  C1  UNL     1       9.881   0.616  17.539  1.00  0.00     0.005 C
ENDBRANCH  40  41
ENDBRANCH  38  40
ENDBRANCH  37  38
BRANCH  37  43
HETATM   43  O1  UNL     1       7.068   3.888  20.871  1.00  0.00    -0.349 OA
ATOM     44  H1  UNL     1       6.181   3.571  20.991  1.00  0.00     0.219 HD
ENDBRANCH  37  43
ENDBRANCH   1  37
TORSDOF 14
ENDMDL