MODEL 2
REMARK VINA RESULT: -7.661437703      3.055      9.239
REMARK  14 active torsions:
REMARK  status: ('A' for Active; 'I' for Inactive)
REMARK    1  A    between atoms: N1_2  and  C3_4
REMARK    2  A    between atoms: C3_4  and  C4_5
REMARK    3  A    between atoms: C4_5  and  C5_6
REMARK    4  A    between atoms: C5_6  and  C6_7
REMARK    5  A    between atoms: C6_7  and  O1_8
REMARK    6  A    between atoms: O1_8  and  C7_9
REMARK       I    between atoms: C7_9  and  N2_11
REMARK    7  A    between atoms: C12_16  and  C13_17
REMARK       I    between atoms: C13_17  and  N3_19
REMARK    8  A    between atoms: N3_19  and  C14_21
REMARK    9  A    between atoms: C14_21  and  C15_22
REMARK   10  A    between atoms: C14_21  and  C22_30
REMARK   11  A    between atoms: C16_23  and  C17_24
REMARK   12  A    between atoms: C17_24  and  C18_26
REMARK   13  A    between atoms: C22_30  and  C23_31
REMARK   14  A    between atoms: C22_30  and  C24_34
ROOT
HETATM    1  C14 UNL     1       6.606   7.664  20.386  1.00  0.00     0.129 C
ENDROOT
BRANCH   1   2
HETATM    2  N3  UNL     1       5.982   8.451  19.368  1.00  0.00    -0.350 N
HETATM    3  C13 UNL     1       5.223   9.595  19.724  1.00  0.00     0.241 C
HETATM    4  O3  UNL     1       5.113   9.898  20.935  1.00  0.00    -0.271 OA
ATOM      5  H3  UNL     1       6.083   8.189  18.388  1.00  0.00     0.163 HD
BRANCH   3   6
HETATM    6  C12 UNL     1       4.550  10.454  18.716  1.00  0.00     0.181 C
HETATM    7  N2  UNL     1       5.243  11.696  18.576  1.00  0.00    -0.315 N
HETATM    8  C7  UNL     1       4.669  12.890  19.091  1.00  0.00     0.363 C
HETATM    9  C8  UNL     1       6.515  11.764  17.919  1.00  0.00     0.129 C
HETATM   10  O2  UNL     1       3.551  12.815  19.664  1.00  0.00    -0.238 OA
HETATM   11  C9  UNL     1       6.390  11.114  16.562  1.00  0.00     0.020 C
HETATM   12  C10 UNL     1       5.698   9.791  16.593  1.00  0.00     0.004 C
HETATM   13  C11 UNL     1       4.419   9.794  17.374  1.00  0.00     0.035 C
BRANCH   8  14
HETATM   14  O1  UNL     1       5.286  14.102  18.984  1.00  0.00    -0.304 OA
BRANCH  14  15
HETATM   15  C6  UNL     1       6.055  14.709  19.970  1.00  0.00     0.180 C
BRANCH  15  16
HETATM   16  C5  UNL     1       5.329  15.835  20.625  1.00  0.00     0.028 C
BRANCH  16  17
HETATM   17  C4  UNL     1       4.739  16.777  19.606  1.00  0.00     0.032 C
BRANCH  17  18
HETATM   18  C3  UNL     1       3.243  16.826  19.636  1.00  0.00     0.271 C
BRANCH  18  19
HETATM   19  N1  UNL     1       2.716  16.787  18.281  1.00  0.00     0.080 N
HETATM   20  C1  UNL     1       3.760  16.886  17.285  1.00  0.00     0.309 C
HETATM   21  C2  UNL     1       1.948  15.594  18.041  1.00  0.00     0.309 C
ENDBRANCH  18  19
ENDBRANCH  17  18
ENDBRANCH  16  17
ENDBRANCH  15  16
ENDBRANCH  14  15
ENDBRANCH   8  14
ENDBRANCH   3   6
ENDBRANCH   1   2
BRANCH   1  22
HETATM   22  C15 UNL     1       6.318   6.248  20.086  1.00  0.00     0.003 C
HETATM   23  C16 UNL     1       7.066   5.206  20.333  1.00  0.00     0.049 C
BRANCH  23  24
HETATM   24  C17 UNL     1       6.637   3.860  19.973  1.00  0.00     0.156 C
HETATM   25  O4  UNL     1       5.758   3.346  20.763  1.00  0.00    -0.292 OA
BRANCH  24  26
HETATM   26  C18 UNL     1       7.092   3.064  18.841  1.00  0.00     0.013 C
HETATM   27  C19 UNL     1       6.179   3.220  17.665  1.00  0.00     0.023 C
HETATM   28  C20 UNL     1       7.333   1.609  19.192  1.00  0.00     0.023 C
HETATM   29  C21 UNL     1       8.467   3.587  18.397  1.00  0.00     0.023 C
ENDBRANCH  24  26
ENDBRANCH  23  24
ENDBRANCH   1  22
BRANCH   1  30
HETATM   30  C22 UNL     1       7.989   8.017  20.761  1.00  0.00     0.180 C
BRANCH  30  31
HETATM   31  C23 UNL     1       8.525   9.075  19.865  1.00  0.00     0.186 C
HETATM   32  O5  UNL     1       8.679  10.279  20.184  1.00  0.00    -0.647 OA
HETATM   33  O6  UNL     1       8.902   8.752  18.551  1.00  0.00    -0.647 OA
ENDBRANCH  30  31
BRANCH  30  34
HETATM   34  C24 UNL     1       8.326   8.215  22.161  1.00  0.00     0.089 C
HETATM   35  N4  UNL     1       7.641   7.728  23.106  1.00  0.00    -0.379 N
HETATM   36  C25 UNL     1       7.861   7.846  24.510  1.00  0.00     0.122 C
ATOM     37  H4  UNL     1       6.826   7.182  22.828  1.00  0.00     0.160 HD
HETATM   38  C26 UNL     1       9.254   8.360  24.837  1.00  0.00     0.039 C
HETATM   39  C27 UNL     1       9.501   9.525  23.879  1.00  0.00     0.122 C
HETATM   40  N5  UNL     1       9.502   8.985  22.539  1.00  0.00    -0.379 N
ATOM     41  H5  UNL     1      10.280   9.135  21.896  1.00  0.00     0.160 HD
ENDBRANCH  30  34
ENDBRANCH   1  30
TORSDOF 14
ENDMDL