MODEL 3
REMARK VINA RESULT: -7.027782228      2.227      3.696
REMARK  14 active torsions:
REMARK  status: ('A' for Active; 'I' for Inactive)
REMARK    1  A    between atoms: C2_2  and  O1_3
REMARK    2  A    between atoms: C2_2  and  N1_5
REMARK    3  A    between atoms: N2_9  and  C6_10
REMARK    4  A    between atoms: C6_10  and  C7_11
REMARK    5  A    between atoms: C7_11  and  C8_12
REMARK    6  A    between atoms: C8_12  and  C9_13
REMARK    7  A    between atoms: C9_13  and  C10_14
REMARK    8  A    between atoms: C10_14  and  C11_15
REMARK    9  A    between atoms: C11_15  and  C12_16
REMARK   10  A    between atoms: C12_16  and  C13_17
REMARK   11  A    between atoms: C13_17  and  N3_18
REMARK       I    between atoms: N3_18  and  C14_20
REMARK   12  A    between atoms: C14_20  and  C15_22
REMARK   13  A    between atoms: C15_22  and  C16_24
REMARK   14  A    between atoms: C22_32  and  O6_33
ROOT
HETATM    1  N3  UNL     1       4.283   5.649  23.453  1.00  0.00    -0.354 N
ATOM      2  H3  UNL     1       5.270   5.441  23.610  1.00  0.00     0.162 HD
HETATM    3  C14 UNL     1       3.781   6.911  23.850  1.00  0.00     0.290 C
HETATM    4  O2  UNL     1       2.574   7.170  23.668  1.00  0.00    -0.264 OA
ENDROOT
BRANCH   1   5
HETATM    5  C13 UNL     1       3.460   4.659  22.843  1.00  0.00     0.123 C
BRANCH   5   6
HETATM    6  C12 UNL     1       2.900   3.698  23.857  1.00  0.00     0.020 C
BRANCH   6   7
HETATM    7  C11 UNL     1       3.172   2.291  23.392  1.00  0.00     0.002 C
BRANCH   7   8
HETATM    8  C10 UNL     1       3.625   2.317  21.952  1.00  0.00     0.000 C
BRANCH   8   9
HETATM    9  C9  UNL     1       4.711   1.246  21.820  1.00  0.00     0.000 C
BRANCH   9  10
HETATM   10  C8  UNL     1       6.038   1.886  21.531  1.00  0.00     0.002 C
BRANCH  10  11
HETATM   11  C7  UNL     1       5.926   3.108  20.660  1.00  0.00     0.030 C
BRANCH  11  12
HETATM   12  C6  UNL     1       7.315   3.653  20.319  1.00  0.00     0.273 C
BRANCH  12  13
HETATM   13  N2  UNL     1       7.309   3.974  18.904  1.00  0.00     0.093 N
HETATM   14  C5  UNL     1       8.405   3.330  18.222  1.00  0.00     0.278 C
HETATM   15  C4  UNL     1       8.413   1.851  18.391  1.00  0.00     0.075 C
HETATM   16  C3  UNL     1       7.150   1.212  17.856  1.00  0.00     0.067 C
HETATM   17  N1  UNL     1       6.590   1.867  16.741  1.00  0.00    -0.346 N
HETATM   18  C26 UNL     1       6.124   3.188  16.876  1.00  0.00     0.095 C
HETATM   19  C25 UNL     1       6.031   3.682  18.293  1.00  0.00     0.317 C
BRANCH  17  20
HETATM   20  C2  UNL     1       6.866   1.366  15.451  1.00  0.00     0.219 C
HETATM   21  C1  UNL     1       6.190   0.045  15.124  1.00  0.00     0.063 C
BRANCH  20  22
HETATM   22  O1  UNL     1       8.217   1.227  15.168  1.00  0.00    -0.377 OA
ATOM     23  H1  UNL     1       8.440   1.873  14.508  1.00  0.00     0.212 HD
ENDBRANCH  20  22
ENDBRANCH  17  20
ENDBRANCH  12  13
ENDBRANCH  11  12
ENDBRANCH  10  11
ENDBRANCH   9  10
ENDBRANCH   8   9
ENDBRANCH   7   8
ENDBRANCH   6   7
ENDBRANCH   5   6
ENDBRANCH   1   5
BRANCH   3  24
HETATM   24  C15 UNL     1       4.622   7.928  24.468  1.00  0.00     0.254 C
HETATM   25  O3  UNL     1       4.286   8.369  25.599  1.00  0.00    -0.283 OA
BRANCH  24  26
HETATM   26  C16 UNL     1       5.851   8.468  23.837  1.00  0.00     0.262 C
HETATM   27  O4  UNL     1       6.831   7.537  23.927  1.00  0.00    -0.367 OA
HETATM   28  C17 UNL     1       8.117   7.945  23.866  1.00  0.00     0.172 C
HETATM   29  C18 UNL     1       8.419   9.260  23.253  1.00  0.00     0.058 C
HETATM   30  C19 UNL     1       8.282   9.387  21.787  1.00  0.00     0.130 C
HETATM   31  O5  UNL     1       7.366  10.390  21.385  1.00  0.00    -0.385 OA
HETATM   32  C23 UNL     1       7.945   8.137  21.028  1.00  0.00     0.053 C
HETATM   33  C20 UNL     1       7.693  10.792  20.114  1.00  0.00     0.170 C
HETATM   34  C21 UNL     1       7.706   9.695  19.084  1.00  0.00     0.058 C
HETATM   35  C22 UNL     1       8.351   8.424  19.571  1.00  0.00     0.127 C
HETATM   36  C24 UNL     1       6.514   7.758  21.042  1.00  0.00     0.086 C
HETATM   37  S1  UNL     1       5.464   8.766  22.087  1.00  0.00    -0.129 SA
BRANCH  35  38
HETATM   38  O6  UNL     1       7.934   7.358  18.802  1.00  0.00    -0.395 OA
ATOM     39  H6  UNL     1       8.190   7.491  17.897  1.00  0.00     0.210 HD
ENDBRANCH  35  38
ENDBRANCH  24  26
ENDBRANCH   3  24
TORSDOF 14
ENDMDL