MODEL 4
REMARK VINA RESULT: -8.893066868      2.756      5.002
REMARK  14 active torsions:
REMARK  status: ('A' for Active; 'I' for Inactive)
REMARK    1  A    between atoms: C3_3  and  C4_4
REMARK    2  A    between atoms: C3_3  and  N2_15
REMARK    3  A    between atoms: C4_4  and  C5_5
REMARK    4  A    between atoms: C5_5  and  C6_6
REMARK    5  A    between atoms: C6_6  and  C7_7
REMARK    6  A    between atoms: C7_7  and  C8_8
REMARK    7  A    between atoms: C8_8  and  O1_9
REMARK    8  A    between atoms: N1_11  and  O2_13
REMARK       I    between atoms: N2_15  and  C9_17
REMARK    9  A    between atoms: C9_17  and  C10_19
REMARK       I    between atoms: N3_28  and  C19_29
REMARK   10  A    between atoms: C19_29  and  C20_31
REMARK   11  A    between atoms: C20_31  and  C21_32
REMARK   12  A    between atoms: C21_32  and  C22_33
REMARK   13  A    between atoms: C22_33  and  O6_35
REMARK   14  A    between atoms: O6_35  and  C23_36
ROOT
HETATM    1  C1  UNL     1       2.734   7.925  22.342  1.00  0.00     0.099 C
HETATM    2  C2  UNL     1       3.676   7.324  22.861  1.00  0.00    -0.162 C
HETATM    3  C3  UNL     1       4.800   6.611  23.414  1.00  0.00     0.151 C
ENDROOT
BRANCH   3   4
HETATM    4  C4  UNL     1       5.407   7.316  24.574  1.00  0.00     0.037 C
BRANCH   4   5
HETATM    5  C5  UNL     1       6.099   8.589  24.384  1.00  0.00     0.003 C
BRANCH   5   6
HETATM    6  C6  UNL     1       7.576   8.655  24.359  1.00  0.00     0.008 C
BRANCH   6   7
HETATM    7  C7  UNL     1       8.171   7.553  25.287  1.00  0.00     0.086 C
BRANCH   7   8
HETATM    8  C8  UNL     1       9.577   7.908  25.596  1.00  0.00     0.135 C
HETATM    9  N1  UNL     1      10.079   7.539  26.736  1.00  0.00    -0.251 N
ATOM     10  H1  UNL     1      11.044   7.776  26.964  1.00  0.00     0.196 HD
BRANCH   8  11
HETATM   11  O1  UNL     1      10.374   8.617  24.717  1.00  0.00    -0.348 OA
ATOM     12  H1  UNL     1      10.237   8.599  23.776  1.00  0.00     0.219 HD
ENDBRANCH   8  11
BRANCH   9  13
HETATM   13  O2  UNL     1       9.313   6.829  27.640  1.00  0.00    -0.288 OA
ATOM     14  H2  UNL     1       8.377   6.980  27.699  1.00  0.00     0.244 HD
ENDBRANCH   9  13
ENDBRANCH   7   8
ENDBRANCH   6   7
ENDBRANCH   5   6
ENDBRANCH   4   5
ENDBRANCH   3   4
BRANCH   3  15
HETATM   15  N2  UNL     1       5.811   6.338  22.386  1.00  0.00    -0.345 N
HETATM   16  C9  UNL     1       5.715   5.249  21.485  1.00  0.00     0.241 C
HETATM   17  O3  UNL     1       4.720   4.493  21.582  1.00  0.00    -0.271 OA
ATOM     18  H2  UNL     1       6.618   6.959  22.318  1.00  0.00     0.163 HD
BRANCH  16  19
HETATM   19  C10 UNL     1       6.798   5.066  20.481  1.00  0.00     0.179 C
HETATM   20  C11 UNL     1       7.231   3.663  20.357  1.00  0.00     0.040 C
HETATM   21  C12 UNL     1       7.658   3.186  19.022  1.00  0.00    -0.006 C
HETATM   22  C13 UNL     1       7.586   1.672  18.934  1.00  0.00     0.005 C
HETATM   23  C17 UNL     1       6.946   3.752  17.844  1.00  0.00     0.008 C
HETATM   24  C14 UNL     1       8.041   1.238  17.551  1.00  0.00     0.000 C
HETATM   25  C15 UNL     1       6.862   1.540  16.629  1.00  0.00     0.000 C
HETATM   26  C16 UNL     1       6.089   2.710  17.133  1.00  0.00     0.006 C
HETATM   27  C18 UNL     1       6.019   4.889  18.152  1.00  0.00     0.131 C
HETATM   28  N3  UNL     1       6.435   5.711  19.239  1.00  0.00    -0.338 N
HETATM   29  C19 UNL     1       6.475   7.144  19.085  1.00  0.00     0.221 C
HETATM   30  O4  UNL     1       6.847   7.794  20.092  1.00  0.00    -0.273 OA
BRANCH  29  31
HETATM   31  C20 UNL     1       6.099   7.783  17.813  1.00  0.00     0.112 C
BRANCH  31  32
HETATM   32  C21 UNL     1       5.654   9.208  17.932  1.00  0.00     0.120 C
BRANCH  32  33
HETATM   33  C22 UNL     1       6.670  10.153  17.408  1.00  0.00     0.260 C
HETATM   34  O5  UNL     1       7.352   9.833  16.392  1.00  0.00    -0.265 OA
BRANCH  33  35
HETATM   35  O6  UNL     1       6.940  11.383  17.953  1.00  0.00    -0.308 OA
BRANCH  35  36
HETATM   36  C23 UNL     1       6.406  11.789  19.222  1.00  0.00     0.205 C
HETATM   37  C24 UNL     1       5.633  13.086  18.944  1.00  0.00     0.066 C
HETATM   38  C25 UNL     1       6.044  14.149  19.945  1.00  0.00     0.171 C
HETATM   39  O7  UNL     1       7.365  14.543  19.758  1.00  0.00    -0.384 OA
HETATM   40  C26 UNL     1       8.233  13.453  19.733  1.00  0.00     0.248 C
HETATM   41  C27 UNL     1       7.513  12.185  20.131  1.00  0.00     0.179 C
HETATM   42  O8  UNL     1       7.825  11.552  21.117  1.00  0.00    -0.293 OA
ENDBRANCH  35  36
ENDBRANCH  33  35
ENDBRANCH  32  33
ENDBRANCH  31  32
ENDBRANCH  29  31
ENDBRANCH  16  19
ENDBRANCH   3  15
TORSDOF 14
ENDMDL