MODEL 2
REMARK VINA RESULT: -8.189986625      1.015      1.177
REMARK  13 active torsions:
REMARK  status: ('A' for Active; 'I' for Inactive)
REMARK    1  A    between atoms: C2_2  and  C3_3
REMARK    2  A    between atoms: C3_3  and  C4_4
REMARK    3  A    between atoms: C4_4  and  C5_5
REMARK    4  A    between atoms: C5_5  and  C6_6
REMARK    5  A    between atoms: N1_7  and  C8_9
REMARK    6  A    between atoms: C8_9  and  C9_10
REMARK    7  A    between atoms: C9_10  and  O1_11
REMARK    8  A    between atoms: C9_10  and  C10_13
REMARK    9  A    between atoms: C12_18  and  C13_19
REMARK   10  A    between atoms: C13_19  and  S1_20
REMARK   11  A    between atoms: C15_24  and  O3_25
REMARK       I    between atoms: N4_28  and  C17_30
REMARK   12  A    between atoms: C17_30  and  O5_32
REMARK   13  A    between atoms: O5_32  and  C18_33
ROOT
HETATM    1  C10 UNL     1       4.966   5.984  18.701  1.00  0.00     0.118 C
HETATM    2  N2  UNL     1       5.709   6.833  17.812  1.00  0.00    -0.352 N
ATOM      3  H2  UNL     1       6.262   6.325  17.122  1.00  0.00     0.163 HD
HETATM    4  C11 UNL     1       5.818   8.205  17.711  1.00  0.00     0.241 C
HETATM    5  O2  UNL     1       5.538   8.693  16.541  1.00  0.00    -0.271 OA
HETATM    6  C12 UNL     1       6.210   9.223  18.739  1.00  0.00     0.185 C
HETATM    7  N3  UNL     1       7.499   8.961  19.284  1.00  0.00    -0.353 N
ATOM      8  H3  UNL     1       8.133   8.549  18.600  1.00  0.00     0.162 HD
HETATM    9  C15 UNL     1       8.102   9.133  20.523  1.00  0.00     0.189 C
HETATM   10  C16 UNL     1       7.806   8.500  21.806  1.00  0.00     0.198 C
HETATM   11  N4  UNL     1       8.165   9.087  22.896  1.00  0.00    -0.279 N
ATOM     12  H4  UNL     1       8.649   9.982  22.835  1.00  0.00     0.173 HD
HETATM   13  C17 UNL     1       7.919   8.547  24.150  1.00  0.00     0.367 C
HETATM   14  O4  UNL     1       6.901   8.867  24.820  1.00  0.00    -0.238 OA
HETATM   15  O6  UNL     1       7.151   7.280  21.944  1.00  0.00    -0.332 OA
HETATM   16  C22 UNL     1       7.402   6.204  21.021  1.00  0.00     0.178 C
HETATM   17  C23 UNL     1       6.094   5.519  20.811  1.00  0.00     0.033 C
HETATM   18  C24 UNL     1       5.870   4.991  19.436  1.00  0.00     0.009 C
HETATM   19  C25 UNL     1       7.098   4.739  18.625  1.00  0.00     0.012 C
ENDROOT
BRANCH   1  20
HETATM   20  C9  UNL     1       3.974   5.088  17.911  1.00  0.00     0.159 C
BRANCH  20  21
HETATM   21  C8  UNL     1       3.615   3.850  18.652  1.00  0.00     0.155 C
BRANCH  21  22
HETATM   22  N1  UNL     1       3.613   2.663  17.857  1.00  0.00    -0.392 N
HETATM   23  C6  UNL     1       4.645   1.771  17.894  1.00  0.00     0.081 C
HETATM   24  C7  UNL     1       2.352   2.361  17.294  1.00  0.00     0.148 C
BRANCH  23  25
HETATM   25  C5  UNL     1       5.531   1.341  16.808  1.00  0.00    -0.010 C
BRANCH  25  26
HETATM   26  C4  UNL     1       6.986   1.191  16.915  1.00  0.00     0.028 C
BRANCH  26  27
HETATM   27  C3  UNL     1       7.636   1.270  18.251  1.00  0.00     0.003 C
BRANCH  27  28
HETATM   28  C2  UNL     1       9.119   1.654  18.100  1.00  0.00    -0.004 C
HETATM   29  C1  UNL     1       9.887   0.498  17.515  1.00  0.00     0.005 C
ENDBRANCH  27  28
ENDBRANCH  26  27
ENDBRANCH  25  26
ENDBRANCH  23  25
ENDBRANCH  21  22
ENDBRANCH  20  21
BRANCH  20  30
HETATM   30  O1  UNL     1       4.486   4.847  16.648  1.00  0.00    -0.392 OA
ATOM     31  H1  UNL     1       3.928   5.163  15.947  1.00  0.00     0.210 HD
ENDBRANCH  20  30
ENDBRANCH   1  20
BRANCH   6  32
HETATM   32  C13 UNL     1       5.105   9.558  19.668  1.00  0.00     0.108 C
BRANCH  32  33
HETATM   33  S1  UNL     1       4.525  11.238  19.448  1.00  0.00    -0.171 SA
HETATM   34  C14 UNL     1       5.863  12.447  19.450  1.00  0.00     0.089 C
ENDBRANCH  32  33
ENDBRANCH   6  32
BRANCH   9  35
HETATM   35  O3  UNL     1       9.099   9.982  20.621  1.00  0.00    -0.343 OA
ATOM     36  H3  UNL     1       8.915  10.864  20.921  1.00  0.00     0.219 HD
ENDBRANCH   9  35
BRANCH  13  37
HETATM   37  O5  UNL     1       8.812   7.633  24.684  1.00  0.00    -0.298 OA
BRANCH  37  38
HETATM   38  C18 UNL     1       9.576   7.997  25.799  1.00  0.00     0.133 C
HETATM   39  C19 UNL     1      11.014   8.278  25.449  1.00  0.00     0.033 C
HETATM   40  C20 UNL     1      11.424   7.442  26.628  1.00  0.00     0.005 C
HETATM   41  C21 UNL     1      10.066   6.776  26.558  1.00  0.00     0.033 C
ENDBRANCH  37  38
ENDBRANCH  13  37
TORSDOF 13
ENDMDL