MODEL 2
REMARK VINA RESULT: -6.936138185      2.033      2.648
REMARK  13 active torsions:
REMARK  status: ('A' for Active; 'I' for Inactive)
REMARK    1  A    between atoms: C10_12  and  C11_13
REMARK    2  A    between atoms: C11_13  and  O3_14
REMARK    3  A    between atoms: C12_16  and  C13_17
REMARK    4  A    between atoms: C13_17  and  O4_18
REMARK    5  A    between atoms: O4_18  and  C14_19
REMARK    6  A    between atoms: C14_19  and  C15_20
REMARK    7  A    between atoms: C15_20  and  N1_21
REMARK    8  A    between atoms: N1_21  and  C16_23
REMARK    9  A    between atoms: C20_27  and  O5_28
REMARK   10  A    between atoms: O5_28  and  C21_29
REMARK   11  A    between atoms: C23_32  and  C24_33
REMARK   12  A    between atoms: C24_33  and  C25_34
REMARK   13  A    between atoms: C27_36  and  C29_38
ROOT
HETATM    1  C1  UNL     1       2.700   5.568  22.971  1.00  0.00     0.017 C
HETATM    2  C2  UNL     1       3.332   6.568  22.264  1.00  0.00    -0.056 C
HETATM    3  C3  UNL     1       2.393   7.315  21.471  1.00  0.00     0.018 C
HETATM    4  C4  UNL     1       1.816   6.622  20.250  1.00  0.00     0.021 C
HETATM    5  C5  UNL     1       2.691   7.481  19.407  1.00  0.00     0.059 C
HETATM    6  C6  UNL     1       2.720   8.429  20.596  1.00  0.00     0.021 C
HETATM    7  C7  UNL     1       3.876   7.050  18.794  1.00  0.00     0.160 C
HETATM    8  O1  UNL     1       4.032   7.525  17.612  1.00  0.00    -0.295 OA
HETATM    9  C8  UNL     1       5.057   6.215  19.021  1.00  0.00     0.200 C
HETATM   10  O2  UNL     1       6.223   6.992  18.704  1.00  0.00    -0.371 OA
HETATM   11  C9  UNL     1       6.134   8.134  19.491  1.00  0.00     0.134 C
HETATM   12  C10 UNL     1       7.460   8.936  19.642  1.00  0.00     0.045 C
HETATM   13  C12 UNL     1       7.725   8.222  20.922  1.00  0.00     0.025 C
HETATM   14  C18 UNL     1       6.257   7.845  20.925  1.00  0.00     0.029 C
HETATM   15  C19 UNL     1       5.770   6.531  21.402  1.00  0.00     0.037 C
HETATM   16  C20 UNL     1       4.763   6.654  22.518  1.00  0.00     0.166 C
HETATM   17  C23 UNL     1       5.320   5.573  20.288  1.00  0.00     0.059 C
ENDROOT
BRANCH  13  18
HETATM   18  C13 UNL     1       8.049   9.042  22.132  1.00  0.00     0.173 C
BRANCH  18  19
HETATM   19  O4  UNL     1       8.824   8.661  23.119  1.00  0.00    -0.389 OA
BRANCH  19  20
HETATM   20  C14 UNL     1       9.640   9.447  23.838  1.00  0.00     0.186 C
BRANCH  20  21
HETATM   21  C15 UNL     1      10.371   8.639  24.936  1.00  0.00     0.140 C
BRANCH  21  22
HETATM   22  N1  UNL     1       9.414   7.889  25.674  1.00  0.00    -0.419 N
ATOM     23  H1  UNL     1       8.413   7.967  25.493  1.00  0.00     0.153 HD
BRANCH  22  24
HETATM   24  C16 UNL     1       9.935   7.017  26.684  1.00  0.00     0.109 C
HETATM   25  C17 UNL     1      11.434   7.139  26.838  1.00  0.00     0.026 C
ENDBRANCH  22  24
ENDBRANCH  21  22
ENDBRANCH  20  21
ENDBRANCH  19  20
ENDBRANCH  18  19
ENDBRANCH  13  18
BRANCH  12  26
HETATM   26  C11 UNL     1       8.351   8.639  18.451  1.00  0.00     0.171 C
BRANCH  26  27
HETATM   27  O3  UNL     1       9.620   8.264  18.790  1.00  0.00    -0.400 OA
ATOM     28  H3  UNL     1      10.053   8.867  19.382  1.00  0.00     0.209 HD
ENDBRANCH  26  27
ENDBRANCH  12  26
BRANCH  16  29
HETATM   29  O5  UNL     1       5.014   7.802  23.350  1.00  0.00    -0.311 OA
BRANCH  29  30
HETATM   30  C21 UNL     1       5.216   7.729  24.718  1.00  0.00     0.255 C
HETATM   31  C22 UNL     1       4.135   7.889  25.713  1.00  0.00     0.126 C
HETATM   32  O6  UNL     1       6.393   7.512  25.121  1.00  0.00    -0.266 OA
ENDBRANCH  29  30
ENDBRANCH  16  29
BRANCH  17  33
HETATM   33  C24 UNL     1       6.120   4.318  20.220  1.00  0.00    -0.060 C
HETATM   34  C27 UNL     1       5.635   3.067  20.345  1.00  0.00     0.017 C
HETATM   35  C28 UNL     1       6.619   1.904  20.253  1.00  0.00     0.056 C
BRANCH  33  36
HETATM   36  C25 UNL     1       7.595   4.311  20.054  1.00  0.00     0.031 C
HETATM   37  C26 UNL     1       7.937   4.314  18.588  1.00  0.00     0.010 C
ENDBRANCH  33  36
BRANCH  34  38
HETATM   38  C29 UNL     1       4.270   2.655  20.475  1.00  0.00     0.205 C
HETATM   39  O7  UNL     1       3.610   2.287  21.434  1.00  0.00    -0.644 OA
HETATM   40  O8  UNL     1       3.502   2.668  19.253  1.00  0.00    -0.644 OA
ENDBRANCH  34  38
ENDBRANCH  17  33
TORSDOF 13
ENDMDL