MODEL 1
REMARK VINA RESULT: -7.833237144      0.000      0.000
REMARK  13 active torsions:
REMARK  status: ('A' for Active; 'I' for Inactive)
REMARK    1  A    between atoms: C2_2  and  C3_3
REMARK    2  A    between atoms: C7_10  and  C8_11
REMARK    3  A    between atoms: C8_11  and  N1_12
REMARK       I    between atoms: N1_12  and  C9_14
REMARK    4  A    between atoms: C9_14  and  C10_16
REMARK    5  A    between atoms: C10_16  and  C11_17
REMARK    6  A    between atoms: C11_17  and  C12_18
REMARK    7  A    between atoms: C12_18  and  C13_19
REMARK    8  A    between atoms: C13_19  and  C14_20
REMARK    9  A    between atoms: C14_20  and  C15_21
REMARK   10  A    between atoms: C15_21  and  N2_22
REMARK       I    between atoms: N2_22  and  C16_24
REMARK   11  A    between atoms: C19_28  and  N3_29
REMARK       I    between atoms: N3_29  and  C20_31
REMARK   12  A    between atoms: C20_31  and  O7_33
REMARK   13  A    between atoms: O7_33  and  C21_34
ROOT
HETATM    1  C3  UNL     1       7.604   8.594  22.084  1.00  0.00    -0.010 C
HETATM    2  C4  UNL     1       6.625   9.715  21.978  1.00  0.00     0.179 C
HETATM    3  O1  UNL     1       5.391   9.463  21.500  1.00  0.00    -0.372 OA
HETATM    4  C5  UNL     1       4.623   8.558  22.200  1.00  0.00     0.250 C
HETATM    5  C6  UNL     1       4.910   7.212  21.593  1.00  0.00     0.291 C
HETATM    6  O2  UNL     1       4.060   6.321  21.868  1.00  0.00    -0.262 OA
HETATM    7  O3  UNL     1       5.896   6.663  20.781  1.00  0.00    -0.312 OA
HETATM    8  C7  UNL     1       6.876   7.344  19.985  1.00  0.00     0.150 C
HETATM    9  C18 UNL     1       7.958   7.958  20.761  1.00  0.00     0.046 C
HETATM   10  C19 UNL     1       4.901   8.546  23.672  1.00  0.00     0.195 C
HETATM   11  C25 UNL     1       6.108   7.763  23.908  1.00  0.00     0.153 C
HETATM   12  O8  UNL     1       6.078   7.099  24.949  1.00  0.00    -0.296 OA
HETATM   13  C26 UNL     1       7.363   7.601  23.159  1.00  0.00     0.092 C
ENDROOT
BRANCH   8  14
HETATM   14  C8  UNL     1       7.446   6.299  19.046  1.00  0.00     0.155 C
BRANCH  14  15
HETATM   15  N1  UNL     1       6.930   4.997  19.444  1.00  0.00    -0.359 N
HETATM   16  C9  UNL     1       6.176   4.193  18.547  1.00  0.00     0.217 C
HETATM   17  O4  UNL     1       5.969   4.636  17.402  1.00  0.00    -0.274 OA
ATOM     18  H1  UNL     1       7.113   4.654  20.388  1.00  0.00     0.162 HD
BRANCH  16  19
HETATM   19  C10 UNL     1       5.673   2.895  18.977  1.00  0.00     0.103 C
BRANCH  19  20
HETATM   20  C11 UNL     1       6.448   1.756  18.292  1.00  0.00     0.009 C
BRANCH  20  21
HETATM   21  C12 UNL     1       7.774   1.506  18.903  1.00  0.00     0.001 C
BRANCH  21  22
HETATM   22  C13 UNL     1       8.958   1.818  18.088  1.00  0.00     0.002 C
BRANCH  22  23
HETATM   23  C14 UNL     1       9.789   0.764  17.513  1.00  0.00     0.020 C
BRANCH  23  24
HETATM   24  C15 UNL     1       9.319  -0.076  16.395  1.00  0.00     0.122 C
BRANCH  24  25
HETATM   25  N2  UNL     1      10.154  -1.180  16.029  1.00  0.00    -0.361 N
HETATM   26  C16 UNL     1       9.625  -2.251  15.282  1.00  0.00     0.213 C
HETATM   27  C17 UNL     1      10.537  -3.386  14.922  1.00  0.00     0.117 C
HETATM   28  O5  UNL     1       8.415  -2.281  14.909  1.00  0.00    -0.274 OA
ATOM     29  H2  UNL     1      11.135  -1.190  16.310  1.00  0.00     0.162 HD
ENDBRANCH  24  25
ENDBRANCH  23  24
ENDBRANCH  22  23
ENDBRANCH  21  22
ENDBRANCH  20  21
ENDBRANCH  19  20
ENDBRANCH  16  19
ENDBRANCH  14  15
ENDBRANCH   8  14
BRANCH   1  30
HETATM   30  C2  UNL     1       8.924   9.316  22.468  1.00  0.00     0.007 C
HETATM   31  C1  UNL     1       9.316   9.017  23.872  1.00  0.00     0.006 C
ENDBRANCH   1  30
BRANCH  10  32
HETATM   32  N3  UNL     1       3.724   8.075  24.354  1.00  0.00    -0.322 N
HETATM   33  C20 UNL     1       3.114   8.657  25.457  1.00  0.00     0.362 C
HETATM   34  O6  UNL     1       3.582   9.699  25.960  1.00  0.00    -0.238 OA
ATOM     35  H3  UNL     1       3.294   7.225  23.989  1.00  0.00     0.165 HD
BRANCH  33  36
HETATM   36  O7  UNL     1       1.985   8.105  26.019  1.00  0.00    -0.294 OA
BRANCH  36  37
HETATM   37  C21 UNL     1       0.710   8.102  25.455  1.00  0.00     0.061 C
HETATM   38  C22 UNL     1       0.500   6.924  24.505  1.00  0.00     0.046 C
HETATM   39  C23 UNL     1      -0.284   7.890  26.603  1.00  0.00     0.046 C
HETATM   40  C24 UNL     1       0.356   9.376  24.753  1.00  0.00     0.046 C
ENDBRANCH  36  37
ENDBRANCH  33  36
ENDBRANCH  10  32
TORSDOF 13
ENDMDL