MODEL 3
REMARK VINA RESULT: -4.659685757      0.886      2.249
REMARK  6 active torsions:
REMARK  status: ('A' for Active; 'I' for Inactive)
REMARK    1  A    between atoms: N1_2  and  C3_4
REMARK    2  A    between atoms: C3_4  and  C4_5
REMARK    3  A    between atoms: C4_5  and  O1_6
REMARK    4  A    between atoms: C4_5  and  N2_8
REMARK    5  A    between atoms: N2_8  and  N3_9
REMARK       I    between atoms: N3_9  and  C5_11
REMARK       I    between atoms: C5_11  and  N4_13
REMARK    6  A    between atoms: N4_13  and  N5_15
REMARK       I    between atoms: N5_15  and  C6_17
ROOT
HETATM    1  N3  UNL     1      55.389  17.580  40.781  1.00  0.00    -0.181 N
ATOM      2  H3  UNL     1      54.549  18.017  41.159  1.00  0.00     0.207 HD
HETATM    3  C5  UNL     1      55.110  17.036  39.471  1.00  0.00     0.363 C
HETATM    4  O2  UNL     1      56.073  16.288  39.046  1.00  0.00    -0.243 OA
HETATM    5  N4  UNL     1      53.920  17.415  38.979  1.00  0.00    -0.247 N
ATOM      6  H4  UNL     1      53.560  18.064  39.678  1.00  0.00     0.192 HD
ENDROOT
BRANCH   1   7
HETATM    7  N2  UNL     1      56.346  17.691  41.620  1.00  0.00    -0.295 NA
BRANCH   7   8
HETATM    8  C4  UNL     1      57.317  17.766  42.452  1.00  0.00     0.286 C
BRANCH   8   9
HETATM    9  C3  UNL     1      57.971  17.056  43.542  1.00  0.00     0.430 C
HETATM   10  C7  UNL     1      59.442  17.264  43.631  1.00  0.00     0.116 C
HETATM   11  C8  UNL     1      59.125  18.536  44.491  1.00  0.00     0.281 C
HETATM   12  N8  UNL     1      57.890  17.943  44.796  1.00  0.00     0.134 N
HETATM   13  C9  UNL     1      56.701  18.736  44.772  1.00  0.00     0.314 C
BRANCH   9  14
HETATM   14  N1  UNL     1      57.386  15.833  43.992  1.00  0.00     0.130 N
HETATM   15  C1  UNL     1      57.269  14.850  42.897  1.00  0.00     0.313 C
HETATM   16  C2  UNL     1      56.176  15.848  44.643  1.00  0.00     0.313 C
ENDBRANCH   9  14
ENDBRANCH   8   9
BRANCH   8  17
HETATM   17  O1  UNL     1      58.088  19.009  42.382  1.00  0.00    -0.334 OA
ATOM     18  H1  UNL     1      57.480  19.600  41.953  1.00  0.00     0.220 HD
ENDBRANCH   8  17
ENDBRANCH   7   8
ENDBRANCH   1   7
BRANCH   5  19
HETATM   19  N5  UNL     1      52.994  17.382  38.074  1.00  0.00    -0.270 N
HETATM   20  C6  UNL     1      52.906  17.345  36.713  1.00  0.00     0.200 C
HETATM   21  N6  UNL     1      51.822  18.024  36.257  1.00  0.00    -0.372 N
HETATM   22  N7  UNL     1      53.668  16.762  35.675  1.00  0.00    -0.062 NA
ATOM     23  H62 UNL     1      51.272  18.445  37.007  1.00  0.00     0.158 HD
ATOM     24  H61 UNL     1      51.755  17.996  35.240  1.00  0.00     0.158 HD
ATOM     25  H5  UNL     1      52.067  17.386  38.500  1.00  0.00     0.189 HD
ENDBRANCH   5  19
TORSDOF 6
ENDMDL