MODEL 5
REMARK VINA RESULT: -5.386024452      2.592      8.053
REMARK  4 active torsions:
REMARK  status: ('A' for Active; 'I' for Inactive)
REMARK    1  A    between atoms: C1_2  and  C2_4
REMARK       I    between atoms: C2_4  and  N2_6
REMARK    2  A    between atoms: N2_6  and  N3_8
REMARK       I    between atoms: N3_8  and  C3_10
REMARK       I    between atoms: C3_10  and  N4_12
REMARK    3  A    between atoms: N4_12  and  N5_14
REMARK       I    between atoms: N5_14  and  C4_16
REMARK    4  A    between atoms: C4_16  and  C5_18
ROOT
HETATM    1  N3  UNL     1      53.662  18.136  40.103  1.00  0.00    -0.247 N
ATOM      2  H3  UNL     1      52.904  18.180  40.783  1.00  0.00     0.192 HD
HETATM    3  C3  UNL     1      55.000  17.998  40.557  1.00  0.00     0.353 C
HETATM    4  O3  UNL     1      55.917  17.932  39.690  1.00  0.00    -0.244 OA
HETATM    5  N4  UNL     1      55.283  17.942  41.946  1.00  0.00    -0.248 N
ATOM      6  H4  UNL     1      54.514  17.994  42.613  1.00  0.00     0.192 HD
ENDROOT
BRANCH   5   7
HETATM    7  N5  UNL     1      56.585  17.817  42.419  1.00  0.00    -0.266 N
HETATM    8  C4  UNL     1      56.808  17.754  43.814  1.00  0.00     0.240 C
HETATM    9  O4  UNL     1      55.874  17.811  44.613  1.00  0.00    -0.271 OA
ATOM     10  H5  UNL     1      57.368  17.770  41.768  1.00  0.00     0.190 HD
BRANCH   8  11
HETATM   11  C5  UNL     1      58.199  17.619  44.288  1.00  0.00     0.082 C
HETATM   12  C6  UNL     1      58.846  18.950  44.577  1.00  0.00     0.033 C
HETATM   13  C7  UNL     1      60.123  18.687  45.345  1.00  0.00     0.114 C
HETATM   14  N6  UNL     1      60.819  17.534  44.892  1.00  0.00    -0.421 N
HETATM   15  C8  UNL     1      60.531  17.098  43.557  1.00  0.00     0.114 C
ATOM     16  H6  UNL     1      61.488  17.043  45.485  1.00  0.00     0.153 HD
HETATM   17  C9  UNL     1      59.064  16.867  43.313  1.00  0.00     0.033 C
ENDBRANCH   8  11
ENDBRANCH   5   7
BRANCH   1  18
HETATM   18  N2  UNL     1      53.368  18.212  38.745  1.00  0.00    -0.258 N
HETATM   19  C2  UNL     1      53.332  17.116  37.863  1.00  0.00     0.325 C
HETATM   20  O2  UNL     1      53.582  15.960  38.314  1.00  0.00    -0.261 OA
ATOM     21  H2  UNL     1      53.163  19.134  38.359  1.00  0.00     0.190 HD
BRANCH  19  22
HETATM   22  C1  UNL     1      53.021  17.255  36.461  1.00  0.00     0.324 C
HETATM   23  N1  UNL     1      51.736  17.722  36.036  1.00  0.00    -0.053 NA
HETATM   24  O1  UNL     1      53.885  16.967  35.586  1.00  0.00    -0.266 OA
ENDBRANCH  19  22
ENDBRANCH   1  18
TORSDOF 4
ENDMDL