MODEL 5
REMARK VINA RESULT: -7.566831231      1.379      1.537
REMARK  8 active torsions:
REMARK  status: ('A' for Active; 'I' for Inactive)
REMARK    1  A    between atoms: N1_1  and  N2_4
REMARK    2  A    between atoms: C1_6  and  N3_7
REMARK    3  A    between atoms: C1_6  and  C9_25
REMARK    4  A    between atoms: N3_7  and  N4_9
REMARK    5  A    between atoms: N4_9  and  C2_11
REMARK    6  A    between atoms: C2_11  and  N5_13
REMARK    7  A    between atoms: N5_13  and  C3_15
REMARK    8  A    between atoms: C8_20  and  N6_21
ROOT
HETATM    1  C2  UNL     1      56.496  15.868  43.500  1.00  0.00     0.186 C
HETATM    2  S1  UNL     1      55.016  15.319  43.902  1.00  0.00    -0.040 SA
ENDROOT
BRANCH   1   3
HETATM    3  N4  UNL     1      57.566  15.661  44.418  1.00  0.00    -0.275 N
ATOM      4  H4  UNL     1      58.007  14.743  44.463  1.00  0.00     0.189 HD
BRANCH   3   5
HETATM    5  N3  UNL     1      58.030  16.673  45.255  1.00  0.00    -0.278 N
ATOM      6  H3  UNL     1      57.717  16.671  46.226  1.00  0.00     0.189 HD
BRANCH   5   7
HETATM    7  C1  UNL     1      58.903  17.699  44.846  1.00  0.00     0.200 C
HETATM    8  N2  UNL     1      58.437  18.865  44.579  1.00  0.00    -0.287 N
ATOM      9  H2  UNL     1      59.063  19.613  44.282  1.00  0.00     0.188 HD
BRANCH   8  10
HETATM   10  N1  UNL     1      57.069  19.103  44.700  1.00  0.00    -0.343 N
ATOM     11  H12 UNL     1      56.486  19.095  43.862  1.00  0.00     0.176 HD
ATOM     12  H11 UNL     1      56.668  19.282  45.620  1.00  0.00     0.176 HD
ENDBRANCH   8  10
BRANCH   7  13
HETATM   13  C9  UNL     1      60.331  17.450  44.721  1.00  0.00     0.301 C
HETATM   14  N7  UNL     1      61.222  17.457  45.813  1.00  0.00    -0.054 NA
HETATM   15  O1  UNL     1      60.839  17.208  43.580  1.00  0.00    -0.268 OA
ENDBRANCH   7  13
ENDBRANCH   5   7
ENDBRANCH   3   5
ENDBRANCH   1   3
BRANCH   1  16
HETATM   16  N5  UNL     1      56.666  16.542  42.268  1.00  0.00    -0.359 N
ATOM     17  H5  UNL     1      57.583  16.911  42.016  1.00  0.00     0.162 HD
BRANCH  16  18
HETATM   18  C3  UNL     1      55.562  16.712  41.372  1.00  0.00     0.114 C
HETATM   19  C4  UNL     1      55.079  18.145  41.396  1.00  0.00     0.027 C
HETATM   20  C5  UNL     1      54.106  18.480  40.325  1.00  0.00     0.002 C
HETATM   21  C6  UNL     1      54.209  17.748  39.056  1.00  0.00     0.002 C
HETATM   22  C7  UNL     1      54.819  16.372  39.114  1.00  0.00     0.035 C
HETATM   23  C8  UNL     1      56.086  16.499  39.949  1.00  0.00     0.206 C
BRANCH  23  24
HETATM   24  N6  UNL     1      56.699  17.765  39.509  1.00  0.00    -0.073 N
ATOM     25  H63 UNL     1      56.948  18.378  40.286  1.00  0.00     0.274 HD
ATOM     26  H62 UNL     1      57.638  17.641  39.131  1.00  0.00     0.274 HD
ATOM     27  H61 UNL     1      56.059  18.202  38.846  1.00  0.00     0.274 HD
ENDBRANCH  23  24
ENDBRANCH  16  18
ENDBRANCH   1  16
TORSDOF 8
ENDMDL