MODEL 1
REMARK VINA RESULT: -4.918515533      0.000      0.000
REMARK  2 active torsions:
REMARK  status: ('A' for Active; 'I' for Inactive)
REMARK       I    between atoms: N1_2  and  C2_4
REMARK    1  A    between atoms: C2_4  and  C3_6
REMARK    2  A    between atoms: C3_6  and  N2_7
ROOT
HETATM    1  N2  UNL     1      49.609  10.097  46.849  1.00  0.00    -0.297 N
HETATM    2  C4  UNL     1      50.459   9.438  47.793  1.00  0.00     0.175 C
HETATM    3  C5  UNL     1      51.725  10.231  48.059  1.00  0.00     0.254 C
HETATM    4  N3  UNL     1      52.721   9.471  48.724  1.00  0.00    -0.073 N
ATOM      5  H31 UNL     1      53.417   9.137  48.057  1.00  0.00     0.277 HD
ATOM      6  H32 UNL     1      52.337   8.580  49.038  1.00  0.00     0.277 HD
HETATM    7  C6  UNL     1      53.362  10.149  49.814  1.00  0.00     0.234 C
HETATM    8  C7  UNL     1      53.180   9.482  51.139  1.00  0.00     0.055 C
HETATM    9  C8  UNL     1      51.781   9.496  51.655  1.00  0.00     0.234 C
HETATM   10  N4  UNL     1      51.182  10.797  51.533  1.00  0.00    -0.073 N
ATOM     11  H41 UNL     1      51.023  11.051  50.559  1.00  0.00     0.277 HD
ATOM     12  H42 UNL     1      51.835  11.541  51.779  1.00  0.00     0.277 HD
HETATM   13  C9  UNL     1      49.960  10.868  52.317  1.00  0.00     0.259 C
HETATM   14  C10 UNL     1      48.765  10.388  51.527  1.00  0.00     0.260 C
HETATM   15  N5  UNL     1      48.295  11.404  50.601  1.00  0.00    -0.069 N
ATOM     16  H51 UNL     1      49.051  11.999  50.263  1.00  0.00     0.277 HD
ATOM     17  H52 UNL     1      47.742  12.124  51.066  1.00  0.00     0.277 HD
HETATM   18  C11 UNL     1      47.570  10.762  49.516  1.00  0.00     0.278 C
HETATM   19  C12 UNL     1      48.018  11.276  48.158  1.00  0.00     0.107 C
HETATM   20  N6  UNL     1      48.324  10.278  47.222  1.00  0.00    -0.312 N
ATOM     21  H6  UNL     1      47.585   9.696  46.828  1.00  0.00     0.185 HD
ENDROOT
BRANCH   1  22
HETATM   22  C3  UNL     1      49.951   9.947  45.501  1.00  0.00     0.184 C
BRANCH  22  23
HETATM   23  C2  UNL     1      48.901   9.219  44.730  1.00  0.00     0.258 C
HETATM   24  N1  UNL     1      48.236   9.851  43.637  1.00  0.00    -0.361 N
HETATM   25  C1  UNL     1      47.229   9.114  42.920  1.00  0.00     0.149 C
ATOM     26  H1  UNL     1      48.471  10.806  43.368  1.00  0.00     0.162 HD
HETATM   27  O1  UNL     1      48.589   8.059  45.025  1.00  0.00    -0.267 OA
ENDBRANCH  22  23
ENDBRANCH   1  22
TORSDOF 2
ENDMDL