MODEL 2
REMARK VINA RESULT: -6.498178152      2.092      2.881
REMARK  5 active torsions:
REMARK  status: ('A' for Active; 'I' for Inactive)
REMARK    1  A    between atoms: C2_2  and  N1_3
REMARK    2  A    between atoms: C2_2  and  C10_25
REMARK       I    between atoms: N1_3  and  C3_5
REMARK       I    between atoms: C3_5  and  N2_7
REMARK    3  A    between atoms: C6_10  and  C7_11
REMARK       I    between atoms: C7_11  and  N3_13
REMARK    4  A    between atoms: N3_13  and  N4_15
REMARK    5  A    between atoms: N5_20  and  N6_22
ROOT
HETATM    1  N1  UNL     1      58.755  17.116  43.043  1.00  0.00    -0.332 N
ATOM      2  H1  UNL     1      59.146  16.957  42.114  1.00  0.00     0.165 HD
HETATM    3  C3  UNL     1      57.328  17.166  43.189  1.00  0.00     0.324 C
HETATM    4  O1  UNL     1      56.895  17.360  44.350  1.00  0.00    -0.247 OA
HETATM    5  N2  UNL     1      56.463  17.002  42.077  1.00  0.00    -0.288 N
HETATM    6  C4  UNL     1      57.075  16.868  40.749  1.00  0.00     0.136 C
HETATM    7  C5  UNL     1      56.156  17.104  39.615  1.00  0.00     0.035 C
HETATM    8  C6  UNL     1      54.703  17.119  39.878  1.00  0.00     0.088 C
HETATM    9  C8  UNL     1      54.268  17.710  41.192  1.00  0.00     0.092 C
HETATM   10  C9  UNL     1      55.061  16.940  42.229  1.00  0.00     0.102 C
HETATM   11  N5  UNL     1      54.497  16.263  43.114  1.00  0.00    -0.295 N
ATOM     12  H5  UNL     1      53.482  16.357  43.054  1.00  0.00     0.187 HD
ENDROOT
BRANCH   1  13
HETATM   13  C2  UNL     1      59.657  17.280  44.155  1.00  0.00     0.146 C
HETATM   14  C1  UNL     1      61.084  16.928  43.758  1.00  0.00     0.040 C
BRANCH  13  15
HETATM   15  C10 UNL     1      59.660  18.675  44.682  1.00  0.00     0.109 C
HETATM   16  N7  UNL     1      58.739  19.520  44.438  1.00  0.00    -0.389 N
ATOM     17  H72 UNL     1      57.962  19.215  43.851  1.00  0.00     0.157 HD
ATOM     18  H71 UNL     1      58.740  20.474  44.799  1.00  0.00     0.157 HD
HETATM   19  N8  UNL     1      60.746  19.101  45.505  1.00  0.00    -0.086 NA
ENDBRANCH  13  15
ENDBRANCH   1  13
BRANCH  11  20
HETATM   20  N6  UNL     1      54.844  15.448  44.120  1.00  0.00    -0.344 N
ATOM     21  H62 UNL     1      55.504  15.926  44.734  1.00  0.00     0.176 HD
ATOM     22  H61 UNL     1      54.636  14.500  44.436  1.00  0.00     0.176 HD
ENDBRANCH  11  20
BRANCH   8  23
HETATM   23  C7  UNL     1      53.920  17.742  38.781  1.00  0.00     0.240 C
HETATM   24  O2  UNL     1      53.746  18.986  38.757  1.00  0.00    -0.271 OA
HETATM   25  N3  UNL     1      53.347  16.976  37.735  1.00  0.00    -0.276 N
ATOM     26  H3  UNL     1      53.476  15.965  37.735  1.00  0.00     0.189 HD
BRANCH  25  27
HETATM   27  N4  UNL     1      52.611  17.562  36.705  1.00  0.00    -0.343 N
ATOM     28  H42 UNL     1      52.215  18.488  36.868  1.00  0.00     0.176 HD
ATOM     29  H41 UNL     1      52.463  17.094  35.811  1.00  0.00     0.176 HD
ENDBRANCH  25  27
ENDBRANCH   8  23
TORSDOF 5
ENDMDL