MODEL 2
REMARK VINA RESULT: -6.399767829      1.285      3.278
REMARK  4 active torsions:
REMARK  status: ('A' for Active; 'I' for Inactive)
REMARK    1  A    between atoms: N2_5  and  C4_6
REMARK    2  A    between atoms: C4_6  and  C5_7
REMARK    3  A    between atoms: C5_7  and  N3_8
REMARK    4  A    between atoms: C7_13  and  N4_14
REMARK       I    between atoms: N5_19  and  C9_20
ROOT
HETATM    1  C5  UNL     1      57.012  18.135  43.536  1.00  0.00     0.215 C
HETATM    2  C6  UNL     1      58.137  18.618  42.696  1.00  0.00     0.097 C
HETATM    3  C7  UNL     1      59.418  17.963  43.250  1.00  0.00     0.205 C
HETATM    4  C8  UNL     1      58.886  17.281  44.491  1.00  0.00     0.161 C
HETATM    5  N5  UNL     1      57.574  16.848  44.012  1.00  0.00    -0.320 N
HETATM    6  C9  UNL     1      57.096  15.546  44.034  1.00  0.00     0.186 C
HETATM    7  N6  UNL     1      57.524  14.615  43.211  1.00  0.00    -0.374 N
ATOM      8  H61 UNL     1      57.173  13.658  43.228  1.00  0.00     0.158 HD
ATOM      9  H62 UNL     1      58.239  14.904  42.542  1.00  0.00     0.158 HD
HETATM   10  N7  UNL     1      56.105  15.145  44.962  1.00  0.00    -0.064 NA
ENDROOT
BRANCH   1  11
HETATM   11  C4  UNL     1      55.676  17.983  42.957  1.00  0.00     0.175 C
BRANCH  11  12
HETATM   12  N2  UNL     1      55.663  18.158  41.520  1.00  0.00    -0.211 NA
HETATM   13  C3  UNL     1      54.270  18.469  41.102  1.00  0.00     0.134 C
HETATM   14  C2  UNL     1      54.265  18.688  39.623  1.00  0.00     0.157 C
HETATM   15  N1  UNL     1      54.496  17.398  38.955  1.00  0.00    -0.220 N
HETATM   16  C1  UNL     1      54.052  17.118  37.616  1.00  0.00     0.168 C
HETATM   17  C10 UNL     1      55.201  16.457  39.750  1.00  0.00     0.684 C
HETATM   18  N8  UNL     1      55.997  16.990  40.842  1.00  0.00    -0.152 N
HETATM   19  N9  UNL     1      55.150  15.214  39.510  1.00  0.00    -0.234 N
ATOM     20  H8  UNL     1      56.838  16.487  41.124  1.00  0.00     0.199 HD
ATOM     21  H92 UNL     1      54.591  14.839  38.743  1.00  0.00     0.174 HD
ATOM     22  H91 UNL     1      55.657  14.537  40.080  1.00  0.00     0.174 HD
ENDBRANCH  11  12
ENDBRANCH   1  11
BRANCH   1  23
HETATM   23  N3  UNL     1      56.855  18.926  44.775  1.00  0.00    -0.051 N
ATOM     24  H33 UNL     1      57.698  19.440  45.033  1.00  0.00     0.277 HD
ATOM     25  H32 UNL     1      56.241  19.733  44.662  1.00  0.00     0.277 HD
ATOM     26  H31 UNL     1      56.541  18.281  45.500  1.00  0.00     0.277 HD
ENDBRANCH   1  23
BRANCH   3  27
HETATM   27  N4  UNL     1      60.443  18.940  43.525  1.00  0.00    -0.073 N
ATOM     28  H43 UNL     1      61.369  18.585  43.284  1.00  0.00     0.274 HD
ATOM     29  H42 UNL     1      60.398  19.721  42.870  1.00  0.00     0.274 HD
ATOM     30  H41 UNL     1      60.408  19.263  44.492  1.00  0.00     0.274 HD
ENDBRANCH   3  27
TORSDOF 4
ENDMDL