MODEL 2
REMARK VINA RESULT: -2.544321137     11.932     12.732
REMARK  3 active torsions:
REMARK  status: ('A' for Active; 'I' for Inactive)
REMARK       I    between atoms: N2_5  and  C4_6
REMARK       I    between atoms: C4_6  and  N4_10
REMARK       I    between atoms: N4_10  and  C5_12
REMARK       I    between atoms: C5_12  and  N8_19
REMARK    1  A    between atoms: N5_13  and  N6_15
REMARK    2  A    between atoms: N8_19  and  C7_21
REMARK    3  A    between atoms: C9_23  and  N9_24
ROOT
HETATM    1  C1  UNL     1      60.063  18.224  44.098  1.00  0.00     0.310 C
HETATM    2  N1  UNL     1      58.775  18.009  44.724  1.00  0.00     0.087 N
HETATM    3  C2  UNL     1      58.306  16.677  44.631  1.00  0.00     0.292 C
HETATM    4  C3  UNL     1      57.141  16.453  43.737  1.00  0.00     0.171 C
HETATM    5  N2  UNL     1      56.902  17.483  42.777  1.00  0.00    -0.214 N
HETATM    6  C4  UNL     1      56.075  17.153  41.667  1.00  0.00     0.688 C
HETATM    7  N3  UNL     1      56.586  16.424  40.744  1.00  0.00    -0.234 N
ATOM      8  H31 UNL     1      55.994  16.187  39.948  1.00  0.00     0.174 HD
ATOM      9  H32 UNL     1      57.553  16.115  40.847  1.00  0.00     0.174 HD
HETATM   10  N4  UNL     1      54.731  17.581  41.524  1.00  0.00    -0.022 N
ATOM     11  H4  UNL     1      53.993  17.238  42.138  1.00  0.00     0.203 HD
HETATM   12  C5  UNL     1      54.459  18.522  40.471  1.00  0.00     0.707 C
HETATM   13  N5  UNL     1      54.077  19.697  40.847  1.00  0.00    -0.131 N
ATOM     14  H5  UNL     1      53.979  19.929  41.835  1.00  0.00     0.205 HD
HETATM   15  N8  UNL     1      54.606  18.168  39.103  1.00  0.00    -0.218 N
ATOM     16  H8  UNL     1      55.511  18.247  38.638  1.00  0.00     0.178 HD
HETATM   17  C10 UNL     1      57.462  18.813  42.901  1.00  0.00     0.171 C
HETATM   18  C11 UNL     1      57.819  19.020  44.347  1.00  0.00     0.292 C
ENDROOT
BRANCH  13  19
HETATM   19  N6  UNL     1      53.805  20.634  39.856  1.00  0.00    -0.284 N
HETATM   20  C6  UNL     1      53.238  21.741  40.176  1.00  0.00     0.207 C
HETATM   21  N7  UNL     1      52.910  21.964  41.543  1.00  0.00    -0.095 NA
ATOM     22  H6  UNL     1      54.053  20.445  38.885  1.00  0.00     0.187 HD
ENDBRANCH  13  19
BRANCH  15  23
HETATM   23  C7  UNL     1      53.458  17.699  38.392  1.00  0.00     0.132 A
HETATM   24  C8  UNL     1      53.475  16.238  37.966  1.00  0.00     0.062 A
HETATM   25  C9  UNL     1      53.505  17.328  36.967  1.00  0.00     0.208 A
BRANCH  25  26
HETATM   26  N9  UNL     1      52.326  17.534  36.144  1.00  0.00    -0.073 N
ATOM     27  H93 UNL     1      52.066  16.645  35.715  1.00  0.00     0.274 HD
ATOM     28  H92 UNL     1      51.525  17.702  36.754  1.00  0.00     0.274 HD
ATOM     29  H91 UNL     1      52.344  18.254  35.422  1.00  0.00     0.274 HD
ENDBRANCH  25  26
ENDBRANCH  15  23
TORSDOF 3
ENDMDL