MODEL 1
REMARK VINA RESULT: -6.982533304      0.000      0.000
REMARK  3 active torsions:
REMARK  status: ('A' for Active; 'I' for Inactive)
REMARK       I    between atoms: C2_5  and  N3_6
REMARK       I    between atoms: C2_5  and  N8_17
REMARK       I    between atoms: C3_8  and  N5_10
REMARK    1  A    between atoms: N5_10  and  N6_12
REMARK       I    between atoms: N6_12  and  C4_14
REMARK    2  A    between atoms: N8_17  and  C5_19
REMARK    3  A    between atoms: C5_19  and  C6_20
ROOT
HETATM    1  N1  UNL     1      54.185  14.189  44.002  1.00  0.00    -0.171 NA
HETATM    2  C1  UNL     1      54.916  15.100  44.086  1.00  0.00     0.196 C
HETATM    3  N2  UNL     1      55.790  16.174  44.164  1.00  0.00    -0.126 N
ATOM      4  H2  UNL     1      56.187  16.449  45.062  1.00  0.00     0.197 HD
HETATM    5  C2  UNL     1      56.096  16.820  43.097  1.00  0.00     0.689 C
HETATM    6  N3  UNL     1      56.986  17.910  43.179  1.00  0.00    -0.162 N
ATOM      7  H3  UNL     1      56.709  18.826  42.826  1.00  0.00     0.187 HD
HETATM    8  C3  UNL     1      58.148  17.744  43.700  1.00  0.00     0.221 C
HETATM    9  N4  UNL     1      58.478  16.433  44.177  1.00  0.00    -0.061 NA
HETATM   10  N5  UNL     1      59.097  18.775  43.830  1.00  0.00    -0.269 N
ATOM     11  H5  UNL     1      59.125  19.525  43.139  1.00  0.00     0.189 HD
HETATM   12  N8  UNL     1      55.546  16.444  41.852  1.00  0.00    -0.225 N
ATOM     13  H8  UNL     1      54.566  16.163  41.819  1.00  0.00     0.177 HD
ENDROOT
BRANCH  12  14
HETATM   14  C5  UNL     1      56.304  16.437  40.623  1.00  0.00     0.142 C
BRANCH  14  15
HETATM   15  C6  UNL     1      55.593  17.287  39.593  1.00  0.00     0.007 C
HETATM   16  C7  UNL     1      54.841  16.431  38.601  1.00  0.00     0.025 C
HETATM   17  C8  UNL     1      53.635  16.993  37.991  1.00  0.00     0.114 C
HETATM   18  N9  UNL     1      53.058  18.142  38.587  1.00  0.00    -0.421 N
HETATM   19  C9  UNL     1      53.948  19.022  39.253  1.00  0.00     0.114 C
ATOM     20  H9  UNL     1      52.057  18.327  38.539  1.00  0.00     0.153 HD
HETATM   21  C10 UNL     1      54.639  18.196  40.348  1.00  0.00     0.025 C
ENDBRANCH  14  15
ENDBRANCH  12  14
BRANCH  10  22
HETATM   22  N6  UNL     1      59.998  18.781  44.892  1.00  0.00    -0.252 N
HETATM   23  C4  UNL     1      61.099  17.879  44.888  1.00  0.00     0.347 C
HETATM   24  N7  UNL     1      62.042  17.855  45.950  1.00  0.00    -0.038 NA
HETATM   25  O1  UNL     1      61.235  17.086  43.918  1.00  0.00    -0.249 OA
ATOM     26  H6  UNL     1      59.871  19.430  45.669  1.00  0.00     0.191 HD
ENDBRANCH  10  22
TORSDOF 3
ENDMDL