MODEL 4
REMARK VINA RESULT: -2.878306039      2.122      7.806
REMARK  2 active torsions:
REMARK  status: ('A' for Active; 'I' for Inactive)
REMARK    1  A    between atoms: N2_4  and  N3_6
REMARK       I    between atoms: N3_6  and  C3_8
REMARK       I    between atoms: C3_8  and  N5_12
REMARK    2  A    between atoms: N5_12  and  N6_14
REMARK       I    between atoms: N6_14  and  C4_16
REMARK       I    between atoms: C4_16  and  N7_18
ROOT
HETATM    1  N6  UNL     1      56.748  15.363  42.427  1.00  0.00    -0.237 N
ATOM      2  H6  UNL     1      56.228  14.514  42.203  1.00  0.00     0.192 HD
HETATM    3  C4  UNL     1      56.604  16.477  41.585  1.00  0.00     0.337 C
HETATM    4  O1  UNL     1      57.267  17.526  41.886  1.00  0.00    -0.245 OA
HETATM    5  N7  UNL     1      55.770  16.497  40.436  1.00  0.00    -0.324 N
HETATM    6  C5  UNL     1      55.792  17.757  39.743  1.00  0.00     0.128 C
HETATM    7  C6  UNL     1      54.587  18.603  40.074  1.00  0.00     0.022 C
HETATM    8  C7  UNL     1      53.422  18.361  39.186  1.00  0.00     0.021 C
HETATM    9  C8  UNL     1      53.709  17.635  37.922  1.00  0.00     0.122 C
HETATM   10  N8  UNL     1      53.829  16.199  38.073  1.00  0.00    -0.360 N
ATOM     11  H8  UNL     1      53.587  15.717  37.207  1.00  0.00     0.162 HD
HETATM   12  C9  UNL     1      54.192  15.272  39.093  1.00  0.00     0.235 C
HETATM   13  O2  UNL     1      53.553  14.169  38.973  1.00  0.00    -0.272 OA
HETATM   14  C10 UNL     1      55.104  15.247  40.245  1.00  0.00     0.230 C
ENDROOT
BRANCH   1  15
HETATM   15  N5  UNL     1      57.564  15.360  43.547  1.00  0.00    -0.127 N
HETATM   16  C3  UNL     1      57.373  16.360  44.577  1.00  0.00     0.705 C
HETATM   17  N3  UNL     1      58.310  16.346  45.683  1.00  0.00    -0.130 N
HETATM   18  N4  UNL     1      56.490  17.153  44.522  1.00  0.00    -0.232 N
ATOM     19  H3  UNL     1      58.407  15.517  46.269  1.00  0.00     0.205 HD
ATOM     20  H42 UNL     1      56.355  17.858  45.248  1.00  0.00     0.174 HD
ATOM     21  H41 UNL     1      55.830  17.162  43.744  1.00  0.00     0.174 HD
ATOM     22  H5  UNL     1      58.297  14.657  43.645  1.00  0.00     0.206 HD
BRANCH  17  23
HETATM   23  N2  UNL     1      59.076  17.484  45.933  1.00  0.00    -0.277 N
HETATM   24  C2  UNL     1      59.975  17.859  45.064  1.00  0.00     0.104 C
HETATM   25  C1  UNL     1      60.121  17.024  43.836  1.00  0.00     0.086 C
HETATM   26  N1  UNL     1      60.756  19.013  45.313  1.00  0.00    -0.087 NA
ATOM     27  H2  UNL     1      58.935  18.020  46.789  1.00  0.00     0.188 HD
ENDBRANCH  17  23
ENDBRANCH   1  15
TORSDOF 2
ENDMDL