MODEL 3
REMARK VINA RESULT: -4.661264176      2.640      6.070
REMARK  3 active torsions:
REMARK  status: ('A' for Active; 'I' for Inactive)
REMARK       I    between atoms: N1_5  and  C5_6
REMARK       I    between atoms: C5_6  and  N2_8
REMARK    1  A    between atoms: N2_8  and  N3_10
REMARK       I    between atoms: N3_10  and  C6_12
REMARK    2  A    between atoms: N6_18  and  N7_20
REMARK    3  A    between atoms: C8_23  and  C9_24
ROOT
HETATM    1  C1  UNL     1      59.248  19.368  43.507  1.00  0.00     0.018 C
HETATM    2  C2  UNL     1      58.228  18.858  44.465  1.00  0.00    -0.011 C
HETATM    3  C3  UNL     1      57.720  20.068  45.237  1.00  0.00     0.018 C
HETATM    4  C4  UNL     1      57.069  18.342  43.652  1.00  0.00     0.145 C
HETATM    5  N1  UNL     1      57.011  16.915  43.884  1.00  0.00    -0.285 N
HETATM    6  C5  UNL     1      56.434  15.992  42.983  1.00  0.00     0.342 C
HETATM    7  O1  UNL     1      56.444  14.793  43.251  1.00  0.00    -0.245 OA
HETATM    8  N2  UNL     1      55.849  16.474  41.787  1.00  0.00    -0.249 N
ATOM      9  H2  UNL     1      55.860  17.478  41.604  1.00  0.00     0.192 HD
HETATM   10  C7  UNL     1      57.617  16.643  45.166  1.00  0.00     0.117 C
HETATM   11  N6  UNL     1      57.266  15.660  45.876  1.00  0.00    -0.294 N
ATOM     12  H6  UNL     1      56.533  15.043  45.527  1.00  0.00     0.187 HD
HETATM   13  C8  UNL     1      58.604  17.728  45.339  1.00  0.00     0.165 C
ENDROOT
BRANCH   8  14
HETATM   14  N3  UNL     1      55.263  15.633  40.858  1.00  0.00    -0.270 N
HETATM   15  C6  UNL     1      55.527  15.790  39.479  1.00  0.00     0.200 C
HETATM   16  N4  UNL     1      56.398  14.984  38.942  1.00  0.00    -0.372 N
HETATM   17  N5  UNL     1      54.880  16.773  38.686  1.00  0.00    -0.062 NA
ATOM     18  H42 UNL     1      56.863  14.277  39.511  1.00  0.00     0.158 HD
ATOM     19  H41 UNL     1      56.588  15.097  37.946  1.00  0.00     0.158 HD
ATOM     20  H3  UNL     1      54.636  14.892  41.171  1.00  0.00     0.189 HD
ENDBRANCH   8  14
BRANCH  11  21
HETATM   21  N7  UNL     1      57.832  15.384  47.105  1.00  0.00    -0.344 N
ATOM     22  H72 UNL     1      57.489  15.907  47.910  1.00  0.00     0.176 HD
ATOM     23  H71 UNL     1      58.568  14.689  47.230  1.00  0.00     0.176 HD
ENDBRANCH  11  21
BRANCH  13  24
HETATM   24  C9  UNL     1      59.953  17.218  45.192  1.00  0.00     0.185 C
HETATM   25  O2  UNL     1      60.869  17.173  46.054  1.00  0.00    -0.647 OA
HETATM   26  O3  UNL     1      60.336  16.698  43.947  1.00  0.00    -0.647 OA
ENDBRANCH  13  24
TORSDOF 3
ENDMDL