MODEL 2
REMARK VINA RESULT: -7.117850675      2.851      7.631
REMARK  13 active torsions:
REMARK  status: ('A' for Active; 'I' for Inactive)
REMARK    1  A    between atoms: C2_2  and  N1_4
REMARK    2  A    between atoms: N1_4  and  C4_5
REMARK    3  A    between atoms: N1_4  and  C21_38
REMARK    4  A    between atoms: C4_5  and  C5_6
REMARK    5  A    between atoms: C4_5  and  C17_26
REMARK       I    between atoms: C5_6  and  N2_8
REMARK    6  A    between atoms: N2_8  and  C6_10
REMARK    7  A    between atoms: C6_10  and  C7_11
REMARK    8  A    between atoms: C6_10  and  C8_14
REMARK    9  A    between atoms: C6_10  and  C14_23
REMARK   10  A    between atoms: C7_11  and  O2_12
REMARK       I    between atoms: C8_14  and  N3_16
REMARK   11  A    between atoms: N3_16  and  C9_18
REMARK   12  A    between atoms: C18_29  and  C19_30
REMARK   13  A    between atoms: C19_30  and  S1_31
ROOT
HETATM    1  C4  UNL     1      15.833 -14.888  20.408  1.00  0.00     0.255 C
ENDROOT
BRANCH   1   2
HETATM    2  N1  UNL     1      14.675 -15.595  20.066  1.00  0.00    -0.360 N
BRANCH   2   3
HETATM    3  C2  UNL     1      13.833 -16.094  21.068  1.00  0.00    -0.021 C
HETATM    4  C1  UNL     1      13.754 -17.584  21.270  1.00  0.00     0.062 C
HETATM    5  C3  UNL     1      12.516 -15.413  21.329  1.00  0.00     0.062 C
ENDBRANCH   2   3
BRANCH   2   6
HETATM    6  C21 UNL     1      14.482 -16.018  18.735  1.00  0.00     0.022 C
HETATM    7  C22 UNL     1      13.150 -16.490  18.288  1.00  0.00     0.037 C
HETATM    8  C23 UNL     1      15.485 -17.149  18.457  1.00  0.00     0.037 C
HETATM    9  C24 UNL     1      14.853 -14.917  17.747  1.00  0.00     0.037 C
ENDBRANCH   2   6
ENDBRANCH   1   2
BRANCH   1  10
HETATM   10  C5  UNL     1      16.631 -15.309  21.620  1.00  0.00     0.249 C
HETATM   11  O1  UNL     1      16.749 -14.386  22.455  1.00  0.00    -0.271 OA
HETATM   12  N2  UNL     1      17.162 -16.568  21.771  1.00  0.00    -0.339 N
ATOM     13  H2  UNL     1      16.971 -17.163  20.964  1.00  0.00     0.164 HD
BRANCH  12  14
HETATM   14  C6  UNL     1      17.921 -17.258  22.784  1.00  0.00     0.138 C
BRANCH  14  15
HETATM   15  C7  UNL     1      16.942 -18.345  23.296  1.00  0.00     0.205 C
BRANCH  15  16
HETATM   16  O2  UNL     1      15.767 -17.893  23.771  1.00  0.00    -0.398 OA
ATOM     17  H2  UNL     1      15.133 -17.627  23.116  1.00  0.00     0.209 HD
ENDBRANCH  15  16
ENDBRANCH  14  15
BRANCH  14  18
HETATM   18  C8  UNL     1      18.332 -16.357  23.849  1.00  0.00     0.249 C
HETATM   19  O3  UNL     1      17.629 -16.319  24.922  1.00  0.00    -0.271 OA
HETATM   20  N3  UNL     1      19.442 -15.473  23.888  1.00  0.00    -0.354 N
ATOM     21  H3  UNL     1      20.067 -15.446  23.083  1.00  0.00     0.162 HD
BRANCH  20  22
HETATM   22  C9  UNL     1      19.732 -14.608  25.011  1.00  0.00     0.084 C
HETATM   23  C10 UNL     1      20.845 -13.646  24.804  1.00  0.00     0.025 C
HETATM   24  C11 UNL     1      21.113 -13.112  26.189  1.00  0.00     0.002 C
HETATM   25  C12 UNL     1      20.774 -14.243  27.108  1.00  0.00     0.002 C
HETATM   26  C13 UNL     1      20.237 -15.379  26.231  1.00  0.00     0.025 C
ENDBRANCH  20  22
ENDBRANCH  14  18
BRANCH  14  27
HETATM   27  C14 UNL     1      19.108 -18.007  22.239  1.00  0.00     0.017 C
HETATM   28  C15 UNL     1      19.735 -19.001  23.143  1.00  0.00     0.012 C
HETATM   29  C16 UNL     1      18.744 -18.704  20.958  1.00  0.00     0.012 C
ENDBRANCH  14  27
ENDBRANCH  12  14
ENDBRANCH   1  10
BRANCH   1  30
HETATM   30  C17 UNL     1      15.605 -13.406  20.580  1.00  0.00     0.180 A
HETATM   31  N4  UNL     1      14.704 -12.786  21.368  1.00  0.00    -0.324 N
HETATM   32  C18 UNL     1      14.825 -11.454  21.229  1.00  0.00     0.117 A
ATOM     33  H4  UNL     1      14.033 -13.255  21.977  1.00  0.00     0.169 HD
HETATM   34  N5  UNL     1      15.824 -11.268  20.336  1.00  0.00    -0.246 N
HETATM   35  O6  UNL     1      16.239 -12.424  19.992  1.00  0.00    -0.220 OA
ATOM     36  H5  UNL     1      16.178 -10.373  20.001  1.00  0.00     0.196 HD
BRANCH  32  37
HETATM   37  C19 UNL     1      14.085 -10.336  21.854  1.00  0.00     0.218 C
BRANCH  37  38
HETATM   38  S1  UNL     1      12.481 -10.959  22.341  1.00  0.00     0.147 S
HETATM   39  C20 UNL     1      11.862 -10.013  23.724  1.00  0.00     0.161 C
HETATM   40  O4  UNL     1      12.662 -12.378  22.840  1.00  0.00    -0.228 OA
HETATM   41  O5  UNL     1      11.507 -10.907  21.223  1.00  0.00    -0.228 OA
ENDBRANCH  37  38
ENDBRANCH  32  37
ENDBRANCH   1  30
TORSDOF 13
ENDMDL