MODEL 5
REMARK VINA RESULT: -7.739884591      1.367      2.217
REMARK  13 active torsions:
REMARK  status: ('A' for Active; 'I' for Inactive)
REMARK    1  A    between atoms: O1_2  and  C2_3
REMARK    2  A    between atoms: C2_3  and  C3_5
REMARK    3  A    between atoms: N1_10  and  C7_11
REMARK    4  A    between atoms: C7_11  and  C8_12
REMARK    5  A    between atoms: C7_11  and  C9_15
REMARK    6  A    between atoms: C8_12  and  O3_13
REMARK    7  A    between atoms: C9_15  and  C10_16
REMARK    8  A    between atoms: C10_16  and  C11_17
REMARK    9  A    between atoms: C11_17  and  N2_18
REMARK       I    between atoms: N2_18  and  C12_20
REMARK   10  A    between atoms: C12_20  and  C13_22
REMARK   11  A    between atoms: C20_29  and  C21_30
REMARK   12  A    between atoms: C21_30  and  C22_31
REMARK   13  A    between atoms: C27_37  and  O5_38
ROOT
HETATM    1  N2  UNL     1      15.807 -17.934  20.580  1.00  0.00    -0.361 N
ATOM      2  H2  UNL     1      16.779 -17.917  20.274  1.00  0.00     0.162 HD
HETATM    3  C12 UNL     1      15.556 -17.945  21.953  1.00  0.00     0.226 C
HETATM    4  O4  UNL     1      14.405 -17.957  22.428  1.00  0.00    -0.273 OA
ENDROOT
BRANCH   3   5
HETATM    5  C13 UNL     1      16.688 -17.941  22.917  1.00  0.00     0.126 C
HETATM    6  C14 UNL     1      17.500 -19.212  22.875  1.00  0.00     0.018 C
HETATM    7  C15 UNL     1      18.795 -19.066  22.162  1.00  0.00     0.003 C
HETATM    8  C16 UNL     1      19.888 -18.320  22.734  1.00  0.00     0.026 C
HETATM    9  C17 UNL     1      19.696 -17.302  23.799  1.00  0.00     0.090 C
HETATM   10  C18 UNL     1      19.899 -17.889  25.126  1.00  0.00     0.018 A
HETATM   11  N3  UNL     1      18.442 -16.635  23.825  1.00  0.00    -0.362 N
HETATM   12  C19 UNL     1      20.842 -17.777  26.159  1.00  0.00     0.017 A
HETATM   13  C20 UNL     1      19.996 -16.649  26.052  1.00  0.00    -0.030 A
HETATM   14  C25 UNL     1      18.555 -16.407  26.311  1.00  0.00     0.054 C
HETATM   15  C26 UNL     1      17.929 -16.092  24.984  1.00  0.00     0.062 C
HETATM   16  C27 UNL     1      17.588 -16.762  22.714  1.00  0.00     0.232 C
BRANCH  13  17
HETATM   17  C21 UNL     1      20.655 -15.381  25.573  1.00  0.00     0.015 C
BRANCH  17  18
HETATM   18  C22 UNL     1      20.697 -14.462  26.809  1.00  0.00    -0.014 A
HETATM   19  C23 UNL     1      22.139 -14.193  27.270  1.00  0.00     0.005 A
HETATM   20  C24 UNL     1      21.235 -13.119  26.761  1.00  0.00     0.005 A
ENDBRANCH  17  18
ENDBRANCH  13  17
BRANCH  16  21
HETATM   21  O5  UNL     1      16.747 -15.621  22.687  1.00  0.00    -0.376 OA
ATOM     22  H5  UNL     1      16.941 -15.168  21.874  1.00  0.00     0.212 HD
ENDBRANCH  16  21
ENDBRANCH   3   5
BRANCH   1  23
HETATM   23  C11 UNL     1      14.766 -17.945  19.555  1.00  0.00     0.122 C
BRANCH  23  24
HETATM   24  C10 UNL     1      14.954 -16.844  18.599  1.00  0.00     0.022 C
BRANCH  24  25
HETATM   25  C9  UNL     1      14.017 -15.707  18.702  1.00  0.00     0.028 C
BRANCH  25  26
HETATM   26  C7  UNL     1      13.946 -14.965  19.952  1.00  0.00     0.103 C
BRANCH  26  27
HETATM   27  N1  UNL     1      14.433 -13.601  19.811  1.00  0.00    -0.392 N
HETATM   28  C3  UNL     1      13.677 -12.713  19.064  1.00  0.00     0.189 C
HETATM   29  C4  UNL     1      13.381 -11.463  19.891  1.00  0.00     0.109 C
HETATM   30  S1  UNL     1      14.647 -11.103  21.106  1.00  0.00    -0.165 SA
HETATM   31  C5  UNL     1      15.769 -12.463  21.415  1.00  0.00     0.093 C
HETATM   32  C6  UNL     1      15.756 -13.353  20.163  1.00  0.00     0.128 C
BRANCH  28  33
HETATM   33  C2  UNL     1      14.225 -12.255  17.771  1.00  0.00     0.281 C
HETATM   34  O2  UNL     1      13.785 -11.153  17.326  1.00  0.00    -0.263 OA
BRANCH  33  35
HETATM   35  O1  UNL     1      15.161 -12.907  17.008  1.00  0.00    -0.325 OA
HETATM   36  C1  UNL     1      15.744 -12.338  15.848  1.00  0.00     0.213 C
ENDBRANCH  33  35
ENDBRANCH  28  33
ENDBRANCH  26  27
BRANCH  26  37
HETATM   37  C8  UNL     1      12.697 -14.948  20.720  1.00  0.00     0.189 C
BRANCH  37  38
HETATM   38  O3  UNL     1      12.941 -15.566  22.005  1.00  0.00    -0.399 OA
ATOM     39  H3  UNL     1      12.131 -15.959  22.308  1.00  0.00     0.209 HD
ENDBRANCH  37  38
ENDBRANCH  26  37
ENDBRANCH  25  26
ENDBRANCH  24  25
ENDBRANCH  23  24
ENDBRANCH   1  23
TORSDOF 13
ENDMDL