MODEL 1
REMARK VINA RESULT: -7.734794708      0.000      0.000
REMARK  13 active torsions:
REMARK  status: ('A' for Active; 'I' for Inactive)
REMARK    1  A    between atoms: C4_4  and  C5_5
REMARK    2  A    between atoms: C5_5  and  O1_6
REMARK    3  A    between atoms: O1_6  and  C6_7
REMARK    4  A    between atoms: C7_8  and  C8_9
REMARK    5  A    between atoms: C8_9  and  C9_10
REMARK    6  A    between atoms: C10_11  and  O2_12
REMARK    7  A    between atoms: C11_14  and  O3_15
REMARK    8  A    between atoms: C12_17  and  N1_18
REMARK    9  A    between atoms: N1_18  and  C14_20
REMARK   10  A    between atoms: C14_20  and  C15_21
REMARK   11  A    between atoms: C15_21  and  C16_22
REMARK   12  A    between atoms: C16_22  and  C17_23
REMARK   13  A    between atoms: C17_23  and  N2_24
ROOT
HETATM    1  C9  UNL     1      13.057 -14.507  21.005  1.00  0.00     0.116 C
HETATM    2  C10 UNL     1      14.496 -15.028  20.972  1.00  0.00     0.171 C
HETATM    3  C11 UNL     1      15.519 -14.142  21.566  1.00  0.00     0.173 C
HETATM    4  C12 UNL     1      15.483 -12.734  21.078  1.00  0.00     0.132 C
HETATM    5  C22 UNL     1      14.113 -12.359  20.556  1.00  0.00     0.104 C
HETATM    6  C23 UNL     1      13.894 -10.881  20.890  1.00  0.00     0.027 C
HETATM    7  C24 UNL     1      13.349 -10.750  22.309  1.00  0.00     0.004 C
HETATM    8  C25 UNL     1      11.941 -11.245  22.343  1.00  0.00     0.019 C
HETATM    9  C26 UNL     1      11.857 -12.427  21.353  1.00  0.00     0.118 C
HETATM   10  N3  UNL     1      13.086 -13.112  21.199  1.00  0.00    -0.399 N
ENDROOT
BRANCH   1  11
HETATM   11  C8  UNL     1      12.455 -15.053  19.753  1.00  0.00     0.087 C
BRANCH  11  12
HETATM   12  C7  UNL     1      12.380 -16.486  19.546  1.00  0.00     0.049 A
HETATM   13  C6  UNL     1      12.949 -17.083  18.445  1.00  0.00     0.141 A
HETATM   14  C29 UNL     1      12.820 -18.476  18.325  1.00  0.00     0.208 A
HETATM   15  C28 UNL     1      12.154 -19.208  19.258  1.00  0.00     0.075 A
HETATM   16  O5  UNL     1      13.323 -19.107  17.332  1.00  0.00    -0.285 OA
HETATM   17  C27 UNL     1      11.606 -18.555  20.337  1.00  0.00     0.092 A
HETATM   18  N4  UNL     1      11.740 -17.231  20.437  1.00  0.00    -0.367 N
ATOM     19  H4  UNL     1      11.327 -16.766  21.245  1.00  0.00     0.165 HD
BRANCH  13  20
HETATM   20  O1  UNL     1      13.616 -16.445  17.459  1.00  0.00    -0.342 OA
BRANCH  20  21
HETATM   21  C5  UNL     1      14.845 -15.918  17.248  1.00  0.00     0.203 C
BRANCH  21  22
HETATM   22  C4  UNL     1      15.752 -16.679  16.408  1.00  0.00     0.002 C
HETATM   23  C2  UNL     1      16.296 -16.211  15.310  1.00  0.00    -0.089 C
HETATM   24  C1  UNL     1      16.065 -14.859  14.775  1.00  0.00     0.042 C
HETATM   25  C3  UNL     1      17.247 -17.066  14.503  1.00  0.00     0.042 C
ENDBRANCH  21  22
ENDBRANCH  20  21
ENDBRANCH  13  20
ENDBRANCH  11  12
ENDBRANCH   1  11
BRANCH   2  26
HETATM   26  O2  UNL     1      14.551 -16.242  21.698  1.00  0.00    -0.391 OA
ATOM     27  H2  UNL     1      14.745 -16.041  22.606  1.00  0.00     0.210 HD
ENDBRANCH   2  26
BRANCH   3  28
HETATM   28  O3  UNL     1      16.757 -14.785  21.422  1.00  0.00    -0.391 OA
ATOM     29  H3  UNL     1      17.317 -14.476  22.124  1.00  0.00     0.210 HD
ENDBRANCH   3  28
BRANCH   4  30
HETATM   30  N1  UNL     1      16.520 -12.383  20.233  1.00  0.00    -0.408 N
HETATM   31  C13 UNL     1      16.373 -11.992  18.911  1.00  0.00     0.143 C
BRANCH  30  32
HETATM   32  C14 UNL     1      17.659 -11.858  20.898  1.00  0.00     0.117 C
BRANCH  32  33
HETATM   33  C15 UNL     1      18.942 -12.036  20.156  1.00  0.00     0.021 C
BRANCH  33  34
HETATM   34  C16 UNL     1      19.773 -13.106  20.806  1.00  0.00     0.032 C
BRANCH  34  35
HETATM   35  C17 UNL     1      19.521 -13.209  22.291  1.00  0.00     0.272 C
BRANCH  35  36
HETATM   36  N2  UNL     1      20.040 -14.404  22.899  1.00  0.00     0.092 N
HETATM   37  C18 UNL     1      19.939 -15.537  21.992  1.00  0.00     0.298 C
HETATM   38  C19 UNL     1      19.368 -16.739  22.674  1.00  0.00     0.198 C
HETATM   39  O4  UNL     1      18.221 -16.431  23.391  1.00  0.00    -0.388 OA
HETATM   40  C20 UNL     1      18.459 -15.543  24.424  1.00  0.00     0.198 C
HETATM   41  C21 UNL     1      19.652 -14.670  24.237  1.00  0.00     0.298 C
ENDBRANCH  35  36
ENDBRANCH  34  35
ENDBRANCH  33  34
ENDBRANCH  32  33
ENDBRANCH  30  32
ENDBRANCH   4  30
TORSDOF 13
ENDMDL