MODEL 2
REMARK VINA RESULT: -7.187019922      3.323      6.532
REMARK  16 active torsions:
REMARK  status: ('A' for Active; 'I' for Inactive)
REMARK    1  A    between atoms: C3_3  and  C4_4
REMARK    2  A    between atoms: C4_4  and  C5_5
REMARK    3  A    between atoms: C5_5  and  C6_6
REMARK    4  A    between atoms: C6_6  and  C7_7
REMARK    5  A    between atoms: C7_7  and  C8_8
REMARK    6  A    between atoms: C8_8  and  C9_9
REMARK    7  A    between atoms: C9_9  and  C10_10
REMARK    8  A    between atoms: C10_10  and  C11_11
REMARK    9  A    between atoms: C11_11  and  C12_12
REMARK   10  A    between atoms: C12_12  and  C13_13
REMARK   11  A    between atoms: C15_15  and  N1_16
REMARK   12  A    between atoms: N3_23  and  C18_24
REMARK   13  A    between atoms: N5_30  and  C20_31
REMARK   14  A    between atoms: C20_31  and  C22_34
REMARK   15  A    between atoms: C22_34  and  O3_35
REMARK   16  A    between atoms: C24_39  and  C25_40
ROOT
HETATM    1  C1  UNL     1      20.060 -12.267  20.148  1.00  0.00     0.012 C
HETATM    2  C2  UNL     1      19.151 -12.608  20.866  1.00  0.00    -0.117 C
HETATM    3  C3  UNL     1      18.039 -13.019  21.718  1.00  0.00     0.093 C
ENDROOT
BRANCH   3   4
HETATM    4  C4  UNL     1      16.793 -13.158  20.882  1.00  0.00     0.012 C
BRANCH   4   5
HETATM    5  C5  UNL     1      16.531 -11.854  20.160  1.00  0.00     0.001 C
BRANCH   5   6
HETATM    6  C6  UNL     1      15.056 -11.579  20.031  1.00  0.00     0.000 C
BRANCH   6   7
HETATM    7  C7  UNL     1      14.503 -10.724  21.135  1.00  0.00     0.000 C
BRANCH   7   8
HETATM    8  C8  UNL     1      13.007 -10.749  21.203  1.00  0.00     0.001 C
BRANCH   8   9
HETATM    9  C9  UNL     1      12.604 -10.901  22.646  1.00  0.00     0.012 C
BRANCH   9  10
HETATM   10  C10 UNL     1      11.869 -12.212  22.883  1.00  0.00     0.094 C
BRANCH  10  11
HETATM   11  C11 UNL     1      12.477 -13.300  22.119  1.00  0.00    -0.100 C
BRANCH  11  12
HETATM   12  C12 UNL     1      12.979 -14.220  21.492  1.00  0.00    -0.049 C
BRANCH  12  13
HETATM   13  C13 UNL     1      13.559 -15.299  20.740  1.00  0.00     0.090 A
HETATM   14  C14 UNL     1      13.015 -15.706  19.540  1.00  0.00     0.070 A
HETATM   15  C15 UNL     1      13.532 -16.735  18.778  1.00  0.00     0.059 A
HETATM   16  C16 UNL     1      14.650 -17.376  19.259  1.00  0.00     0.104 A
HETATM   17  N2  UNL     1      15.407 -18.391  18.806  1.00  0.00    -0.347 N
HETATM   18  C27 UNL     1      15.198 -16.975  20.458  1.00  0.00     0.144 A
HETATM   19  C17 UNL     1      16.384 -18.600  19.699  1.00  0.00     0.192 A
ATOM     20  H2  UNL     1      15.264 -18.909  17.939  1.00  0.00     0.167 HD
HETATM   21  N3  UNL     1      16.280 -17.742  20.726  1.00  0.00    -0.279 N
HETATM   22  N7  UNL     1      14.648 -15.961  21.158  1.00  0.00    -0.333 N
ATOM     23  H7  UNL     1      15.077 -15.687  22.041  1.00  0.00     0.168 HD
BRANCH  15  24
HETATM   24  N1  UNL     1      13.001 -17.098  17.654  1.00  0.00    -0.397 N
ATOM     25  H12 UNL     1      12.318 -16.500  17.189  1.00  0.00     0.156 HD
ATOM     26  H11 UNL     1      13.240 -17.978  17.198  1.00  0.00     0.156 HD
ENDBRANCH  15  24
BRANCH  21  27
HETATM   27  C18 UNL     1      17.105 -17.607  21.898  1.00  0.00     0.124 C
HETATM   28  N4  UNL     1      16.368 -17.679  22.963  1.00  0.00    -0.242 N
HETATM   29  O1  UNL     1      16.812 -17.592  24.261  1.00  0.00    -0.179 OA
ATOM     30  H4  UNL     1      15.367 -17.813  22.824  1.00  0.00     0.196 HD
HETATM   31  C19 UNL     1      17.867 -16.790  24.686  1.00  0.00     0.393 C
HETATM   32  O2  UNL     1      17.744 -16.258  25.844  1.00  0.00    -0.236 OA
HETATM   33  N5  UNL     1      19.067 -16.493  23.985  1.00  0.00    -0.241 N
HETATM   34  C23 UNL     1      19.259 -16.567  22.583  1.00  0.00     0.241 C
HETATM   35  O4  UNL     1      20.166 -15.802  22.094  1.00  0.00    -0.272 OA
HETATM   36  C24 UNL     1      18.528 -17.428  21.631  1.00  0.00     0.148 C
BRANCH  33  37
HETATM   37  C20 UNL     1      20.193 -16.083  24.774  1.00  0.00     0.228 C
HETATM   38  C21 UNL     1      20.369 -14.631  24.651  1.00  0.00     0.087 C
HETATM   39  N6  UNL     1      20.515 -13.463  24.576  1.00  0.00    -0.195 NA
BRANCH  37  40
HETATM   40  C22 UNL     1      21.447 -16.768  24.273  1.00  0.00     0.205 C
BRANCH  40  41
HETATM   41  O3  UNL     1      22.412 -15.783  23.952  1.00  0.00    -0.398 OA
ATOM     42  H3  UNL     1      23.244 -16.029  24.340  1.00  0.00     0.209 HD
ENDBRANCH  40  41
ENDBRANCH  37  40
ENDBRANCH  33  37
BRANCH  36  43
HETATM   43  C25 UNL     1      19.266 -18.717  21.379  1.00  0.00     0.017 C
HETATM   44  C26 UNL     1      19.223 -19.681  22.511  1.00  0.00     0.006 C
ENDBRANCH  36  43
ENDBRANCH  21  27
ENDBRANCH  12  13
ENDBRANCH  11  12
ENDBRANCH  10  11
ENDBRANCH   9  10
ENDBRANCH   8   9
ENDBRANCH   7   8
ENDBRANCH   6   7
ENDBRANCH   5   6
ENDBRANCH   4   5
ENDBRANCH   3   4
TORSDOF 16
ENDMDL