MODEL 1
REMARK VINA RESULT: -7.858443093      0.000      0.000
REMARK  15 active torsions:
REMARK  status: ('A' for Active; 'I' for Inactive)
REMARK    1  A    between atoms: C2_2  and  O1_4
REMARK    2  A    between atoms: O1_4  and  C4_5
REMARK    3  A    between atoms: C4_5  and  O3_7
REMARK    4  A    between atoms: O3_7  and  C5_8
REMARK    5  A    between atoms: C5_8  and  C6_9
REMARK    6  A    between atoms: C6_9  and  C7_10
REMARK    7  A    between atoms: C7_10  and  O4_11
REMARK    8  A    between atoms: C7_10  and  C8_13
REMARK    9  A    between atoms: C8_13  and  N1_14
REMARK   10  A    between atoms: N1_14  and  C9_16
REMARK   11  A    between atoms: C9_16  and  C10_18
REMARK   12  A    between atoms: C18_29  and  C19_30
REMARK       I    between atoms: C19_30  and  N3_32
REMARK   13  A    between atoms: C20_34  and  C21_35
REMARK   14  A    between atoms: C21_35  and  C22_36
REMARK   15  A    between atoms: C22_36  and  N4_37
ROOT
HETATM    1  C10 UNL     1      14.724 -15.457  20.883  1.00  0.00     0.259 C
HETATM    2  N2  UNL     1      13.543 -16.106  21.357  1.00  0.00    -0.064 N
ATOM      3  H21 UNL     1      13.446 -15.991  22.366  1.00  0.00     0.278 HD
ATOM      4  H22 UNL     1      13.643 -17.120  21.313  1.00  0.00     0.278 HD
HETATM    5  C11 UNL     1      12.357 -15.684  20.683  1.00  0.00     0.238 C
HETATM    6  C12 UNL     1      12.456 -16.107  19.208  1.00  0.00     0.016 C
HETATM    7  C13 UNL     1      12.295 -17.604  19.235  1.00  0.00     0.007 C
HETATM    8  C14 UNL     1      12.555 -18.131  17.843  1.00  0.00     0.000 C
HETATM    9  C15 UNL     1      14.069 -17.938  17.677  1.00  0.00     0.000 C
HETATM   10  C16 UNL     1      14.301 -16.479  17.517  1.00  0.00     0.006 C
HETATM   11  C17 UNL     1      13.677 -15.603  18.560  1.00  0.00     0.007 C
HETATM   12  C18 UNL     1      14.734 -15.027  19.466  1.00  0.00     0.120 C
ENDROOT
BRANCH   1  13
HETATM   13  C9  UNL     1      15.935 -16.180  21.308  1.00  0.00     0.105 C
HETATM   14  S1  UNL     1      16.315 -17.603  20.643  1.00  0.00    -0.063 SA
BRANCH  13  15
HETATM   15  N1  UNL     1      16.775 -15.638  22.299  1.00  0.00    -0.380 N
ATOM     16  H1  UNL     1      16.538 -15.766  23.283  1.00  0.00     0.160 HD
BRANCH  15  17
HETATM   17  C8  UNL     1      17.970 -14.902  21.947  1.00  0.00     0.152 C
BRANCH  17  18
HETATM   18  C7  UNL     1      19.166 -15.605  22.563  1.00  0.00     0.138 C
BRANCH  18  19
HETATM   19  C6  UNL     1      19.674 -14.895  23.801  1.00  0.00     0.060 C
BRANCH  19  20
HETATM   20  C5  UNL     1      20.745 -13.889  23.473  1.00  0.00     0.183 C
BRANCH  20  21
HETATM   21  O3  UNL     1      22.000 -14.513  23.566  1.00  0.00    -0.298 OA
BRANCH  21  22
HETATM   22  C4  UNL     1      23.057 -14.134  24.334  1.00  0.00     0.406 C
HETATM   23  O2  UNL     1      24.188 -14.060  23.833  1.00  0.00    -0.229 OA
BRANCH  22  24
HETATM   24  O1  UNL     1      22.970 -13.811  25.685  1.00  0.00    -0.293 OA
BRANCH  24  25
HETATM   25  C2  UNL     1      22.195 -14.560  26.599  1.00  0.00     0.126 C
HETATM   26  C1  UNL     1      21.190 -13.592  27.219  1.00  0.00     0.040 C
HETATM   27  C3  UNL     1      23.003 -15.194  27.681  1.00  0.00     0.040 C
ENDBRANCH  24  25
ENDBRANCH  22  24
ENDBRANCH  21  22
ENDBRANCH  20  21
ENDBRANCH  19  20
ENDBRANCH  18  19
BRANCH  18  28
HETATM   28  O4  UNL     1      20.190 -15.546  21.613  1.00  0.00    -0.394 OA
ATOM     29  H4  UNL     1      19.910 -14.931  20.945  1.00  0.00     0.210 HD
ENDBRANCH  18  28
ENDBRANCH  17  18
ENDBRANCH  15  17
ENDBRANCH  13  15
ENDBRANCH   1  13
BRANCH  12  30
HETATM   30  C19 UNL     1      14.828 -13.530  19.310  1.00  0.00     0.228 C
HETATM   31  O5  UNL     1      13.966 -12.974  18.605  1.00  0.00    -0.273 OA
HETATM   32  N3  UNL     1      15.833 -12.774  19.921  1.00  0.00    -0.340 N
HETATM   33  C20 UNL     1      15.737 -11.705  20.587  1.00  0.00     0.065 C
ATOM     34  H3  UNL     1      16.780 -13.139  19.813  1.00  0.00     0.167 HD
BRANCH  33  35
HETATM   35  C21 UNL     1      14.507 -10.951  20.902  1.00  0.00     0.074 C
BRANCH  35  36
HETATM   36  C22 UNL     1      13.681 -11.744  21.900  1.00  0.00     0.277 C
BRANCH  36  37
HETATM   37  N4  UNL     1      12.317 -11.320  21.873  1.00  0.00     0.088 N
HETATM   38  C23 UNL     1      12.081 -10.319  22.871  1.00  0.00     0.272 C
HETATM   39  C24 UNL     1      11.216 -10.908  23.945  1.00  0.00     0.032 C
HETATM   40  C25 UNL     1      11.076 -12.376  23.543  1.00  0.00     0.032 C
HETATM   41  C26 UNL     1      11.371 -12.366  22.055  1.00  0.00     0.272 C
ENDBRANCH  36  37
ENDBRANCH  35  36
ENDBRANCH  33  35
ENDBRANCH  12  30
TORSDOF 15
ENDMDL