MODEL 2
REMARK VINA RESULT: -8.188895121      2.213      3.471
REMARK  13 active torsions:
REMARK  status: ('A' for Active; 'I' for Inactive)
REMARK    1  A    between atoms: O1_2  and  C2_3
REMARK    2  A    between atoms: C2_3  and  C3_5
REMARK    3  A    between atoms: C3_5  and  N1_6
REMARK    4  A    between atoms: C3_5  and  C24_38
REMARK       I    between atoms: N1_6  and  C4_8
REMARK    5  A    between atoms: C4_8  and  C5_10
REMARK    6  A    between atoms: C5_10  and  N2_11
REMARK    7  A    between atoms: C5_10  and  C21_35
REMARK       I    between atoms: N2_11  and  C6_13
REMARK    8  A    between atoms: C6_13  and  C7_15
REMARK    9  A    between atoms: C7_15  and  C8_16
REMARK   10  A    between atoms: C7_15  and  N3_20
REMARK   11  A    between atoms: C8_16  and  C9_17
REMARK       I    between atoms: N3_20  and  C12_21
REMARK   12  A    between atoms: C12_21  and  O6_23
REMARK   13  A    between atoms: O6_23  and  C13_24
ROOT
HETATM    1  N2  UNL     1      16.882 -16.063  22.280  1.00  0.00    -0.345 N
ATOM      2  H2  UNL     1      16.631 -15.148  21.905  1.00  0.00     0.163 HD
HETATM    3  C6  UNL     1      18.012 -16.091  23.107  1.00  0.00     0.254 C
HETATM    4  O4  UNL     1      18.405 -17.153  23.618  1.00  0.00    -0.270 OA
ENDROOT
BRANCH   3   5
HETATM    5  C7  UNL     1      18.799 -14.821  23.416  1.00  0.00     0.261 C
BRANCH   5   6
HETATM    6  C8  UNL     1      19.416 -14.289  22.163  1.00  0.00     0.053 C
BRANCH   6   7
HETATM    7  C9  UNL     1      19.048 -12.949  21.691  1.00  0.00    -0.019 C
HETATM    8  C10 UNL     1      19.971 -12.689  20.466  1.00  0.00     0.009 C
HETATM    9  C11 UNL     1      17.654 -12.805  21.111  1.00  0.00     0.009 C
ENDBRANCH   6   7
ENDBRANCH   5   6
BRANCH   5  10
HETATM   10  N3  UNL     1      19.578 -15.013  24.537  1.00  0.00    -0.375 NA
HETATM   11  C12 UNL     1      20.333 -15.192  25.640  1.00  0.00     0.435 C
HETATM   12  O5  UNL     1      20.185 -14.671  26.800  1.00  0.00    -0.221 OA
BRANCH  11  13
HETATM   13  O6  UNL     1      21.478 -16.049  25.645  1.00  0.00    -0.287 OA
BRANCH  13  14
HETATM   14  C13 UNL     1      22.582 -15.829  24.801  1.00  0.00     0.147 C
HETATM   15  C14 UNL     1      23.415 -14.716  25.387  1.00  0.00     0.136 C
HETATM   16  C15 UNL     1      24.599 -14.368  24.572  1.00  0.00     0.224 C
HETATM   17  O7  UNL     1      24.775 -13.137  24.380  1.00  0.00    -0.273 OA
HETATM   18  N4  UNL     1      25.540 -15.250  23.993  1.00  0.00    -0.335 N
HETATM   19  C16 UNL     1      25.414 -16.446  23.551  1.00  0.00    -0.014 C
ATOM     20  H4  UNL     1      26.482 -14.868  23.915  1.00  0.00     0.168 HD
HETATM   21  C17 UNL     1      26.665 -17.034  23.013  1.00  0.00     0.063 C
HETATM   22  C18 UNL     1      24.185 -17.283  23.522  1.00  0.00     0.059 C
HETATM   23  C19 UNL     1      23.358 -17.140  24.776  1.00  0.00     0.017 C
HETATM   24  C20 UNL     1      22.345 -18.265  24.771  1.00  0.00     0.013 C
ENDBRANCH  13  14
ENDBRANCH  11  13
ENDBRANCH   5  10
ENDBRANCH   3   5
BRANCH   1  25
HETATM   25  C5  UNL     1      16.036 -17.147  21.892  1.00  0.00     0.180 C
BRANCH  25  26
HETATM   26  C4  UNL     1      14.619 -16.683  21.688  1.00  0.00     0.241 C
HETATM   27  N1  UNL     1      14.366 -15.383  21.302  1.00  0.00    -0.345 N
ATOM     28  H1  UNL     1      15.174 -14.775  21.166  1.00  0.00     0.163 HD
HETATM   29  O3  UNL     1      13.666 -17.491  21.871  1.00  0.00    -0.271 OA
BRANCH  27  30
HETATM   30  C3  UNL     1      13.059 -14.799  21.073  1.00  0.00     0.187 C
BRANCH  30  31
HETATM   31  C2  UNL     1      12.879 -13.532  21.798  1.00  0.00     0.281 C
HETATM   32  O2  UNL     1      11.768 -13.123  22.218  1.00  0.00    -0.263 OA
BRANCH  31  33
HETATM   33  O1  UNL     1      13.982 -12.734  22.034  1.00  0.00    -0.325 OA
HETATM   34  C1  UNL     1      14.197 -11.502  21.358  1.00  0.00     0.213 C
ENDBRANCH  31  33
ENDBRANCH  30  31
BRANCH  30  35
HETATM   35  C24 UNL     1      12.751 -14.744  19.615  1.00  0.00     0.010 C
HETATM   36  C25 UNL     1      12.113 -16.005  19.092  1.00  0.00     0.012 C
HETATM   37  C26 UNL     1      13.938 -14.442  18.732  1.00  0.00     0.012 C
ENDBRANCH  30  35
ENDBRANCH  27  30
ENDBRANCH  25  26
BRANCH  25  38
HETATM   38  C21 UNL     1      16.488 -17.770  20.613  1.00  0.00     0.009 C
HETATM   39  C22 UNL     1      15.508 -17.720  19.485  1.00  0.00     0.012 C
HETATM   40  C23 UNL     1      17.008 -19.185  20.822  1.00  0.00     0.012 C
ENDBRANCH  25  38
ENDBRANCH   1  25
TORSDOF 13
ENDMDL