MODEL 5
REMARK VINA RESULT: -7.665383840      2.358      2.923
REMARK  14 active torsions:
REMARK  status: ('A' for Active; 'I' for Inactive)
REMARK    1  A    between atoms: O1_2  and  C2_3
REMARK    2  A    between atoms: C2_3  and  C3_5
REMARK    3  A    between atoms: C3_5  and  C4_6
REMARK    4  A    between atoms: C4_6  and  C5_7
REMARK    5  A    between atoms: C5_7  and  C6_8
REMARK    6  A    between atoms: C6_8  and  C7_9
REMARK    7  A    between atoms: C7_9  and  C8_10
REMARK    8  A    between atoms: C10_12  and  S1_13
REMARK    9  A    between atoms: S1_13  and  C11_14
REMARK   10  A    between atoms: C12_15  and  C13_16
REMARK   11  A    between atoms: C15_22  and  C16_23
REMARK   12  A    between atoms: C16_23  and  O6_25
REMARK   13  A    between atoms: C22_31  and  C23_32
REMARK       I    between atoms: C23_32  and  N2_34
REMARK   14  A    between atoms: N2_34  and  C24_36
ROOT
HETATM    1  C8  UNL     1      19.435 -15.919  24.882  1.00  0.00    -0.000 C
HETATM    2  C9  UNL     1      19.248 -14.912  23.781  1.00  0.00     0.021 C
HETATM    3  C10 UNL     1      17.784 -15.052  23.339  1.00  0.00     0.053 C
HETATM    4  C21 UNL     1      17.581 -16.594  23.574  1.00  0.00     0.030 C
HETATM    5  C22 UNL     1      18.178 -16.698  24.933  1.00  0.00     0.083 C
ENDROOT
BRANCH   3   6
HETATM    6  S1  UNL     1      17.589 -14.648  21.678  1.00  0.00    -0.126 SA
BRANCH   6   7
HETATM    7  C11 UNL     1      16.293 -13.752  20.998  1.00  0.00     0.018 C
HETATM    8  C12 UNL     1      16.191 -12.678  20.242  1.00  0.00     0.128 C
HETATM    9  N1  UNL     1      14.798 -12.386  19.948  1.00  0.00    -0.304 N
HETATM   10  C14 UNL     1      13.575 -11.784  19.552  1.00  0.00     0.233 C
HETATM   11  C18 UNL     1      14.023 -13.551  20.315  1.00  0.00     0.117 C
HETATM   12  O5  UNL     1      13.275 -10.947  18.684  1.00  0.00    -0.272 OA
HETATM   13  C15 UNL     1      12.914 -12.615  20.630  1.00  0.00     0.130 C
HETATM   14  C19 UNL     1      14.830 -14.153  21.383  1.00  0.00     0.048 C
HETATM   15  C20 UNL     1      14.824 -15.667  21.239  1.00  0.00     0.018 C
BRANCH   8  16
HETATM   16  C13 UNL     1      17.229 -11.816  19.691  1.00  0.00     0.228 C
HETATM   17  O3  UNL     1      18.275 -11.504  20.262  1.00  0.00    -0.643 OA
HETATM   18  O4  UNL     1      17.060 -11.268  18.386  1.00  0.00    -0.643 OA
ENDBRANCH   8  16
BRANCH  13  19
HETATM   19  C16 UNL     1      12.895 -11.913  21.944  1.00  0.00     0.129 C
HETATM   20  C17 UNL     1      11.699 -12.456  22.737  1.00  0.00     0.040 C
BRANCH  19  21
HETATM   21  O6  UNL     1      12.650 -10.545  21.826  1.00  0.00    -0.395 OA
ATOM     22  H6  UNL     1      12.626 -10.098  22.665  1.00  0.00     0.210 HD
ENDBRANCH  19  21
ENDBRANCH  13  19
ENDBRANCH   6   7
ENDBRANCH   3   6
BRANCH   1  23
HETATM   23  C7  UNL     1      19.762 -15.241  26.205  1.00  0.00     0.005 C
BRANCH  23  24
HETATM   24  C6  UNL     1      20.418 -13.908  25.987  1.00  0.00     0.000 C
BRANCH  24  25
HETATM   25  C5  UNL     1      21.463 -13.660  27.039  1.00  0.00     0.001 C
BRANCH  25  26
HETATM   26  C4  UNL     1      22.693 -14.508  26.698  1.00  0.00     0.010 C
BRANCH  26  27
HETATM   27  C3  UNL     1      23.230 -14.138  25.342  1.00  0.00     0.111 C
BRANCH  27  28
HETATM   28  C2  UNL     1      23.589 -15.346  24.566  1.00  0.00     0.258 C
HETATM   29  O2  UNL     1      22.989 -16.418  24.835  1.00  0.00    -0.265 OA
BRANCH  28  30
HETATM   30  O1  UNL     1      24.550 -15.303  23.578  1.00  0.00    -0.326 OA
HETATM   31  C1  UNL     1      25.512 -16.340  23.402  1.00  0.00     0.213 C
ENDBRANCH  28  30
ENDBRANCH  27  28
ENDBRANCH  26  27
ENDBRANCH  25  26
ENDBRANCH  24  25
ENDBRANCH  23  24
ENDBRANCH   1  23
BRANCH   5  32
HETATM   32  C23 UNL     1      18.369 -18.104  25.376  1.00  0.00     0.222 C
HETATM   33  O7  UNL     1      18.759 -18.936  24.511  1.00  0.00    -0.273 OA
HETATM   34  N2  UNL     1      18.136 -18.536  26.694  1.00  0.00    -0.357 N
ATOM     35  H2  UNL     1      17.819 -17.866  27.395  1.00  0.00     0.162 HD
BRANCH  34  36
HETATM   36  C24 UNL     1      18.340 -19.915  27.067  1.00  0.00     0.076 C
HETATM   37  C25 UNL     1      19.142 -20.049  28.326  1.00  0.00     0.032 C
HETATM   38  C26 UNL     1      17.012 -20.629  27.295  1.00  0.00     0.032 C
ENDBRANCH  34  36
ENDBRANCH   5  32
TORSDOF 14
ENDMDL