MODEL 2
REMARK VINA RESULT: -6.218641649      5.403      7.747
REMARK  17 active torsions:
REMARK  status: ('A' for Active; 'I' for Inactive)
REMARK    1  A    between atoms: O1_2  and  C2_3
REMARK    2  A    between atoms: C2_3  and  C3_5
REMARK    3  A    between atoms: C3_5  and  C4_6
REMARK    4  A    between atoms: C4_6  and  C5_7
REMARK    5  A    between atoms: C5_7  and  C6_8
REMARK    6  A    between atoms: C6_8  and  C7_9
REMARK    7  A    between atoms: C7_9  and  C8_10
REMARK    8  A    between atoms: C9_13  and  O3_14
REMARK    9  A    between atoms: C10_16  and  C11_17
REMARK   10  A    between atoms: C14_21  and  O5_22
REMARK   11  A    between atoms: C15_24  and  C16_25
REMARK   12  A    between atoms: C16_25  and  C17_26
REMARK   13  A    between atoms: C20_31  and  O6_32
REMARK   14  A    between atoms: C21_34  and  C22_35
REMARK   15  A    between atoms: C22_35  and  C23_36
REMARK   16  A    between atoms: C24_38  and  C25_39
REMARK   17  A    between atoms: C27_42  and  O8_43
ROOT
HETATM    1  C25 UNL     1      18.176 -18.782  26.749  1.00  0.00     0.161 C
HETATM    2  C26 UNL     1      19.285 -19.608  26.334  1.00  0.00     0.063 C
HETATM    3  N3  UNL     1      20.185 -20.267  26.024  1.00  0.00    -0.197 NA
ENDROOT
BRANCH   1   4
HETATM    4  C24 UNL     1      17.508 -18.106  25.560  1.00  0.00    -0.022 C
HETATM    5  C21 UNL     1      16.631 -18.713  24.782  1.00  0.00     0.024 C
HETATM    6  C20 UNL     1      15.886 -18.281  23.623  1.00  0.00     0.151 C
HETATM    7  N2  UNL     1      15.776 -17.202  22.752  1.00  0.00    -0.336 N
HETATM    8  C15 UNL     1      16.404 -16.574  21.657  1.00  0.00     0.070 C
ATOM      9  H2  UNL     1      14.937 -16.674  22.994  1.00  0.00     0.168 HD
HETATM   10  C14 UNL     1      17.826 -16.241  21.629  1.00  0.00     0.202 C
HETATM   11  O4  UNL     1      18.790 -17.174  21.469  1.00  0.00    -0.315 OA
HETATM   12  C10 UNL     1      19.506 -18.008  22.326  1.00  0.00     0.208 C
HETATM   13  C9  UNL     1      20.411 -17.312  23.277  1.00  0.00     0.142 C
HETATM   14  N1  UNL     1      20.345 -17.181  24.666  1.00  0.00    -0.365 N
HETATM   15  C8  UNL     1      19.492 -16.532  25.580  1.00  0.00     0.116 C
ATOM     16  H1  UNL     1      21.102 -17.679  25.134  1.00  0.00     0.161 HD
HETATM   17  C27 UNL     1      18.006 -16.738  25.456  1.00  0.00     0.171 C
BRANCH   5  18
HETATM   18  C22 UNL     1      16.444 -20.133  25.288  1.00  0.00     0.057 C
BRANCH  18  19
HETATM   19  C23 UNL     1      15.303 -20.518  25.763  1.00  0.00     0.259 C
HETATM   20  O7  UNL     1      14.072 -20.677  25.773  1.00  0.00    -0.302 OA
ENDBRANCH  18  19
ENDBRANCH   5  18
BRANCH   6  21
HETATM   21  O6  UNL     1      15.018 -19.243  23.295  1.00  0.00    -0.345 OA
ATOM     22  H6  UNL     1      15.059 -19.429  22.364  1.00  0.00     0.219 HD
ENDBRANCH   6  21
BRANCH   8  23
HETATM   23  C16 UNL     1      16.041 -17.152  20.271  1.00  0.00     0.066 C
BRANCH  23  24
HETATM   24  C17 UNL     1      14.814 -16.520  19.688  1.00  0.00    -0.017 C
HETATM   25  C18 UNL     1      14.806 -15.007  19.867  1.00  0.00     0.010 C
HETATM   26  C19 UNL     1      14.871 -16.734  18.171  1.00  0.00     0.010 C
ENDBRANCH  23  24
ENDBRANCH   8  23
BRANCH  10  27
HETATM   27  O5  UNL     1      18.102 -14.970  21.767  1.00  0.00    -0.339 OA
ATOM     28  H5  UNL     1      17.462 -14.291  21.589  1.00  0.00     0.220 HD
ENDBRANCH  10  27
BRANCH  12  29
HETATM   29  C11 UNL     1      20.358 -18.924  21.399  1.00  0.00     0.015 C
HETATM   30  C12 UNL     1      19.548 -19.392  20.239  1.00  0.00     0.012 C
HETATM   31  C13 UNL     1      21.000 -20.049  22.103  1.00  0.00     0.012 C
ENDBRANCH  12  29
BRANCH  13  32
HETATM   32  O3  UNL     1      21.390 -16.771  22.613  1.00  0.00    -0.348 OA
ATOM     33  H3  UNL     1      21.227 -16.038  22.031  1.00  0.00     0.219 HD
ENDBRANCH  13  32
BRANCH  15  34
HETATM   34  C7  UNL     1      19.759 -15.061  25.724  1.00  0.00     0.028 C
BRANCH  34  35
HETATM   35  C6  UNL     1      20.426 -14.526  26.905  1.00  0.00     0.002 C
BRANCH  35  36
HETATM   36  C5  UNL     1      21.453 -13.462  26.771  1.00  0.00     0.001 C
BRANCH  36  37
HETATM   37  C4  UNL     1      22.080 -13.634  25.382  1.00  0.00     0.010 C
BRANCH  37  38
HETATM   38  C3  UNL     1      23.471 -14.142  25.405  1.00  0.00     0.111 C
BRANCH  38  39
HETATM   39  C2  UNL     1      23.577 -15.453  24.738  1.00  0.00     0.258 C
HETATM   40  O2  UNL     1      24.092 -15.632  23.619  1.00  0.00    -0.265 OA
BRANCH  39  41
HETATM   41  O1  UNL     1      23.066 -16.583  25.395  1.00  0.00    -0.326 OA
HETATM   42  C1  UNL     1      23.426 -16.795  26.732  1.00  0.00     0.213 C
ENDBRANCH  39  41
ENDBRANCH  38  39
ENDBRANCH  37  38
ENDBRANCH  36  37
ENDBRANCH  35  36
ENDBRANCH  34  35
ENDBRANCH  15  34
BRANCH  17  43
HETATM   43  O8  UNL     1      17.336 -16.017  26.491  1.00  0.00    -0.389 OA
ATOM     44  H8  UNL     1      17.739 -16.215  27.328  1.00  0.00     0.210 HD
ENDBRANCH  17  43
ENDBRANCH   1   4
TORSDOF 17
ENDMDL