MODEL 2
REMARK VINA RESULT: -7.563750708      0.753      1.196
REMARK  12 active torsions:
REMARK  status: ('A' for Active; 'I' for Inactive)
REMARK    1  A    between atoms: N2_5  and  C4_6
REMARK    2  A    between atoms: C4_6  and  C5_7
REMARK    3  A    between atoms: C5_7  and  C6_8
REMARK    4  A    between atoms: C6_8  and  C7_9
REMARK    5  A    between atoms: C7_9  and  N3_10
REMARK    6  A    between atoms: C10_13  and  C11_14
REMARK    7  A    between atoms: C11_14  and  N4_15
REMARK    8  A    between atoms: N4_15  and  C12_17
REMARK    9  A    between atoms: C15_20  and  N5_21
REMARK   10  A    between atoms: C17_23  and  C18_24
REMARK   11  A    between atoms: C19_27  and  N7_28
REMARK   12  A    between atoms: N7_28  and  C20_30
ROOT
HETATM    1  C12 UNL     1      15.468 -11.295  20.207  1.00  0.00     0.078 C
HETATM    2  C13 UNL     1      14.421 -10.934  21.190  1.00  0.00     0.027 C
HETATM    3  C14 UNL     1      13.799 -12.218  21.628  1.00  0.00     0.029 C
HETATM    4  C15 UNL     1      13.669 -12.927  20.270  1.00  0.00     0.109 C
HETATM    5  C26 UNL     1      15.019 -12.676  19.684  1.00  0.00     0.052 C
ENDROOT
BRANCH   1   6
HETATM    6  N4  UNL     1      16.778 -11.497  20.733  1.00  0.00    -0.417 N
ATOM      7  H4  UNL     1      17.313 -10.735  21.149  1.00  0.00     0.153 HD
BRANCH   6   8
HETATM    8  C11 UNL     1      17.294 -12.809  20.646  1.00  0.00     0.120 C
BRANCH   8   9
HETATM    9  C10 UNL     1      17.945 -13.346  21.892  1.00  0.00     0.033 C
HETATM   10  C9  UNL     1      17.419 -14.764  22.132  1.00  0.00     0.038 C
HETATM   11  C8  UNL     1      18.636 -15.648  22.076  1.00  0.00     0.273 C
HETATM   12  N3  UNL     1      19.698 -14.771  22.554  1.00  0.00     0.088 N
HETATM   13  C27 UNL     1      19.416 -13.563  21.762  1.00  0.00     0.278 C
BRANCH  12  14
HETATM   14  C7  UNL     1      19.445 -14.521  23.958  1.00  0.00     0.272 C
BRANCH  14  15
HETATM   15  C6  UNL     1      20.585 -13.747  24.611  1.00  0.00     0.032 C
BRANCH  15  16
HETATM   16  C5  UNL     1      20.604 -14.164  26.065  1.00  0.00     0.021 C
BRANCH  16  17
HETATM   17  C4  UNL     1      20.387 -15.642  26.171  1.00  0.00     0.117 C
BRANCH  17  18
HETATM   18  N2  UNL     1      21.570 -16.432  26.220  1.00  0.00    -0.409 N
HETATM   19  C3  UNL     1      22.731 -15.820  26.763  1.00  0.00     0.147 C
HETATM   20  C2  UNL     1      23.933 -16.696  26.380  1.00  0.00     0.291 C
HETATM   21  N1  UNL     1      24.152 -16.489  24.970  1.00  0.00     0.087 N
HETATM   22  C1  UNL     1      24.590 -15.119  24.787  1.00  0.00     0.310 C
HETATM   23  C29 UNL     1      22.947 -16.691  24.194  1.00  0.00     0.291 C
HETATM   24  C28 UNL     1      21.805 -17.208  25.030  1.00  0.00     0.147 C
ENDBRANCH  17  18
ENDBRANCH  16  17
ENDBRANCH  15  16
ENDBRANCH  14  15
ENDBRANCH  12  14
ENDBRANCH   8   9
ENDBRANCH   6   8
ENDBRANCH   1   6
BRANCH   4  25
HETATM   25  N5  UNL     1      13.358 -14.321  20.460  1.00  0.00    -0.296 N
HETATM   26  C16 UNL     1      12.457 -15.094  19.833  1.00  0.00     0.131 A
HETATM   27  C17 UNL     1      12.519 -16.376  20.366  1.00  0.00     0.091 A
HETATM   28  C19 UNL     1      13.492 -16.341  21.334  1.00  0.00     0.133 A
HETATM   29  N8  UNL     1      13.974 -15.089  21.362  1.00  0.00    -0.283 N
ATOM     30  H8  UNL     1      14.711 -14.767  21.988  1.00  0.00     0.189 HD
BRANCH  27  31
HETATM   31  C18 UNL     1      11.681 -17.501  19.945  1.00  0.00     0.270 C
HETATM   32  N6  UNL     1      10.847 -17.377  18.806  1.00  0.00    -0.057 NA
HETATM   33  O1  UNL     1      11.731 -18.579  20.633  1.00  0.00    -0.271 OA
ENDBRANCH  27  31
BRANCH  28  34
HETATM   34  N7  UNL     1      13.836 -17.349  22.053  1.00  0.00    -0.370 N
ATOM     35  H7  UNL     1      13.112 -17.836  22.581  1.00  0.00     0.161 HD
BRANCH  34  36
HETATM   36  C20 UNL     1      15.197 -17.828  22.151  1.00  0.00     0.083 C
HETATM   37  C21 UNL     1      15.332 -18.909  23.176  1.00  0.00     0.025 C
HETATM   38  C22 UNL     1      15.481 -20.288  22.564  1.00  0.00     0.002 C
HETATM   39  C23 UNL     1      14.690 -20.393  21.279  1.00  0.00     0.000 C
HETATM   40  C24 UNL     1      15.269 -19.459  20.237  1.00  0.00     0.002 C
HETATM   41  C25 UNL     1      15.808 -18.191  20.832  1.00  0.00     0.025 C
ENDBRANCH  34  36
ENDBRANCH  28  34
ENDBRANCH   4  25
TORSDOF 12
ENDMDL