MODEL 5
REMARK VINA RESULT: -7.641776466      2.878     10.454
REMARK  12 active torsions:
REMARK  status: ('A' for Active; 'I' for Inactive)
REMARK    1  A    between atoms: C2_2  and  C3_3
REMARK    2  A    between atoms: C3_3  and  N1_4
REMARK    3  A    between atoms: C4_5  and  S1_6
REMARK    4  A    between atoms: S1_6  and  C5_7
REMARK    5  A    between atoms: C5_7  and  C6_8
REMARK       I    between atoms: C6_8  and  N2_10
REMARK    6  A    between atoms: N2_10  and  C7_12
REMARK    7  A    between atoms: C11_16  and  C12_17
REMARK       I    between atoms: C12_17  and  N3_19
REMARK    8  A    between atoms: N3_19  and  C13_21
REMARK    9  A    between atoms: C13_21  and  C15_23
REMARK       I    between atoms: C15_23  and  N4_25
REMARK   10  A    between atoms: N4_25  and  C16_27
REMARK   11  A    between atoms: C19_30  and  C20_31
REMARK   12  A    between atoms: C22_38  and  C23_39
ROOT
HETATM    1  C7  UNL     1      18.425 -16.684  24.179  1.00  0.00     0.122 C
HETATM    2  C8  UNL     1      17.817 -16.100  25.473  1.00  0.00     0.030 C
HETATM    3  C9  UNL     1      18.937 -16.010  26.520  1.00  0.00     0.007 C
HETATM    4  C10 UNL     1      20.070 -16.919  26.048  1.00  0.00     0.045 C
HETATM    5  C11 UNL     1      20.631 -16.152  24.865  1.00  0.00     0.021 C
HETATM    6  C19 UNL     1      19.718 -16.031  23.870  1.00  0.00     0.022 C
ENDROOT
BRANCH   1   7
HETATM    7  N2  UNL     1      17.431 -16.683  23.159  1.00  0.00    -0.352 N
HETATM    8  C6  UNL     1      16.505 -17.713  22.953  1.00  0.00     0.227 C
HETATM    9  O1  UNL     1      16.396 -18.749  23.579  1.00  0.00    -0.273 OA
ATOM     10  H2  UNL     1      17.390 -15.876  22.536  1.00  0.00     0.163 HD
BRANCH   8  11
HETATM   11  C5  UNL     1      15.510 -17.537  21.825  1.00  0.00     0.185 C
BRANCH  11  12
HETATM   12  S1  UNL     1      15.817 -16.053  20.877  1.00  0.00    -0.083 SA
BRANCH  12  13
HETATM   13  C4  UNL     1      14.603 -14.813  21.267  1.00  0.00     0.163 A
HETATM   14  N1  UNL     1      14.698 -13.486  21.056  1.00  0.00    -0.311 N
HETATM   15  C22 UNL     1      13.553 -12.945  21.556  1.00  0.00     0.108 A
HETATM   16  N6  UNL     1      12.808 -13.986  22.051  1.00  0.00    -0.286 N
HETATM   17  N5  UNL     1      13.442 -15.117  21.877  1.00  0.00    -0.278 N
ATOM     18  H6  UNL     1      11.892 -13.891  22.492  1.00  0.00     0.188 HD
ATOM     19  H5  UNL     1      13.120 -16.045  22.149  1.00  0.00     0.189 HD
BRANCH  14  20
HETATM   20  C3  UNL     1      15.786 -12.812  20.445  1.00  0.00     0.159 C
BRANCH  20  21
HETATM   21  C2  UNL     1      15.648 -12.424  19.028  1.00  0.00    -0.017 C
HETATM   22  C1  UNL     1      14.931 -13.016  18.101  1.00  0.00     0.008 C
ENDBRANCH  20  21
ENDBRANCH  14  20
BRANCH  15  23
HETATM   23  C23 UNL     1      13.082 -11.575  21.675  1.00  0.00     0.009 C
HETATM   24  C24 UNL     1      11.849 -11.523  22.589  1.00  0.00     0.023 C
HETATM   25  C25 UNL     1      14.043 -10.502  21.994  1.00  0.00     0.023 C
HETATM   26  C26 UNL     1      12.489 -11.173  20.305  1.00  0.00     0.023 C
ENDBRANCH  15  23
ENDBRANCH  12  13
ENDBRANCH  11  12
ENDBRANCH   8  11
ENDBRANCH   1   7
BRANCH   6  27
HETATM   27  C20 UNL     1      20.026 -15.246  22.714  1.00  0.00     0.154 C
HETATM   28  C21 UNL     1      19.957 -13.757  22.653  1.00  0.00     0.096 C
HETATM   29  O4  UNL     1      20.401 -15.752  21.623  1.00  0.00    -0.293 OA
ENDBRANCH   6  27
BRANCH   5  30
HETATM   30  C12 UNL     1      21.962 -15.698  24.872  1.00  0.00     0.249 C
HETATM   31  O2  UNL     1      22.441 -14.566  25.099  1.00  0.00    -0.268 OA
HETATM   32  N3  UNL     1      23.025 -16.645  24.587  1.00  0.00    -0.344 N
ATOM     33  H3  UNL     1      22.801 -17.616  24.368  1.00  0.00     0.163 HD
BRANCH  32  34
HETATM   34  C13 UNL     1      24.429 -16.200  24.615  1.00  0.00     0.172 C
HETATM   35  C14 UNL     1      25.100 -16.900  25.798  1.00  0.00     0.042 C
BRANCH  34  36
HETATM   36  C15 UNL     1      25.116 -16.549  23.360  1.00  0.00     0.240 C
HETATM   37  O3  UNL     1      24.455 -17.088  22.433  1.00  0.00    -0.271 OA
HETATM   38  N4  UNL     1      26.504 -16.278  23.209  1.00  0.00    -0.355 N
ATOM     39  H4  UNL     1      27.019 -15.836  23.971  1.00  0.00     0.162 HD
BRANCH  38  40
HETATM   40  C16 UNL     1      27.186 -16.620  21.993  1.00  0.00     0.084 A
HETATM   41  C17 UNL     1      27.914 -17.918  21.947  1.00  0.00     0.027 A
HETATM   42  C18 UNL     1      28.667 -16.591  21.901  1.00  0.00     0.027 A
ENDBRANCH  38  40
ENDBRANCH  34  36
ENDBRANCH  32  34
ENDBRANCH   5  30
TORSDOF 12
ENDMDL