MODEL 2
REMARK VINA RESULT: -7.258338483      1.696      2.443
REMARK  6 active torsions:
REMARK  status: ('A' for Active; 'I' for Inactive)
REMARK    1  A    between atoms: C2_2  and  C3_3
REMARK       I    between atoms: N1_5  and  C5_6
REMARK       I    between atoms: C5_6  and  N4_11
REMARK       I    between atoms: N4_11  and  C7_13
REMARK    2  A    between atoms: C7_13  and  C8_15
REMARK    3  A    between atoms: C8_15  and  N5_17
REMARK       I    between atoms: N5_17  and  C10_19
REMARK       I    between atoms: C10_19  and  N6_21
REMARK    4  A    between atoms: N6_21  and  C11_23
REMARK    5  A    between atoms: C18_30  and  C19_31
REMARK    6  A    between atoms: C19_31  and  N7_32
ROOT
HETATM    1  C3  UNL     1      13.077 -14.117  20.762  1.00  0.00     0.010 C
HETATM    2  C4  UNL     1      13.289 -15.448  21.387  1.00  0.00     0.146 C
HETATM    3  N1  UNL     1      14.063 -16.397  20.647  1.00  0.00    -0.217 N
HETATM    4  C5  UNL     1      14.120 -17.744  21.094  1.00  0.00     0.692 C
HETATM    5  N2  UNL     1      13.138 -18.561  20.759  1.00  0.00    -0.126 N
ATOM      6  H2  UNL     1      13.148 -19.536  21.058  1.00  0.00     0.197 HD
HETATM    7  C6  UNL     1      12.100 -18.071  19.999  1.00  0.00     0.196 C
HETATM    8  N3  UNL     1      11.200 -17.672  19.362  1.00  0.00    -0.171 NA
HETATM    9  N4  UNL     1      15.173 -18.259  21.886  1.00  0.00    -0.157 N
ATOM     10  H4  UNL     1      15.088 -19.242  22.141  1.00  0.00     0.187 HD
HETATM   11  C7  UNL     1      16.301 -17.617  22.366  1.00  0.00     0.258 C
HETATM   12  O1  UNL     1      16.537 -16.418  22.143  1.00  0.00    -0.270 OA
HETATM   13  C16 UNL     1      14.756 -16.017  19.458  1.00  0.00     0.141 C
HETATM   14  C17 UNL     1      13.937 -15.096  18.580  1.00  0.00     0.027 C
HETATM   15  C18 UNL     1      13.304 -13.975  19.328  1.00  0.00     0.021 C
ENDROOT
BRANCH  11  16
HETATM   16  C8  UNL     1      17.315 -18.356  23.186  1.00  0.00     0.175 C
HETATM   17  C9  UNL     1      17.668 -19.685  22.587  1.00  0.00     0.042 C
BRANCH  16  18
HETATM   18  N5  UNL     1      18.500 -17.556  23.344  1.00  0.00    -0.330 N
HETATM   19  C10 UNL     1      18.599 -16.601  24.383  1.00  0.00     0.317 C
HETATM   20  O2  UNL     1      17.657 -16.433  25.177  1.00  0.00    -0.247 OA
HETATM   21  N6  UNL     1      19.806 -15.825  24.505  1.00  0.00    -0.339 N
ATOM     22  H6  UNL     1      20.572 -15.972  23.848  1.00  0.00     0.164 HD
ATOM     23  H5  UNL     1      19.279 -17.679  22.699  1.00  0.00     0.165 HD
BRANCH  21  24
HETATM   24  C11 UNL     1      19.938 -14.839  25.553  1.00  0.00     0.086 C
HETATM   25  C12 UNL     1      20.817 -15.329  26.676  1.00  0.00     0.025 C
HETATM   26  C13 UNL     1      21.328 -14.077  27.322  1.00  0.00     0.002 C
HETATM   27  C14 UNL     1      21.296 -13.007  26.283  1.00  0.00     0.002 C
HETATM   28  C15 UNL     1      20.630 -13.603  25.072  1.00  0.00     0.025 C
ENDBRANCH  21  24
ENDBRANCH  16  18
ENDBRANCH  11  16
BRANCH   1  29
HETATM   29  C2  UNL     1      13.571 -13.064  21.706  1.00  0.00     0.002 C
HETATM   30  C1  UNL     1      12.573 -12.167  22.325  1.00  0.00     0.005 C
ENDBRANCH   1  29
BRANCH  15  31
HETATM   31  C19 UNL     1      13.970 -12.682  18.909  1.00  0.00     0.276 C
BRANCH  31  32
HETATM   32  N7  UNL     1      15.276 -12.912  18.315  1.00  0.00     0.080 N
HETATM   33  C20 UNL     1      16.250 -12.202  19.158  1.00  0.00     0.309 C
HETATM   34  C21 UNL     1      15.438 -12.472  16.979  1.00  0.00     0.309 C
ENDBRANCH  31  32
ENDBRANCH  15  31
TORSDOF 6
ENDMDL