MODEL 4
REMARK VINA RESULT: -7.215818351      3.015      8.522
REMARK  9 active torsions:
REMARK  status: ('A' for Active; 'I' for Inactive)
REMARK    1  A    between atoms: C2_2  and  C3_3
REMARK    2  A    between atoms: C3_3  and  N1_4
REMARK    3  A    between atoms: C3_3  and  C9_12
REMARK       I    between atoms: N1_4  and  C4_5
REMARK    4  A    between atoms: C4_5  and  O2_7
REMARK    5  A    between atoms: O2_7  and  C5_8
REMARK       I    between atoms: C9_12  and  N2_14
REMARK    6  A    between atoms: N2_14  and  C10_16
REMARK    7  A    between atoms: C17_23  and  N3_24
REMARK    8  A    between atoms: C21_28  and  C22_29
REMARK    9  A    between atoms: C22_29  and  O4_30
ROOT
HETATM    1  C10 UNL     1      18.261 -16.328  23.761  1.00  0.00     0.092 C
HETATM    2  C11 UNL     1      18.475 -15.991  25.194  1.00  0.00     0.011 C
HETATM    3  C12 UNL     1      18.602 -17.356  25.900  1.00  0.00     0.012 C
HETATM    4  C13 UNL     1      19.877 -17.985  25.447  1.00  0.00    -0.007 C
HETATM    5  C14 UNL     1      20.033 -18.060  23.948  1.00  0.00     0.012 C
HETATM    6  C15 UNL     1      19.567 -16.852  23.239  1.00  0.00     0.011 C
HETATM    7  C16 UNL     1      20.597 -15.715  23.346  1.00  0.00     0.048 C
HETATM    8  C17 UNL     1      20.851 -15.289  24.762  1.00  0.00     0.160 C
HETATM    9  C20 UNL     1      21.750 -16.303  25.398  1.00  0.00     0.048 C
HETATM   10  C21 UNL     1      21.047 -17.399  26.150  1.00  0.00     0.016 C
HETATM   11  C23 UNL     1      19.568 -15.064  25.538  1.00  0.00     0.048 C
ENDROOT
BRANCH   1  12
HETATM   12  N2  UNL     1      17.695 -15.350  22.894  1.00  0.00    -0.353 N
HETATM   13  C9  UNL     1      16.954 -15.589  21.718  1.00  0.00     0.254 C
HETATM   14  O3  UNL     1      16.707 -16.702  21.216  1.00  0.00    -0.270 OA
ATOM     15  H2  UNL     1      17.841 -14.374  23.151  1.00  0.00     0.163 HD
BRANCH  13  16
HETATM   16  C3  UNL     1      16.408 -14.367  21.005  1.00  0.00     0.260 C
BRANCH  16  17
HETATM   17  C2  UNL     1      17.348 -13.229  21.499  1.00  0.00     0.045 C
HETATM   18  C1  UNL     1      17.618 -12.236  20.406  1.00  0.00     0.009 C
ENDBRANCH  16  17
BRANCH  16  19
HETATM   19  N1  UNL     1      15.100 -14.087  21.349  1.00  0.00    -0.375 NA
HETATM   20  C4  UNL     1      13.815 -13.820  21.684  1.00  0.00     0.436 C
HETATM   21  O1  UNL     1      12.906 -14.724  21.577  1.00  0.00    -0.221 OA
BRANCH  20  22
HETATM   22  O2  UNL     1      13.316 -12.615  22.168  1.00  0.00    -0.283 OA
BRANCH  22  23
HETATM   23  C5  UNL     1      13.149 -11.499  21.386  1.00  0.00     0.062 C
HETATM   24  C6  UNL     1      14.326 -10.558  21.501  1.00  0.00     0.046 C
HETATM   25  C7  UNL     1      13.147 -11.947  19.902  1.00  0.00     0.046 C
HETATM   26  C8  UNL     1      11.883 -10.711  21.584  1.00  0.00     0.046 C
ENDBRANCH  22  23
ENDBRANCH  20  22
ENDBRANCH  16  19
ENDBRANCH  13  16
ENDBRANCH   1  12
BRANCH   8  27
HETATM   27  N3  UNL     1      21.507 -13.989  24.766  1.00  0.00     0.089 N
HETATM   28  C18 UNL     1      22.929 -14.068  24.602  1.00  0.00     0.310 C
HETATM   29  C19 UNL     1      21.144 -13.198  25.934  1.00  0.00     0.310 C
ENDBRANCH   8  27
BRANCH  10  30
HETATM   30  C22 UNL     1      22.092 -18.483  26.420  1.00  0.00     0.169 C
BRANCH  30  31
HETATM   31  O4  UNL     1      21.466 -19.623  26.919  1.00  0.00    -0.400 OA
ATOM     32  H4  UNL     1      22.027 -20.040  27.562  1.00  0.00     0.209 HD
ENDBRANCH  30  31
ENDBRANCH  10  30
TORSDOF 9
ENDMDL