MODEL 1
REMARK VINA RESULT: -8.373032159      0.000      0.000
REMARK  9 active torsions:
REMARK  status: ('A' for Active; 'I' for Inactive)
REMARK    1  A    between atoms: C2_2  and  O1_3
REMARK    2  A    between atoms: O1_3  and  C3_4
REMARK    3  A    between atoms: C3_4  and  C4_6
REMARK    4  A    between atoms: C4_6  and  N1_7
REMARK    5  A    between atoms: C4_6  and  C9_18
REMARK       I    between atoms: N1_7  and  C5_9
REMARK    6  A    between atoms: C5_9  and  C6_11
REMARK    7  A    between atoms: N4_21  and  C12_22
REMARK    8  A    between atoms: C12_22  and  N5_24
REMARK    9  A    between atoms: N5_24  and  C13_26
ROOT
HETATM    1  C4  UNL     1      14.857 -11.795  19.434  1.00  0.00     0.189 C
ENDROOT
BRANCH   1   2
HETATM    2  C3  UNL     1      14.304 -11.728  18.078  1.00  0.00     0.282 C
HETATM    3  O2  UNL     1      13.382 -10.914  17.804  1.00  0.00    -0.263 OA
BRANCH   2   4
HETATM    4  O1  UNL     1      14.755 -12.535  17.064  1.00  0.00    -0.320 OA
BRANCH   4   5
HETATM    5  C2  UNL     1      15.085 -12.123  15.773  1.00  0.00     0.174 C
HETATM    6  C1  UNL     1      16.521 -11.730  15.639  1.00  0.00     0.034 C
ENDBRANCH   4   5
ENDBRANCH   2   4
ENDBRANCH   1   2
BRANCH   1   7
HETATM    7  N1  UNL     1      13.833 -12.013  20.433  1.00  0.00    -0.340 N
HETATM    8  C5  UNL     1      13.606 -11.101  21.506  1.00  0.00     0.286 C
HETATM    9  O3  UNL     1      14.297 -10.070  21.618  1.00  0.00    -0.264 OA
ATOM     10  H1  UNL     1      13.254 -12.850  20.369  1.00  0.00     0.163 HD
BRANCH   8  11
HETATM   11  C6  UNL     1      12.553 -11.373  22.492  1.00  0.00     0.174 A
HETATM   12  N2  UNL     1      11.757 -12.454  22.548  1.00  0.00    -0.346 N
HETATM   13  C7  UNL     1      10.934 -12.321  23.588  1.00  0.00     0.107 A
ATOM     14  H2  UNL     1      11.779 -13.244  21.904  1.00  0.00     0.167 HD
HETATM   15  C8  UNL     1      11.233 -11.120  24.190  1.00  0.00     0.107 A
HETATM   16  N3  UNL     1      12.230 -10.560  23.496  1.00  0.00    -0.346 N
ATOM     17  H3  UNL     1      12.669  -9.662  23.702  1.00  0.00     0.167 HD
ENDBRANCH   8  11
ENDBRANCH   1   7
BRANCH   1  18
HETATM   18  C9  UNL     1      16.020 -12.780  19.568  1.00  0.00     0.021 C
HETATM   19  C10 UNL     1      17.094 -12.150  20.410  1.00  0.00     0.027 C
HETATM   20  C11 UNL     1      17.889 -13.163  21.201  1.00  0.00     0.125 C
HETATM   21  N4  UNL     1      17.080 -14.143  21.840  1.00  0.00    -0.358 N
HETATM   22  C19 UNL     1      15.659 -14.167  21.590  1.00  0.00     0.125 C
HETATM   23  C20 UNL     1      15.479 -14.060  20.092  1.00  0.00     0.027 C
BRANCH  21  24
HETATM   24  C12 UNL     1      17.641 -15.101  22.721  1.00  0.00     0.170 C
HETATM   25  S1  UNL     1      17.970 -16.639  22.207  1.00  0.00    -0.041 SA
BRANCH  24  26
HETATM   26  N5  UNL     1      17.950 -14.810  24.074  1.00  0.00    -0.363 N
ATOM     27  H5  UNL     1      17.277 -14.294  24.641  1.00  0.00     0.162 HD
BRANCH  26  28
HETATM   28  C13 UNL     1      19.190 -15.226  24.659  1.00  0.00     0.083 C
HETATM   29  C14 UNL     1      20.122 -14.066  24.935  1.00  0.00     0.025 C
HETATM   30  C15 UNL     1      20.646 -14.189  26.357  1.00  0.00     0.002 C
HETATM   31  C16 UNL     1      21.286 -15.552  26.506  1.00  0.00     0.000 C
HETATM   32  C17 UNL     1      20.175 -16.579  26.506  1.00  0.00     0.002 C
HETATM   33  C18 UNL     1      18.916 -16.013  25.898  1.00  0.00     0.025 C
ENDBRANCH  26  28
ENDBRANCH  24  26
ENDBRANCH  21  24
ENDBRANCH   1  18
TORSDOF 9
ENDMDL