MODEL 5
REMARK VINA RESULT: -7.044216877      1.996      3.367
REMARK  9 active torsions:
REMARK  status: ('A' for Active; 'I' for Inactive)
REMARK    1  A    between atoms: C2_2  and  N1_3
REMARK    2  A    between atoms: C6_7  and  O1_8
REMARK    3  A    between atoms: C13_17  and  O3_18
REMARK    4  A    between atoms: C13_17  and  C14_20
REMARK    5  A    between atoms: C14_20  and  O4_21
REMARK    6  A    between atoms: C14_20  and  C15_23
REMARK    7  A    between atoms: C15_23  and  C17_25
REMARK    8  A    between atoms: C18_26  and  C19_27
REMARK    9  A    between atoms: C19_27  and  C20_28
ROOT
HETATM    1  N1  UNL     1      13.296 -18.163  20.904  1.00  0.00     0.093 N
HETATM    2  C3  UNL     1      11.887 -18.384  20.741  1.00  0.00     0.274 C
HETATM    3  C4  UNL     1      11.416 -17.195  19.894  1.00  0.00     0.045 C
HETATM    4  C5  UNL     1      12.623 -16.313  19.744  1.00  0.00     0.029 C
HETATM    5  C6  UNL     1      13.313 -16.680  18.473  1.00  0.00     0.129 C
HETATM    6  C7  UNL     1      14.572 -16.240  17.966  1.00  0.00     0.033 C
HETATM    7  C8  UNL     1      15.409 -15.099  18.598  1.00  0.00     0.016 C
HETATM    8  C9  UNL     1      14.610 -14.848  19.758  1.00  0.00     0.003 C
HETATM    9  C10 UNL     1      13.385 -14.324  19.067  1.00  0.00     0.026 C
HETATM   10  C11 UNL     1      12.396 -14.891  20.057  1.00  0.00     0.073 C
HETATM   11  C12 UNL     1      13.097 -14.244  21.210  1.00  0.00     0.169 C
HETATM   12  O2  UNL     1      12.623 -13.985  22.318  1.00  0.00    -0.294 OA
HETATM   13  C13 UNL     1      14.555 -13.919  20.842  1.00  0.00     0.152 C
HETATM   14  C25 UNL     1      14.690 -16.148  20.473  1.00  0.00     0.050 C
HETATM   15  C26 UNL     1      13.436 -16.778  20.968  1.00  0.00     0.235 C
ENDROOT
BRANCH  13  16
HETATM   16  O3  UNL     1      15.239 -14.307  22.033  1.00  0.00    -0.379 OA
ATOM     17  H3  UNL     1      15.320 -13.638  22.703  1.00  0.00     0.211 HD
ENDBRANCH  13  16
BRANCH  13  18
HETATM   18  C14 UNL     1      14.837 -12.494  20.715  1.00  0.00     0.168 C
BRANCH  18  19
HETATM   19  O4  UNL     1      14.388 -11.698  21.773  1.00  0.00    -0.391 OA
ATOM     20  H4  UNL     1      14.144 -12.167  22.562  1.00  0.00     0.210 HD
ENDBRANCH  18  19
BRANCH  18  21
HETATM   21  C15 UNL     1      16.313 -12.129  20.651  1.00  0.00     0.036 C
HETATM   22  C16 UNL     1      16.763 -11.824  19.268  1.00  0.00     0.017 C
BRANCH  21  23
HETATM   23  C17 UNL     1      17.138 -13.253  21.202  1.00  0.00    -0.023 C
HETATM   24  C18 UNL     1      18.448 -13.145  21.320  1.00  0.00    -0.026 C
BRANCH  24  25
HETATM   25  C19 UNL     1      19.419 -14.108  21.824  1.00  0.00     0.060 C
BRANCH  25  26
HETATM   26  C20 UNL     1      19.429 -14.325  23.277  1.00  0.00    -0.080 C
HETATM   27  C21 UNL     1      20.453 -14.031  24.107  1.00  0.00    -0.024 C
HETATM   28  C22 UNL     1      20.103 -14.391  25.514  1.00  0.00     0.027 C
HETATM   29  C23 UNL     1      19.147 -15.573  25.239  1.00  0.00     0.008 C
HETATM   30  C24 UNL     1      18.350 -14.925  24.097  1.00  0.00     0.034 C
ENDBRANCH  25  26
ENDBRANCH  24  25
ENDBRANCH  21  23
ENDBRANCH  18  21
ENDBRANCH  13  18
BRANCH   5  31
HETATM   31  O1  UNL     1      13.284 -18.108  18.449  1.00  0.00    -0.395 OA
ATOM     32  H1  UNL     1      13.618 -18.339  17.590  1.00  0.00     0.210 HD
ENDBRANCH   5  31
BRANCH   1  33
HETATM   33  C2  UNL     1      13.991 -19.008  21.772  1.00  0.00     0.268 C
HETATM   34  C1  UNL     1      15.096 -19.832  21.212  1.00  0.00     0.037 C
ENDBRANCH   1  33
TORSDOF 9
ENDMDL