MODEL 5
REMARK VINA RESULT: -7.327923098      2.602      7.856
REMARK  8 active torsions:
REMARK  status: ('A' for Active; 'I' for Inactive)
REMARK    1  A    between atoms: C2_2  and  C3_3
REMARK    2  A    between atoms: C2_2  and  C8_11
REMARK       I    between atoms: C3_3  and  N1_5
REMARK    3  A    between atoms: N1_5  and  C4_7
REMARK    4  A    between atoms: C8_11  and  N2_12
REMARK    5  A    between atoms: C8_11  and  C22_31
REMARK       I    between atoms: N2_12  and  C9_14
REMARK    6  A    between atoms: C9_14  and  C10_16
REMARK    7  A    between atoms: C10_16  and  N3_17
REMARK    8  A    between atoms: C13_20  and  O3_21
ROOT
HETATM    1  N2  UNL     1      18.654 -14.217  22.402  1.00  0.00    -0.353 N
ATOM      2  H2  UNL     1      18.169 -13.914  23.246  1.00  0.00     0.163 HD
HETATM    3  C9  UNL     1      19.582 -15.241  22.557  1.00  0.00     0.247 C
HETATM    4  O2  UNL     1      20.172 -15.608  21.493  1.00  0.00    -0.271 OA
ENDROOT
BRANCH   3   5
HETATM    5  C10 UNL     1      19.970 -15.954  23.798  1.00  0.00     0.125 A
HETATM    6  C16 UNL     1      18.969 -16.981  24.332  1.00  0.00    -0.003 A
HETATM    7  C17 UNL     1      18.834 -17.060  25.856  1.00  0.00     0.019 C
HETATM    8  C18 UNL     1      17.663 -17.203  23.647  1.00  0.00     0.019 C
HETATM    9  C19 UNL     1      20.206 -17.451  23.698  1.00  0.00    -0.003 A
HETATM   10  C20 UNL     1      20.287 -18.092  22.360  1.00  0.00     0.019 C
HETATM   11  C21 UNL     1      21.159 -18.122  24.711  1.00  0.00     0.019 C
BRANCH   5  12
HETATM   12  N3  UNL     1      20.782 -15.293  24.769  1.00  0.00    -0.394 N
HETATM   13  C11 UNL     1      20.165 -14.228  25.499  1.00  0.00     0.120 C
HETATM   14  C12 UNL     1      21.189 -13.185  25.942  1.00  0.00     0.051 C
HETATM   15  C13 UNL     1      22.326 -13.979  26.572  1.00  0.00     0.121 C
HETATM   16  C14 UNL     1      23.051 -14.655  25.426  1.00  0.00     0.051 C
HETATM   17  C15 UNL     1      22.094 -15.012  24.305  1.00  0.00     0.120 C
BRANCH  15  18
HETATM   18  O3  UNL     1      21.784 -15.007  27.370  1.00  0.00    -0.395 OA
ATOM     19  H3  UNL     1      20.842 -14.896  27.425  1.00  0.00     0.210 HD
ENDBRANCH  15  18
ENDBRANCH   5  12
ENDBRANCH   3   5
BRANCH   1  20
HETATM   20  C8  UNL     1      18.300 -13.539  21.183  1.00  0.00     0.101 C
BRANCH  20  21
HETATM   21  C2  UNL     1      16.815 -13.145  21.155  1.00  0.00     0.097 C
HETATM   22  C1  UNL     1      16.570 -12.062  20.132  1.00  0.00     0.022 C
BRANCH  21  23
HETATM   23  C3  UNL     1      15.931 -14.285  20.844  1.00  0.00     0.224 C
HETATM   24  O1  UNL     1      16.438 -15.454  20.908  1.00  0.00    -0.273 OA
HETATM   25  N1  UNL     1      14.566 -14.135  20.488  1.00  0.00    -0.353 N
ATOM     26  H1  UNL     1      14.165 -13.198  20.443  1.00  0.00     0.163 HD
BRANCH  25  27
HETATM   27  C4  UNL     1      13.739 -15.258  20.191  1.00  0.00     0.022 C
HETATM   28  C5  UNL     1      12.308 -14.751  19.937  1.00  0.00     0.037 C
HETATM   29  C6  UNL     1      14.176 -16.034  18.982  1.00  0.00     0.037 C
HETATM   30  C7  UNL     1      13.583 -16.228  21.366  1.00  0.00     0.037 C
ENDBRANCH  25  27
ENDBRANCH  21  23
ENDBRANCH  20  21
BRANCH  20  31
HETATM   31  C22 UNL     1      19.094 -12.369  20.818  1.00  0.00     0.009 A
HETATM   32  C23 UNL     1      20.529 -12.188  20.853  1.00  0.00     0.007 A
HETATM   33  C24 UNL     1      19.884 -12.451  19.519  1.00  0.00     0.007 A
ENDBRANCH  20  31
ENDBRANCH   1  20
TORSDOF 8
ENDMDL