MODEL 2
REMARK VINA RESULT: -8.308709009      2.126      2.493
REMARK  6 active torsions:
REMARK  status: ('A' for Active; 'I' for Inactive)
REMARK    1  A    between atoms: C1_2  and  N1_3
REMARK    2  A    between atoms: C4_6  and  C5_7
REMARK    3  A    between atoms: C4_6  and  N3_16
REMARK    4  A    between atoms: C5_7  and  N2_8
REMARK    5  A    between atoms: N2_8  and  C6_11
REMARK       I    between atoms: N3_16  and  C10_18
REMARK    6  A    between atoms: C10_18  and  C11_20
ROOT
HETATM    1  N1  UNL     1      15.354 -12.814  17.800  1.00  0.00    -0.359 N
HETATM    2  C2  UNL     1      16.275 -12.044  18.595  1.00  0.00     0.127 C
HETATM    3  C3  UNL     1      15.716 -11.828  19.989  1.00  0.00     0.052 C
HETATM    4  C4  UNL     1      15.357 -13.167  20.669  1.00  0.00     0.059 C
HETATM    5  C21 UNL     1      15.440 -14.272  19.666  1.00  0.00     0.052 C
HETATM    6  C22 UNL     1      14.678 -13.924  18.420  1.00  0.00     0.127 C
ENDROOT
BRANCH   4   7
HETATM    7  C5  UNL     1      13.915 -13.046  21.131  1.00  0.00     0.263 C
BRANCH   7   8
HETATM    8  N2  UNL     1      13.298 -11.815  20.778  1.00  0.00    -0.068 N
ATOM      9  H22 UNL     1      13.978 -11.057  20.725  1.00  0.00     0.277 HD
ATOM     10  H21 UNL     1      12.988 -11.815  19.807  1.00  0.00     0.277 HD
BRANCH   8  11
HETATM   11  C6  UNL     1      12.191 -11.489  21.703  1.00  0.00     0.196 C
HETATM   12  C7  UNL     1      12.004 -12.731  22.541  1.00  0.00     0.044 C
HETATM   13  C8  UNL     1      10.889 -12.430  23.514  1.00  0.00     0.076 C
HETATM   14  S1  UNL     1      11.373 -10.737  24.020  1.00  0.00    -0.167 SA
HETATM   15  C9  UNL     1      12.539 -10.365  22.642  1.00  0.00     0.106 C
ENDBRANCH   8  11
ENDBRANCH   7   8
ENDBRANCH   4   7
BRANCH   4  16
HETATM   16  N3  UNL     1      16.214 -13.327  21.814  1.00  0.00    -0.348 N
HETATM   17  C10 UNL     1      17.066 -14.410  22.094  1.00  0.00     0.241 C
HETATM   18  O2  UNL     1      17.204 -15.387  21.379  1.00  0.00    -0.271 OA
ATOM     19  H3  UNL     1      16.202 -12.571  22.498  1.00  0.00     0.163 HD
BRANCH  17  20
HETATM   20  C11 UNL     1      17.863 -14.354  23.383  1.00  0.00     0.173 C
HETATM   21  C12 UNL     1      19.256 -13.988  22.907  1.00  0.00     0.036 C
HETATM   22  C13 UNL     1      20.357 -14.291  23.839  1.00  0.00     0.017 C
HETATM   23  C14 UNL     1      20.203 -15.485  24.714  1.00  0.00    -0.009 C
HETATM   24  C15 UNL     1      20.526 -15.020  26.148  1.00  0.00     0.015 C
HETATM   25  C19 UNL     1      21.274 -16.562  24.436  1.00  0.00     0.015 C
HETATM   26  C20 UNL     1      18.898 -16.191  24.649  1.00  0.00     0.066 C
HETATM   27  C16 UNL     1      22.047 -14.974  26.314  1.00  0.00     0.001 C
HETATM   28  C17 UNL     1      22.470 -16.398  26.626  1.00  0.00     0.000 C
HETATM   29  C18 UNL     1      21.612 -17.298  25.740  1.00  0.00     0.001 C
HETATM   30  N4  UNL     1      17.792 -15.555  24.099  1.00  0.00    -0.389 N
ATOM     31  H4  UNL     1      16.877 -15.988  24.224  1.00  0.00     0.159 HD
ENDBRANCH  17  20
ENDBRANCH   4  16
BRANCH   1  32
HETATM   32  C1  UNL     1      15.143 -12.465  16.450  1.00  0.00     0.350 C
HETATM   33  O1  UNL     1      14.485 -11.421  16.113  1.00  0.00    -0.284 OA
ENDBRANCH   1  32
TORSDOF 6
ENDMDL