MODEL 3
REMARK VINA RESULT: -7.136735127      2.166      3.029
REMARK  10 active torsions:
REMARK  status: ('A' for Active; 'I' for Inactive)
REMARK    1  A    between atoms: C2_2  and  C3_3
REMARK    2  A    between atoms: C2_2  and  C14_20
REMARK    3  A    between atoms: C3_3  and  N1_4
REMARK       I    between atoms: N1_4  and  C4_6
REMARK    4  A    between atoms: C4_6  and  C5_8
REMARK       I    between atoms: N2_12  and  C9_13
REMARK    5  A    between atoms: C9_13  and  O3_15
REMARK    6  A    between atoms: O3_15  and  C10_16
REMARK    7  A    between atoms: C14_20  and  O4_21
REMARK    8  A    between atoms: C14_20  and  C15_23
REMARK    9  A    between atoms: C15_23  and  C17_25
REMARK   10  A    between atoms: C15_23  and  C18_28
ROOT
HETATM    1  N1  UNL     1      17.519 -12.964  21.352  1.00  0.00    -0.359 N
ATOM      2  H1  UNL     1      16.712 -13.277  21.890  1.00  0.00     0.162 HD
HETATM    3  C4  UNL     1      17.309 -12.216  20.178  1.00  0.00     0.240 C
HETATM    4  O1  UNL     1      18.307 -11.846  19.537  1.00  0.00    -0.271 OA
ENDROOT
BRANCH   1   5
HETATM    5  C3  UNL     1      18.877 -13.309  21.827  1.00  0.00     0.129 C
BRANCH   5   6
HETATM    6  C2  UNL     1      18.869 -14.659  22.458  1.00  0.00     0.029 C
HETATM    7  C1  UNL     1      17.560 -15.403  22.022  1.00  0.00     0.014 C
BRANCH   6   8
HETATM    8  C14 UNL     1      18.991 -14.777  23.920  1.00  0.00     0.142 C
BRANCH   8   9
HETATM    9  O4  UNL     1      17.715 -15.026  24.503  1.00  0.00    -0.394 OA
ATOM     10  H4  UNL     1      17.761 -15.770  25.091  1.00  0.00     0.210 HD
ENDBRANCH   8   9
BRANCH   8  11
HETATM   11  C15 UNL     1      20.030 -15.635  24.553  1.00  0.00     0.077 C
HETATM   12  C16 UNL     1      20.734 -16.462  23.501  1.00  0.00     0.030 C
BRANCH  11  13
HETATM   13  C17 UNL     1      19.413 -16.633  25.497  1.00  0.00     0.184 C
HETATM   14  O5  UNL     1      19.328 -17.868  25.204  1.00  0.00    -0.647 OA
HETATM   15  O6  UNL     1      18.897 -16.308  26.732  1.00  0.00    -0.647 OA
ENDBRANCH  11  13
BRANCH  11  16
HETATM   16  C18 UNL     1      21.098 -14.816  25.259  1.00  0.00    -0.032 C
HETATM   17  C19 UNL     1      21.908 -15.741  26.145  1.00  0.00     0.016 C
HETATM   18  C20 UNL     1      22.062 -14.323  24.184  1.00  0.00     0.016 C
HETATM   19  C21 UNL     1      20.633 -13.676  26.070  1.00  0.00     0.016 C
ENDBRANCH  11  16
ENDBRANCH   8  11
ENDBRANCH   6   8
ENDBRANCH   5   6
ENDBRANCH   1   5
BRANCH   3  20
HETATM   20  C5  UNL     1      15.956 -11.858  19.683  1.00  0.00     0.181 C
HETATM   21  C6  UNL     1      15.605 -12.603  18.413  1.00  0.00     0.037 C
HETATM   22  C7  UNL     1      14.944 -13.858  18.892  1.00  0.00     0.022 C
HETATM   23  C8  UNL     1      14.722 -13.704  20.368  1.00  0.00     0.129 C
HETATM   24  N2  UNL     1      14.946 -12.304  20.603  1.00  0.00    -0.315 N
HETATM   25  C9  UNL     1      14.291 -11.506  21.564  1.00  0.00     0.364 C
HETATM   26  O2  UNL     1      14.573 -10.273  21.680  1.00  0.00    -0.238 OA
BRANCH  25  27
HETATM   27  O3  UNL     1      13.322 -11.985  22.429  1.00  0.00    -0.294 OA
BRANCH  27  28
HETATM   28  C10 UNL     1      12.048 -11.396  22.591  1.00  0.00     0.061 C
HETATM   29  C11 UNL     1      11.916 -10.569  23.827  1.00  0.00     0.046 C
HETATM   30  C12 UNL     1      11.706 -10.579  21.357  1.00  0.00     0.046 C
HETATM   31  C13 UNL     1      11.016 -12.520  22.662  1.00  0.00     0.046 C
ENDBRANCH  27  28
ENDBRANCH  25  27
ENDBRANCH   3  20
TORSDOF 10
ENDMDL