MODEL 3
REMARK VINA RESULT: -6.849337340      2.836      9.006
REMARK  9 active torsions:
REMARK  status: ('A' for Active; 'I' for Inactive)
REMARK    1  A    between atoms: C2_2  and  C4_4
REMARK    2  A    between atoms: C4_4  and  O1_5
REMARK    3  A    between atoms: O1_5  and  C5_6
REMARK       I    between atoms: C5_6  and  N1_8
REMARK    4  A    between atoms: N1_8  and  C6_10
REMARK    5  A    between atoms: C6_10  and  C7_11
REMARK    6  A    between atoms: C6_10  and  C18_29
REMARK       I    between atoms: C7_11  and  N2_13
REMARK    7  A    between atoms: C9_15  and  C10_16
REMARK    8  A    between atoms: C11_19  and  C12_20
REMARK       I    between atoms: C12_20  and  N3_22
REMARK    9  A    between atoms: N3_22  and  C13_24
ROOT
HETATM    1  C7  UNL     1      16.024 -14.038  21.392  1.00  0.00     0.244 C
HETATM    2  O3  UNL     1      15.794 -13.097  22.177  1.00  0.00    -0.271 OA
HETATM    3  N2  UNL     1      16.970 -15.025  21.937  1.00  0.00    -0.335 N
HETATM    4  C8  UNL     1      17.619 -16.219  21.471  1.00  0.00     0.145 C
HETATM    5  C9  UNL     1      17.564 -16.728  22.874  1.00  0.00     0.137 C
HETATM    6  C11 UNL     1      17.600 -15.257  23.214  1.00  0.00     0.195 C
ENDROOT
BRANCH   1   7
HETATM    7  C6  UNL     1      15.453 -14.247  20.041  1.00  0.00     0.186 C
BRANCH   7   8
HETATM    8  N1  UNL     1      14.271 -15.032  19.957  1.00  0.00    -0.323 N
HETATM    9  C5  UNL     1      13.132 -15.164  20.741  1.00  0.00     0.361 C
HETATM   10  O2  UNL     1      12.826 -14.565  21.805  1.00  0.00    -0.238 OA
ATOM     11  H1  UNL     1      14.255 -15.635  19.135  1.00  0.00     0.165 HD
BRANCH   9  12
HETATM   12  O1  UNL     1      12.126 -16.086  20.342  1.00  0.00    -0.304 OA
BRANCH  12  13
HETATM   13  C4  UNL     1      12.450 -17.480  20.186  1.00  0.00     0.184 C
BRANCH  13  14
HETATM   14  C2  UNL     1      12.035 -17.947  18.808  1.00  0.00     0.002 C
HETATM   15  C1  UNL     1      10.757 -17.340  18.315  1.00  0.00     0.011 C
HETATM   16  C3  UNL     1      13.113 -17.759  17.770  1.00  0.00     0.011 C
ENDBRANCH  13  14
ENDBRANCH  12  13
ENDBRANCH   9  12
ENDBRANCH   7   8
BRANCH   7  17
HETATM   17  C18 UNL     1      15.338 -12.984  19.217  1.00  0.00    -0.022 C
HETATM   18  C19 UNL     1      14.208 -12.073  19.633  1.00  0.00     0.017 C
HETATM   19  C20 UNL     1      15.127 -13.325  17.744  1.00  0.00     0.017 C
HETATM   20  C21 UNL     1      16.589 -12.128  19.250  1.00  0.00     0.017 C
ENDBRANCH   7  17
ENDBRANCH   1   7
BRANCH   6  21
HETATM   21  C12 UNL     1      18.927 -14.617  23.301  1.00  0.00     0.241 C
HETATM   22  O6  UNL     1      19.496 -14.066  22.328  1.00  0.00    -0.271 OA
HETATM   23  N3  UNL     1      19.673 -14.572  24.528  1.00  0.00    -0.355 N
ATOM     24  H3  UNL     1      19.263 -14.996  25.360  1.00  0.00     0.162 HD
BRANCH  23  25
HETATM   25  C13 UNL     1      20.974 -13.957  24.641  1.00  0.00     0.084 C
HETATM   26  C14 UNL     1      22.078 -14.943  24.812  1.00  0.00     0.025 C
HETATM   27  C15 UNL     1      22.493 -14.872  26.275  1.00  0.00     0.002 C
HETATM   28  C16 UNL     1      21.391 -14.041  26.944  1.00  0.00     0.002 C
HETATM   29  C17 UNL     1      21.093 -13.038  25.841  1.00  0.00     0.025 C
ENDBRANCH  23  25
ENDBRANCH   6  21
BRANCH   5  30
HETATM   30  C10 UNL     1      18.644 -17.591  23.299  1.00  0.00     0.181 C
HETATM   31  O4  UNL     1      18.615 -18.166  24.398  1.00  0.00    -0.648 OA
HETATM   32  O5  UNL     1      19.793 -17.841  22.522  1.00  0.00    -0.648 OA
ENDBRANCH   5  30
TORSDOF 9
ENDMDL