MODEL 2
REMARK VINA RESULT: -7.244853663      1.884      2.048
REMARK  7 active torsions:
REMARK  status: ('A' for Active; 'I' for Inactive)
REMARK    1  A    between atoms: C10_11  and  C11_12
REMARK    2  A    between atoms: C11_12  and  O1_13
REMARK    3  A    between atoms: C17_21  and  C18_22
REMARK    4  A    between atoms: C18_22  and  C19_23
REMARK       I    between atoms: C19_23  and  N2_25
REMARK    5  A    between atoms: N2_25  and  C20_27
REMARK    6  A    between atoms: C20_27  and  C21_28
REMARK    7  A    between atoms: C21_28  and  C22_29
ROOT
HETATM    1  C1  UNL     1      15.859 -18.467  23.422  1.00  0.00     0.012 C
HETATM    2  C2  UNL     1      17.266 -17.946  23.412  1.00  0.00     0.018 C
HETATM    3  C3  UNL     1      17.536 -17.388  24.785  1.00  0.00     0.278 C
HETATM    4  N1  UNL     1      18.708 -18.090  25.275  1.00  0.00     0.099 N
HETATM    5  C4  UNL     1      18.575 -18.163  26.721  1.00  0.00     0.277 C
HETATM    6  C5  UNL     1      18.602 -16.667  27.036  1.00  0.00     0.066 C
HETATM    7  C6  UNL     1      19.638 -16.176  26.047  1.00  0.00    -0.048 C
HETATM    8  C7  UNL     1      20.064 -14.948  26.143  1.00  0.00    -0.022 C
HETATM    9  C8  UNL     1      21.027 -14.096  25.419  1.00  0.00     0.028 C
HETATM   10  C9  UNL     1      21.058 -14.248  23.946  1.00  0.00     0.011 C
HETATM   11  C10 UNL     1      19.757 -14.746  23.318  1.00  0.00     0.015 C
HETATM   12  C12 UNL     1      19.929 -16.151  22.879  1.00  0.00     0.013 C
HETATM   13  C13 UNL     1      18.940 -16.757  21.978  1.00  0.00     0.009 C
HETATM   14  C14 UNL     1      19.550 -18.056  21.478  1.00  0.00     0.080 C
HETATM   15  S1  UNL     1      20.551 -18.626  22.913  1.00  0.00    -0.161 SA
HETATM   16  C15 UNL     1      20.484 -17.087  23.876  1.00  0.00     0.089 C
HETATM   17  C16 UNL     1      19.906 -17.319  25.172  1.00  0.00     0.265 C
HETATM   18  C17 UNL     1      17.512 -16.878  22.341  1.00  0.00     0.024 C
ENDROOT
BRANCH  18  19
HETATM   19  C18 UNL     1      16.616 -17.278  21.225  1.00  0.00     0.052 C
BRANCH  19  20
HETATM   20  C19 UNL     1      15.904 -16.320  20.419  1.00  0.00     0.237 C
HETATM   21  O2  UNL     1      15.219 -16.615  19.419  1.00  0.00    -0.269 OA
HETATM   22  N2  UNL     1      15.937 -14.910  20.727  1.00  0.00    -0.357 N
ATOM     23  H2  UNL     1      16.472 -14.579  21.529  1.00  0.00     0.162 HD
BRANCH  22  24
HETATM   24  C20 UNL     1      15.230 -13.981  19.922  1.00  0.00     0.133 C
BRANCH  24  25
HETATM   25  C21 UNL     1      15.503 -12.552  20.278  1.00  0.00     0.133 C
BRANCH  25  26
HETATM   26  C22 UNL     1      16.524 -11.942  19.380  1.00  0.00     0.174 C
HETATM   27  O3  UNL     1      16.293 -11.642  18.180  1.00  0.00    -0.648 OA
HETATM   28  O4  UNL     1      17.789 -11.693  19.893  1.00  0.00    -0.648 OA
ENDBRANCH  25  26
ENDBRANCH  24  25
ENDBRANCH  22  24
ENDBRANCH  19  20
ENDBRANCH  18  19
BRANCH  11  29
HETATM   29  C11 UNL     1      19.650 -13.866  22.062  1.00  0.00     0.169 C
BRANCH  29  30
HETATM   30  O1  UNL     1      18.336 -13.389  21.998  1.00  0.00    -0.400 OA
ATOM     31  H1  UNL     1      18.042 -13.491  21.100  1.00  0.00     0.209 HD
ENDBRANCH  29  30
ENDBRANCH  11  29
TORSDOF 7
ENDMDL