MODEL 4
REMARK VINA RESULT: -7.979713194      2.877     11.856
REMARK  17 active torsions:
REMARK  status: ('A' for Active; 'I' for Inactive)
REMARK    1  A    between atoms: C2_2  and  O1_3
REMARK    2  A    between atoms: O1_3  and  C3_4
REMARK    3  A    between atoms: C3_4  and  C4_6
REMARK    4  A    between atoms: C4_6  and  C5_7
REMARK    5  A    between atoms: C5_7  and  C6_8
REMARK    6  A    between atoms: C6_8  and  N1_9
REMARK    7  A    between atoms: C6_8  and  C12_18
REMARK       I    between atoms: N1_9  and  C7_11
REMARK    8  A    between atoms: C7_11  and  O4_13
REMARK    9  A    between atoms: O4_13  and  C8_14
REMARK       I    between atoms: C12_18  and  N2_20
REMARK   10  A    between atoms: N2_20  and  C13_22
REMARK   11  A    between atoms: C13_22  and  C14_23
REMARK   12  A    between atoms: C13_22  and  C30_47
REMARK       I    between atoms: C14_23  and  N3_25
REMARK   13  A    between atoms: N3_25  and  C15_27
REMARK   14  A    between atoms: C15_27  and  C16_28
REMARK   15  A    between atoms: C15_27  and  C27_44
REMARK       I    between atoms: C16_28  and  N4_30
REMARK       I    between atoms: N5_34  and  C20_35
REMARK   16  A    between atoms: C20_35  and  O9_37
REMARK   17  A    between atoms: O9_37  and  C21_38
ROOT
HETATM    1  C13 UNL     1      16.504  21.203   7.054  1.00  0.00     0.184 C
ENDROOT
BRANCH   1   2
HETATM    2  N2  UNL     1      16.835  19.795   7.164  1.00  0.00    -0.342 N
HETATM    3  C12 UNL     1      18.042  19.221   6.703  1.00  0.00     0.264 C
HETATM    4  O5  UNL     1      18.884  19.989   6.177  1.00  0.00    -0.266 OA
ATOM      5  H2  UNL     1      16.151  19.179   7.603  1.00  0.00     0.163 HD
BRANCH   3   6
HETATM    6  C6  UNL     1      18.344  17.770   6.814  1.00  0.00     0.082 C
BRANCH   6   7
HETATM    7  C5  UNL     1      18.164  16.983   5.581  1.00  0.00     0.073 C
BRANCH   7   8
HETATM    8  C4  UNL     1      18.873  17.383   4.349  1.00  0.00     0.117 C
BRANCH   8   9
HETATM    9  C3  UNL     1      18.055  18.105   3.341  1.00  0.00     0.259 C
HETATM   10  O2  UNL     1      18.485  18.362   2.181  1.00  0.00    -0.265 OA
BRANCH   9  11
HETATM   11  O1  UNL     1      16.759  18.539   3.633  1.00  0.00    -0.322 OA
BRANCH  11  12
HETATM   12  C2  UNL     1      15.583  17.986   3.097  1.00  0.00     0.174 C
HETATM   13  C1  UNL     1      14.671  17.617   4.259  1.00  0.00     0.034 C
ENDBRANCH  11  12
ENDBRANCH   9  11
ENDBRANCH   8   9
ENDBRANCH   7   8
ENDBRANCH   6   7
BRANCH   6  14
HETATM   14  N1  UNL     1      17.898  17.164   8.018  1.00  0.00    -0.301 N
HETATM   15  C7  UNL     1      18.704  16.832   9.148  1.00  0.00     0.365 C
HETATM   16  O3  UNL     1      19.938  17.065   9.169  1.00  0.00    -0.238 OA
ATOM     17  H1  UNL     1      16.904  16.945   8.083  1.00  0.00     0.171 HD
BRANCH  15  18
HETATM   18  O4  UNL     1      18.187  16.238  10.277  1.00  0.00    -0.294 OA
BRANCH  18  19
HETATM   19  C8  UNL     1      17.471  16.808  11.306  1.00  0.00     0.061 C
HETATM   20  C9  UNL     1      15.985  16.488  11.071  1.00  0.00     0.046 C
HETATM   21  C10 UNL     1      17.578  18.301  11.425  1.00  0.00     0.046 C
HETATM   22  C11 UNL     1      17.834  16.195  12.638  1.00  0.00     0.046 C
ENDBRANCH  18  19
ENDBRANCH  15  18
ENDBRANCH   6  14
ENDBRANCH   3   6
ENDBRANCH   1   2
BRANCH   1  23
HETATM   23  C14 UNL     1      15.095  21.407   6.672  1.00  0.00     0.241 C
HETATM   24  O6  UNL     1      14.201  20.715   7.270  1.00  0.00    -0.271 OA
HETATM   25  N3  UNL     1      14.740  22.341   5.673  1.00  0.00    -0.346 N
ATOM     26  H3  UNL     1      15.470  22.869   5.196  1.00  0.00     0.163 HD
BRANCH  25  27
HETATM   27  C15 UNL     1      13.329  22.563   5.311  1.00  0.00     0.180 C
BRANCH  27  28
HETATM   28  C16 UNL     1      12.985  23.990   5.479  1.00  0.00     0.243 C
HETATM   29  O7  UNL     1      13.521  24.779   4.622  1.00  0.00    -0.271 OA
HETATM   30  N4  UNL     1      12.159  24.556   6.444  1.00  0.00    -0.346 N
HETATM   31  C17 UNL     1      11.597  23.741   7.501  1.00  0.00     0.128 C
HETATM   32  C26 UNL     1      11.879  25.973   6.329  1.00  0.00     0.170 C
HETATM   33  C18 UNL     1      11.516  24.557   8.789  1.00  0.00     0.040 C
HETATM   34  C19 UNL     1      10.249  25.316   8.952  1.00  0.00     0.135 C
HETATM   35  N5  UNL     1       9.913  26.139   7.835  1.00  0.00    -0.306 N
HETATM   36  C20 UNL     1       8.837  27.054   8.139  1.00  0.00     0.367 C
HETATM   37  C25 UNL     1      10.401  26.246   6.518  1.00  0.00     0.089 C
HETATM   38  O8  UNL     1       8.292  27.120   9.254  1.00  0.00    -0.238 OA
BRANCH  36  39
HETATM   39  O9  UNL     1       8.370  27.915   7.148  1.00  0.00    -0.294 OA
BRANCH  39  40
HETATM   40  C21 UNL     1       7.092  27.936   6.608  1.00  0.00     0.061 C
HETATM   41  C22 UNL     1       7.271  28.043   5.084  1.00  0.00     0.046 C
HETATM   42  C23 UNL     1       6.251  29.125   6.997  1.00  0.00     0.046 C
HETATM   43  C24 UNL     1       6.333  26.678   6.928  1.00  0.00     0.046 C
ENDBRANCH  39  40
ENDBRANCH  36  39
ENDBRANCH  27  28
BRANCH  27  44
HETATM   44  C27 UNL     1      13.201  22.294   3.784  1.00  0.00     0.009 C
HETATM   45  C28 UNL     1      11.826  21.824   3.422  1.00  0.00     0.012 C
HETATM   46  C29 UNL     1      14.182  21.254   3.349  1.00  0.00     0.012 C
ENDBRANCH  27  44
ENDBRANCH  25  27
ENDBRANCH   1  23
BRANCH   1  47
HETATM   47  C30 UNL     1      16.786  21.897   8.397  1.00  0.00    -0.022 C
HETATM   48  C31 UNL     1      16.082  21.228   9.533  1.00  0.00     0.017 C
HETATM   49  C32 UNL     1      16.281  23.325   8.333  1.00  0.00     0.017 C
HETATM   50  C33 UNL     1      18.263  21.939   8.701  1.00  0.00     0.017 C
ENDBRANCH   1  47
TORSDOF 17
ENDMDL