MODEL 5
REMARK VINA RESULT: -8.754271764      1.496      2.290
REMARK  12 active torsions:
REMARK  status: ('A' for Active; 'I' for Inactive)
REMARK    1  A    between atoms: C2_2  and  C4_4
REMARK    2  A    between atoms: C4_4  and  N1_5
REMARK       I    between atoms: N1_5  and  C5_6
REMARK    3  A    between atoms: N1_5  and  S3_38
REMARK    4  A    between atoms: C5_6  and  C6_8
REMARK    5  A    between atoms: C6_8  and  N2_9
REMARK    6  A    between atoms: C6_8  and  C23_35
REMARK       I    between atoms: N2_9  and  C7_11
REMARK    7  A    between atoms: C7_11  and  C8_13
REMARK    8  A    between atoms: C14_20  and  C15_21
REMARK       I    between atoms: C15_21  and  N3_23
REMARK    9  A    between atoms: N3_23  and  C16_25
REMARK   10  A    between atoms: C16_25  and  C18_27
REMARK   11  A    between atoms: S3_38  and  N5_41
REMARK   12  A    between atoms: N5_41  and  C26_43
ROOT
HETATM    1  N2  UNL     1      10.917  24.088   3.818  1.00  0.00    -0.347 N
ATOM      2  H2  UNL     1      11.495  24.928   3.824  1.00  0.00     0.163 HD
HETATM    3  C7  UNL     1      11.520  22.802   4.004  1.00  0.00     0.223 C
HETATM    4  O2  UNL     1      10.762  21.805   3.988  1.00  0.00    -0.273 OA
ENDROOT
BRANCH   3   5
HETATM    5  C8  UNL     1      12.974  22.605   4.210  1.00  0.00     0.092 C
HETATM    6  C9  UNL     1      13.566  23.911   4.615  1.00  0.00     0.089 C
HETATM    7  S1  UNL     1      14.019  23.717   6.353  1.00  0.00    -0.158 SA
HETATM    8  C10 UNL     1      13.554  21.972   6.533  1.00  0.00     0.009 C
HETATM    9  C11 UNL     1      12.355  21.828   7.470  1.00  0.00     0.027 C
HETATM   10  C12 UNL     1      14.698  21.219   7.167  1.00  0.00     0.021 C
HETATM   11  C22 UNL     1      13.200  21.543   5.185  1.00  0.00     0.018 C
HETATM   12  C13 UNL     1      15.949  21.334   6.318  1.00  0.00     0.015 C
HETATM   13  C14 UNL     1      15.651  20.968   4.896  1.00  0.00     0.078 C
HETATM   14  C21 UNL     1      14.234  20.582   4.641  1.00  0.00     0.021 C
BRANCH  13  15
HETATM   15  C15 UNL     1      16.520  19.829   4.507  1.00  0.00     0.222 C
HETATM   16  O3  UNL     1      17.770  19.998   4.391  1.00  0.00    -0.273 OA
HETATM   17  N3  UNL     1      16.041  18.532   4.250  1.00  0.00    -0.351 N
ATOM     18  H3  UNL     1      15.036  18.383   4.342  1.00  0.00     0.163 HD
BRANCH  17  19
HETATM   19  C16 UNL     1      16.829  17.411   3.873  1.00  0.00     0.137 C
HETATM   20  C17 UNL     1      17.617  17.623   2.618  1.00  0.00     0.039 C
BRANCH  19  21
HETATM   21  C18 UNL     1      17.766  17.041   4.997  1.00  0.00     0.073 A
HETATM   22  N4  UNL     1      17.765  17.417   6.262  1.00  0.00    -0.361 N
HETATM   23  C19 UNL     1      18.675  16.974   7.069  1.00  0.00     0.096 A
ATOM     24  H4  UNL     1      17.047  18.056   6.605  1.00  0.00     0.165 HD
HETATM   25  C20 UNL     1      19.618  16.115   6.552  1.00  0.00     0.068 A
HETATM   26  S2  UNL     1      19.118  16.006   4.921  1.00  0.00    -0.085 SA
ENDBRANCH  19  21
ENDBRANCH  17  19
ENDBRANCH  13  15
ENDBRANCH   3   5
BRANCH   1  27
HETATM   27  C6  UNL     1       9.467  24.198   3.619  1.00  0.00     0.181 C
BRANCH  27  28
HETATM   28  C5  UNL     1       8.926  25.403   4.257  1.00  0.00     0.257 C
HETATM   29  N1  UNL     1       9.346  26.002   5.470  1.00  0.00    -0.226 N
HETATM   30  O1  UNL     1       7.966  25.968   3.620  1.00  0.00    -0.270 OA
BRANCH  29  31
HETATM   31  C4  UNL     1      10.437  25.549   6.245  1.00  0.00     0.150 C
BRANCH  31  32
HETATM   32  C2  UNL     1      10.263  24.568   7.326  1.00  0.00    -0.003 C
HETATM   33  C1  UNL     1       8.886  24.379   7.875  1.00  0.00     0.011 C
HETATM   34  C3  UNL     1      11.184  25.064   8.485  1.00  0.00     0.011 C
ENDBRANCH  31  32
ENDBRANCH  29  31
BRANCH  29  35
HETATM   35  S3  UNL     1       8.498  27.434   6.033  1.00  0.00     0.324 S
HETATM   36  O4  UNL     1       7.061  27.119   6.282  1.00  0.00    -0.182 OA
HETATM   37  O5  UNL     1       8.530  28.437   4.912  1.00  0.00    -0.182 OA
BRANCH  35  38
HETATM   38  N5  UNL     1       9.257  27.964   7.442  1.00  0.00    -0.295 N
ATOM     39  H5  UNL     1      10.207  28.336   7.436  1.00  0.00     0.174 HD
BRANCH  38  40
HETATM   40  C26 UNL     1       8.485  27.863   8.656  1.00  0.00     0.120 C
HETATM   41  C27 UNL     1       9.335  27.632   9.871  1.00  0.00     0.054 C
HETATM   42  C28 UNL     1       9.041  28.922  10.656  1.00  0.00     0.169 C
HETATM   43  O6  UNL     1       7.729  29.242  10.294  1.00  0.00    -0.389 OA
HETATM   44  C29 UNL     1       7.621  29.035   8.929  1.00  0.00     0.193 C
ENDBRANCH  38  40
ENDBRANCH  35  38
ENDBRANCH  29  35
ENDBRANCH  27  28
BRANCH  27  45
HETATM   45  C23 UNL     1       9.305  24.340   2.101  1.00  0.00     0.009 C
HETATM   46  C24 UNL     1       8.907  23.060   1.420  1.00  0.00     0.012 C
HETATM   47  C25 UNL     1      10.450  25.005   1.423  1.00  0.00     0.012 C
ENDBRANCH  27  45
ENDBRANCH   1  27
TORSDOF 12
ENDMDL