MODEL 1
REMARK VINA RESULT: -9.788357300      0.000      0.000
REMARK  15 active torsions:
REMARK  status: ('A' for Active; 'I' for Inactive)
REMARK    1  A    between atoms: C2_2  and  C3_4
REMARK    2  A    between atoms: C8_11  and  C9_12
REMARK    3  A    between atoms: C9_12  and  O2_13
REMARK    4  A    between atoms: C9_12  and  N2_15
REMARK    5  A    between atoms: N2_15  and  C10_16
REMARK    6  A    between atoms: C10_16  and  C11_17
REMARK    7  A    between atoms: C10_16  and  C32_47
REMARK       I    between atoms: C11_17  and  N3_19
REMARK    8  A    between atoms: N3_19  and  C12_21
REMARK    9  A    between atoms: C12_21  and  C13_22
REMARK   10  A    between atoms: C12_21  and  C19_29
REMARK   11  A    between atoms: C13_22  and  C14_23
REMARK       I    between atoms: C19_29  and  N4_31
REMARK   12  A    between atoms: N4_31  and  C20_33
REMARK   13  A    between atoms: C20_33  and  C21_34
REMARK   14  A    between atoms: C20_33  and  C28_41
REMARK   15  A    between atoms: C21_34  and  C22_35
ROOT
HETATM    1  C11 UNL     1      10.301  24.752   6.270  1.00  0.00     0.279 C
HETATM    2  O3  UNL     1       9.330  24.017   5.914  1.00  0.00    -0.265 OA
HETATM    3  N3  UNL     1      11.582  24.204   6.003  1.00  0.00    -0.342 N
ATOM      4  H3  UNL     1      12.430  24.703   6.271  1.00  0.00     0.163 HD
ENDROOT
BRANCH   3   5
HETATM    5  C12 UNL     1      11.658  22.896   5.330  1.00  0.00     0.177 C
BRANCH   5   6
HETATM    6  C13 UNL     1      12.189  22.992   3.966  1.00  0.00     0.039 C
BRANCH   6   7
HETATM    7  C14 UNL     1      11.183  23.427   2.936  1.00  0.00    -0.008 C
HETATM    8  C15 UNL     1      10.968  24.892   2.805  1.00  0.00     0.031 C
HETATM    9  C16 UNL     1       9.739  25.214   1.992  1.00  0.00     0.168 C
HETATM   10  O4  UNL     1       8.678  24.375   2.207  1.00  0.00    -0.391 OA
HETATM   11  C17 UNL     1       9.038  23.071   1.897  1.00  0.00     0.168 C
HETATM   12  C18 UNL     1       9.925  22.613   3.064  1.00  0.00     0.031 C
ENDBRANCH   6   7
ENDBRANCH   5   6
BRANCH   5  13
HETATM   13  C19 UNL     1      12.704  22.076   6.153  1.00  0.00     0.244 C
HETATM   14  O5  UNL     1      12.357  22.032   7.342  1.00  0.00    -0.271 OA
HETATM   15  N4  UNL     1      13.789  21.543   5.482  1.00  0.00    -0.330 N
ATOM     16  H4  UNL     1      13.803  21.785   4.491  1.00  0.00     0.168 HD
BRANCH  15  17
HETATM   17  C20 UNL     1      14.892  20.730   5.871  1.00  0.00     0.019 C
BRANCH  17  18
HETATM   18  C21 UNL     1      15.787  20.354   4.744  1.00  0.00     0.060 C
BRANCH  18  19
HETATM   19  C22 UNL     1      15.241  19.372   3.759  1.00  0.00    -0.009 C
HETATM   20  C23 UNL     1      15.487  17.973   4.276  1.00  0.00     0.005 C
HETATM   21  C24 UNL     1      16.861  17.483   3.987  1.00  0.00     0.000 C
HETATM   22  C25 UNL     1      17.022  17.397   2.480  1.00  0.00     0.000 C
HETATM   23  C26 UNL     1      16.932  18.796   1.944  1.00  0.00     0.000 C
HETATM   24  C27 UNL     1      15.668  19.486   2.348  1.00  0.00     0.005 C
ENDBRANCH  18  19
ENDBRANCH  17  18
BRANCH  17  25
HETATM   25  C28 UNL     1      15.444  20.979   7.205  1.00  0.00     0.172 C
HETATM   26  C29 UNL     1      16.786  20.238   7.477  1.00  0.00     0.075 C
HETATM   27  C30 UNL     1      17.273  21.046   8.706  1.00  0.00     0.182 A
HETATM   28  O6  UNL     1      18.052  22.154   8.486  1.00  0.00    -0.348 OA
HETATM   29  C31 UNL     1      16.635  22.353   8.442  1.00  0.00     0.290 A
HETATM   30  O7  UNL     1      16.111  22.291   7.163  1.00  0.00    -0.348 OA
ENDBRANCH  17  25
ENDBRANCH  15  17
ENDBRANCH   5  13
ENDBRANCH   3   5
BRANCH   1  31
HETATM   31  C10 UNL     1      10.007  26.045   6.913  1.00  0.00     0.162 C
BRANCH  31  32
HETATM   32  N2  UNL     1       9.120  26.890   6.265  1.00  0.00    -0.378 NA
BRANCH  32  33
HETATM   33  C9  UNL     1       8.243  27.725   5.623  1.00  0.00     0.227 C
BRANCH  33  34
HETATM   34  C8  UNL     1       6.790  27.873   5.863  1.00  0.00     0.058 A
HETATM   35  C6  UNL     1       6.327  28.639   6.881  1.00  0.00     0.021 A
HETATM   36  N1  UNL     1       4.982  28.751   7.046  1.00  0.00    -0.362 N
HETATM   37  C7  UNL     1       7.215  29.429   7.824  1.00  0.00     0.069 C
HETATM   38  C4  UNL     1       4.055  28.163   6.275  1.00  0.00     0.020 A
ATOM     39  H1  UNL     1       4.650  29.328   7.819  1.00  0.00     0.165 HD
HETATM   40  C3  UNL     1       4.553  27.384   5.237  1.00  0.00     0.038 A
HETATM   41  C5  UNL     1       2.619  28.351   6.487  1.00  0.00     0.069 C
HETATM   42  C36 UNL     1       5.894  27.225   5.013  1.00  0.00    -0.029 A
HETATM   43  C37 UNL     1       6.394  26.390   3.895  1.00  0.00     0.050 C
BRANCH  40  44
HETATM   44  C2  UNL     1       3.592  26.723   4.356  1.00  0.00     0.158 C
HETATM   45  C1  UNL     1       3.077  25.356   4.677  1.00  0.00     0.097 C
HETATM   46  O1  UNL     1       3.173  27.274   3.311  1.00  0.00    -0.293 OA
ENDBRANCH  40  44
ENDBRANCH  33  34
BRANCH  33  47
HETATM   47  O2  UNL     1       8.575  28.546   4.656  1.00  0.00    -0.335 OA
ATOM     48  H2  UNL     1       8.619  28.043   3.851  1.00  0.00     0.220 HD
ENDBRANCH  33  47
ENDBRANCH  32  33
ENDBRANCH  31  32
BRANCH  31  49
HETATM   49  C32 UNL     1       9.940  26.007   8.431  1.00  0.00     0.010 C
HETATM   50  C33 UNL     1      10.894  25.084   9.080  1.00  0.00     0.022 C
HETATM   51  C34 UNL     1      10.222  27.428   8.964  1.00  0.00     0.022 C
HETATM   52  C35 UNL     1       8.542  25.647   8.901  1.00  0.00     0.022 C
ENDBRANCH  31  49
ENDBRANCH   1  31
TORSDOF 15
ENDMDL