MODEL 4
REMARK VINA RESULT: -8.900003913      3.445     11.325
REMARK  14 active torsions:
REMARK  status: ('A' for Active; 'I' for Inactive)
REMARK    1  A    between atoms: C2_2  and  C3_3
REMARK    2  A    between atoms: C3_3  and  C4_4
REMARK    3  A    between atoms: C4_4  and  C5_5
REMARK    4  A    between atoms: C5_5  and  N1_6
REMARK    5  A    between atoms: C5_5  and  C23_31
REMARK       I    between atoms: N1_6  and  C6_8
REMARK    6  A    between atoms: C6_8  and  C7_10
REMARK    7  A    between atoms: C7_10  and  N2_11
REMARK       I    between atoms: N2_11  and  C8_13
REMARK    8  A    between atoms: C8_13  and  C9_15
REMARK    9  A    between atoms: C13_19  and  N3_20
REMARK   10  A    between atoms: C23_31  and  C24_33
REMARK       I    between atoms: C24_33  and  N4_35
REMARK   11  A    between atoms: N4_35  and  C25_37
REMARK   12  A    between atoms: C29_42  and  O6_43
REMARK   13  A    between atoms: O6_43  and  C30_44
REMARK   14  A    between atoms: C30_44  and  C31_46
ROOT
HETATM    1  N1  UNL     1      10.268  25.830   6.198  1.00  0.00    -0.347 N
ATOM      2  H1  UNL     1       9.390  25.313   6.150  1.00  0.00     0.163 HD
HETATM    3  C6  UNL     1      11.173  25.495   5.196  1.00  0.00     0.247 C
HETATM    4  O1  UNL     1      12.294  26.053   5.165  1.00  0.00    -0.271 OA
ENDROOT
BRANCH   1   5
HETATM    5  C5  UNL     1      10.332  26.749   7.268  1.00  0.00     0.164 C
BRANCH   5   6
HETATM    6  C4  UNL     1      10.888  26.190   8.564  1.00  0.00     0.033 C
BRANCH   6   7
HETATM    7  C3  UNL     1      10.982  24.718   8.646  1.00  0.00     0.002 C
BRANCH   7   8
HETATM    8  C2  UNL     1      12.376  24.283   8.263  1.00  0.00    -0.004 C
HETATM    9  C1  UNL     1      12.488  22.855   7.843  1.00  0.00     0.005 C
ENDBRANCH   7   8
ENDBRANCH   6   7
ENDBRANCH   5   6
BRANCH   5  10
HETATM   10  C23 UNL     1       9.056  27.390   7.580  1.00  0.00     0.238 C
HETATM   11  O3  UNL     1       9.076  28.644   7.843  1.00  0.00    -0.285 OA
BRANCH  10  12
HETATM   12  C24 UNL     1       7.750  26.757   7.628  1.00  0.00     0.290 C
HETATM   13  O4  UNL     1       7.652  25.640   8.190  1.00  0.00    -0.264 OA
HETATM   14  N4  UNL     1       6.591  27.330   7.079  1.00  0.00    -0.345 N
ATOM     15  H4  UNL     1       6.705  28.232   6.615  1.00  0.00     0.163 HD
BRANCH  14  16
HETATM   16  C25 UNL     1       5.268  26.786   7.099  1.00  0.00     0.145 C
HETATM   17  C26 UNL     1       4.346  27.922   7.531  1.00  0.00     0.142 C
HETATM   18  C27 UNL     1       2.915  27.478   7.684  1.00  0.00     0.042 C
HETATM   19  O5  UNL     1       4.492  28.802   6.447  1.00  0.00    -0.382 OA
HETATM   20  C28 UNL     1       4.537  28.055   5.283  1.00  0.00     0.203 C
HETATM   21  C29 UNL     1       4.723  26.623   5.654  1.00  0.00     0.180 C
BRANCH  21  22
HETATM   22  O6  UNL     1       5.699  26.032   4.833  1.00  0.00    -0.311 OA
BRANCH  22  23
HETATM   23  C30 UNL     1       5.486  26.002   3.464  1.00  0.00     0.267 C
HETATM   24  O7  UNL     1       6.201  26.779   2.754  1.00  0.00    -0.264 OA
BRANCH  23  25
HETATM   25  C31 UNL     1       4.514  25.160   2.762  1.00  0.00     0.037 C
HETATM   26  C32 UNL     1       3.193  25.928   2.592  1.00  0.00     0.025 C
HETATM   27  C33 UNL     1       4.971  24.886   1.324  1.00  0.00     0.025 C
HETATM   28  C34 UNL     1       4.182  23.866   3.463  1.00  0.00     0.025 C
ENDBRANCH  23  25
ENDBRANCH  22  23
ENDBRANCH  21  22
ENDBRANCH  14  16
ENDBRANCH  10  12
ENDBRANCH   5  10
ENDBRANCH   1   5
BRANCH   3  29
HETATM   29  C7  UNL     1      10.913  24.488   4.113  1.00  0.00     0.122 C
HETATM   30  C18 UNL     1      10.664  25.284   2.863  1.00  0.00     0.042 C
HETATM   31  C19 UNL     1       9.284  25.668   2.544  1.00  0.00     0.004 C
HETATM   32  C20 UNL     1       8.891  24.929   1.252  1.00  0.00     0.010 C
HETATM   33  C21 UNL     1       8.992  23.438   1.611  1.00  0.00     0.074 C
HETATM   34  S1  UNL     1       8.511  23.292   3.332  1.00  0.00    -0.166 SA
HETATM   35  C22 UNL     1       9.861  23.496   4.475  1.00  0.00     0.115 C
BRANCH  29  36
HETATM   36  N2  UNL     1      12.133  23.738   3.849  1.00  0.00    -0.342 N
HETATM   37  C8  UNL     1      12.311  22.382   4.191  1.00  0.00     0.222 C
HETATM   38  O2  UNL     1      11.369  21.781   4.758  1.00  0.00    -0.273 OA
ATOM     39  H2  UNL     1      12.904  24.222   3.389  1.00  0.00     0.163 HD
BRANCH  37  40
HETATM   40  C9  UNL     1      13.548  21.607   3.926  1.00  0.00     0.078 C
HETATM   41  C10 UNL     1      14.779  22.488   4.026  1.00  0.00     0.014 C
HETATM   42  C11 UNL     1      15.492  22.280   5.345  1.00  0.00     0.003 C
HETATM   43  C12 UNL     1      16.166  20.958   5.479  1.00  0.00     0.036 C
HETATM   44  C13 UNL     1      16.025  20.038   4.315  1.00  0.00     0.222 C
HETATM   45  C16 UNL     1      14.661  19.420   4.314  1.00  0.00     0.036 C
HETATM   46  C17 UNL     1      13.668  20.418   4.859  1.00  0.00     0.016 C
BRANCH  44  47
HETATM   47  N3  UNL     1      17.092  19.056   4.393  1.00  0.00     0.084 N
HETATM   48  C14 UNL     1      16.634  17.720   4.169  1.00  0.00     0.309 C
HETATM   49  C15 UNL     1      17.882  19.191   5.587  1.00  0.00     0.309 C
ENDBRANCH  44  47
ENDBRANCH  37  40
ENDBRANCH  29  36
ENDBRANCH   3  29
TORSDOF 14
ENDMDL