MODEL 5
REMARK VINA RESULT: -8.986783933      4.740      9.194
REMARK  15 active torsions:
REMARK  status: ('A' for Active; 'I' for Inactive)
REMARK    1  A    between atoms: C2_2  and  O2_4
REMARK    2  A    between atoms: O2_4  and  C3_5
REMARK    3  A    between atoms: C3_5  and  C5_7
REMARK    4  A    between atoms: C5_7  and  C6_8
REMARK    5  A    between atoms: C6_8  and  C7_9
REMARK       I    between atoms: N1_15  and  C12_17
REMARK    6  A    between atoms: C12_17  and  C13_19
REMARK    7  A    between atoms: C14_20  and  C15_21
REMARK       I    between atoms: C15_21  and  N2_23
REMARK    8  A    between atoms: N2_23  and  C16_25
REMARK    9  A    between atoms: C16_25  and  C17_26
REMARK   10  A    between atoms: C16_25  and  C21_30
REMARK   11  A    between atoms: C17_26  and  C18_27
REMARK       I    between atoms: C21_30  and  N3_32
REMARK   12  A    between atoms: N3_32  and  C22_34
REMARK   13  A    between atoms: C26_38  and  C27_39
REMARK   14  A    between atoms: C32_46  and  C33_47
REMARK   15  A    between atoms: C33_47  and  O9_50
ROOT
HETATM    1  C13 UNL     1       4.389  27.881   6.261  1.00  0.00     0.133 C
HETATM    2  C14 UNL     1       5.394  29.002   6.513  1.00  0.00     0.237 C
HETATM    3  O7  UNL     1       4.716  29.904   7.370  1.00  0.00    -0.305 OA
HETATM    4  C31 UNL     1       3.395  29.618   7.497  1.00  0.00     0.267 C
HETATM    5  O8  UNL     1       2.522  30.194   8.191  1.00  0.00    -0.265 OA
HETATM    6  C32 UNL     1       3.062  28.429   6.637  1.00  0.00     0.135 C
ENDROOT
BRANCH   2   7
HETATM    7  C15 UNL     1       6.660  28.533   7.096  1.00  0.00     0.252 C
HETATM    8  O5  UNL     1       7.631  29.314   7.108  1.00  0.00    -0.270 OA
HETATM    9  N2  UNL     1       6.822  27.229   7.650  1.00  0.00    -0.324 N
ATOM     10  H2  UNL     1       6.036  26.579   7.635  1.00  0.00     0.169 HD
BRANCH   9  11
HETATM   11  C16 UNL     1       8.053  26.818   8.221  1.00  0.00     0.080 C
BRANCH  11  12
HETATM   12  C17 UNL     1       8.359  27.173   9.614  1.00  0.00     0.067 C
BRANCH  12  13
HETATM   13  C18 UNL     1       9.285  28.337   9.768  1.00  0.00    -0.017 C
HETATM   14  C19 UNL     1      10.750  27.873   9.647  1.00  0.00     0.010 C
HETATM   15  C20 UNL     1       9.182  29.101  11.056  1.00  0.00     0.010 C
ENDBRANCH  12  13
ENDBRANCH  11  12
BRANCH  11  16
HETATM   16  C21 UNL     1       8.511  25.493   7.735  1.00  0.00     0.264 C
HETATM   17  O6  UNL     1       8.066  24.469   8.339  1.00  0.00    -0.266 OA
HETATM   18  N3  UNL     1       9.394  25.262   6.664  1.00  0.00    -0.351 N
ATOM     19  H3  UNL     1       9.776  26.073   6.178  1.00  0.00     0.163 HD
BRANCH  18  20
HETATM   20  C22 UNL     1       9.791  23.962   6.209  1.00  0.00     0.089 C
HETATM   21  C23 UNL     1      10.291  23.940   4.795  1.00  0.00     0.026 C
HETATM   22  C24 UNL     1      11.208  22.739   4.693  1.00  0.00     0.002 C
HETATM   23  C25 UNL     1      11.284  22.162   6.077  1.00  0.00     0.007 C
HETATM   24  C26 UNL     1      10.773  23.216   7.029  1.00  0.00     0.016 C
BRANCH  24  25
HETATM   25  C27 UNL     1      11.880  23.910   7.682  1.00  0.00    -0.046 C
HETATM   26  C28 UNL     1      12.570  24.982   6.935  1.00  0.00     0.015 C
HETATM   27  C29 UNL     1      12.961  22.830   7.950  1.00  0.00     0.015 C
HETATM   28  C30 UNL     1      11.562  24.412   9.091  1.00  0.00     0.015 C
ENDBRANCH  24  25
ENDBRANCH  18  20
ENDBRANCH  11  16
ENDBRANCH   9  11
ENDBRANCH   2   7
BRANCH   1  29
HETATM   29  C12 UNL     1       4.416  27.619   4.792  1.00  0.00     0.230 C
HETATM   30  N1  UNL     1       5.206  26.706   4.108  1.00  0.00    -0.331 N
HETATM   31  C5  UNL     1       4.806  25.611   3.572  1.00  0.00     0.019 C
ATOM     32  H1  UNL     1       6.198  26.927   4.023  1.00  0.00     0.168 HD
HETATM   33  O4  UNL     1       3.599  28.346   4.096  1.00  0.00    -0.273 OA
BRANCH  31  34
HETATM   34  C3  UNL     1       3.368  25.229   3.670  1.00  0.00     0.173 C
HETATM   35  C4  UNL     1       3.105  23.909   4.323  1.00  0.00     0.046 C
BRANCH  34  36
HETATM   36  O2  UNL     1       2.784  25.258   2.358  1.00  0.00    -0.311 OA
BRANCH  36  37
HETATM   37  C2  UNL     1       2.412  26.412   1.711  1.00  0.00     0.255 C
HETATM   38  C1  UNL     1       1.024  26.955   1.885  1.00  0.00     0.126 C
HETATM   39  O1  UNL     1       3.258  26.978   0.987  1.00  0.00    -0.266 OA
ENDBRANCH  36  37
ENDBRANCH  34  36
ENDBRANCH  31  34
BRANCH  31  40
HETATM   40  C6  UNL     1       5.795  24.802   2.827  1.00  0.00     0.062 C
BRANCH  40  41
HETATM   41  C7  UNL     1       7.187  25.001   3.249  1.00  0.00     0.022 C
HETATM   42  C8  UNL     1       8.168  24.251   2.294  1.00  0.00     0.010 C
HETATM   43  C9  UNL     1       9.023  25.350   1.678  1.00  0.00     0.035 C
HETATM   44  C10 UNL     1       7.994  26.437   1.719  1.00  0.00     0.151 A
HETATM   45  O3  UNL     1       7.718  27.418   2.527  1.00  0.00    -0.375 OA
HETATM   46  C11 UNL     1       7.787  26.324   3.236  1.00  0.00     0.155 A
ENDBRANCH  40  41
ENDBRANCH  31  40
ENDBRANCH   1  29
BRANCH   6  47
HETATM   47  C33 UNL     1       2.073  27.572   7.293  1.00  0.00     0.064 C
HETATM   48  C34 UNL     1       0.628  27.854   6.970  1.00  0.00     0.046 C
HETATM   49  C35 UNL     1       2.272  26.087   7.103  1.00  0.00     0.046 C
BRANCH  47  50
HETATM   50  O9  UNL     1       2.184  27.797   8.689  1.00  0.00    -0.390 OA
ATOM     51  H9  UNL     1       2.240  26.945   9.107  1.00  0.00     0.210 HD
ENDBRANCH  47  50
ENDBRANCH   6  47
TORSDOF 15
ENDMDL