MODEL 2
REMARK VINA RESULT: -9.146527468      1.108      1.566
REMARK  17 active torsions:
REMARK  status: ('A' for Active; 'I' for Inactive)
REMARK    1  A    between atoms: C2_2  and  C4_4
REMARK    2  A    between atoms: C4_4  and  C5_5
REMARK    3  A    between atoms: C5_5  and  N1_6
REMARK    4  A    between atoms: C5_5  and  C11_15
REMARK       I    between atoms: N1_6  and  C6_8
REMARK    5  A    between atoms: C6_8  and  O2_10
REMARK    6  A    between atoms: O2_10  and  C7_11
REMARK    7  A    between atoms: C11_15  and  C12_17
REMARK    8  A    between atoms: C12_17  and  O4_18
REMARK    9  A    between atoms: C12_17  and  N2_20
REMARK   10  A    between atoms: N2_20  and  C13_22
REMARK   11  A    between atoms: C13_22  and  C14_23
REMARK   12  A    between atoms: C13_22  and  C21_30
REMARK   13  A    between atoms: C14_23  and  C15_24
REMARK   14  A    between atoms: C21_30  and  N3_32
REMARK       I    between atoms: N4_38  and  C28_39
REMARK   15  A    between atoms: C28_39  and  C29_41
REMARK   16  A    between atoms: C29_41  and  O6_42
REMARK   17  A    between atoms: O6_42  and  C30_43
REMARK       I    between atoms: C30_43  and  N5_45
ROOT
HETATM    1  C13 UNL     1      11.749  24.322   7.000  1.00  0.00     0.102 C
ENDROOT
BRANCH   1   2
HETATM    2  N2  UNL     1      11.143  24.473   5.774  1.00  0.00    -0.385 N
ATOM      3  H2  UNL     1      10.633  23.657   5.436  1.00  0.00     0.156 HD
BRANCH   2   4
HETATM    4  C12 UNL     1      11.124  25.569   4.937  1.00  0.00     0.287 C
BRANCH   4   5
HETATM    5  C11 UNL     1       9.674  26.064   4.835  1.00  0.00     0.197 C
HETATM    6  O3  UNL     1       9.490  27.135   5.389  1.00  0.00    -0.291 OA
BRANCH   5   7
HETATM    7  C5  UNL     1       8.657  25.282   4.127  1.00  0.00     0.161 C
BRANCH   7   8
HETATM    8  C4  UNL     1       8.810  23.786   4.283  1.00  0.00     0.037 C
BRANCH   8   9
HETATM    9  C2  UNL     1       8.845  23.116   2.921  1.00  0.00    -0.020 C
HETATM   10  C1  UNL     1       9.993  22.107   2.947  1.00  0.00     0.009 C
HETATM   11  C3  UNL     1       9.114  24.083   1.817  1.00  0.00     0.009 C
ENDBRANCH   8   9
ENDBRANCH   7   8
BRANCH   7  12
HETATM   12  N1  UNL     1       7.318  25.567   4.627  1.00  0.00    -0.325 N
HETATM   13  C6  UNL     1       6.331  26.258   3.938  1.00  0.00     0.361 C
HETATM   14  O1  UNL     1       6.544  26.701   2.790  1.00  0.00    -0.238 OA
ATOM     15  H1  UNL     1       7.087  25.231   5.561  1.00  0.00     0.165 HD
BRANCH  13  16
HETATM   16  O2  UNL     1       5.095  26.468   4.510  1.00  0.00    -0.294 OA
BRANCH  16  17
HETATM   17  C7  UNL     1       4.824  27.386   5.532  1.00  0.00     0.061 C
HETATM   18  C8  UNL     1       3.655  28.245   5.038  1.00  0.00     0.046 C
HETATM   19  C9  UNL     1       4.336  26.714   6.799  1.00  0.00     0.046 C
HETATM   20  C10 UNL     1       5.974  28.304   5.860  1.00  0.00     0.046 C
ENDBRANCH  16  17
ENDBRANCH  13  16
ENDBRANCH   7  12
ENDBRANCH   5   7
ENDBRANCH   4   5
BRANCH   4  21
HETATM   21  O4  UNL     1      11.602  25.455   3.659  1.00  0.00    -0.370 OA
ATOM     22  H4  UNL     1      12.195  24.712   3.647  1.00  0.00     0.212 HD
ENDBRANCH   4  21
ENDBRANCH   2   4
ENDBRANCH   1   2
BRANCH   1  23
HETATM   23  C14 UNL     1      10.911  24.528   8.195  1.00  0.00     0.031 C
BRANCH  23  24
HETATM   24  C15 UNL     1      10.055  25.720   8.325  1.00  0.00    -0.013 C
HETATM   25  C16 UNL     1       8.609  25.210   8.624  1.00  0.00     0.005 C
HETATM   26  C17 UNL     1       7.724  26.418   8.449  1.00  0.00     0.000 C
HETATM   27  C18 UNL     1       8.433  27.686   8.821  1.00  0.00     0.000 C
HETATM   28  C19 UNL     1       9.417  27.518   9.952  1.00  0.00     0.000 C
HETATM   29  C20 UNL     1      10.419  26.437   9.626  1.00  0.00     0.005 C
ENDBRANCH  23  24
ENDBRANCH   1  23
BRANCH   1  30
HETATM   30  C21 UNL     1      12.227  22.836   7.072  1.00  0.00     0.105 C
HETATM   31  C22 UNL     1      11.161  21.977   6.450  1.00  0.00     0.034 C
BRANCH  30  32
HETATM   32  N3  UNL     1      13.521  22.678   6.470  1.00  0.00    -0.344 N
HETATM   33  C23 UNL     1      13.673  22.622   5.049  1.00  0.00     0.136 C
HETATM   34  C24 UNL     1      14.419  21.419   4.543  1.00  0.00    -0.015 C
HETATM   35  C25 UNL     1      13.938  20.129   5.160  1.00  0.00     0.018 C
HETATM   36  C26 UNL     1      14.173  21.315   3.049  1.00  0.00     0.018 C
HETATM   37  C27 UNL     1      15.911  21.512   4.768  1.00  0.00     0.136 C
HETATM   38  N4  UNL     1      16.303  21.473   6.142  1.00  0.00    -0.341 N
HETATM   39  C28 UNL     1      17.006  20.361   6.662  1.00  0.00     0.244 C
HETATM   40  C33 UNL     1      16.038  22.514   7.131  1.00  0.00     0.228 C
HETATM   41  O5  UNL     1      17.269  19.413   5.876  1.00  0.00    -0.271 OA
HETATM   42  C34 UNL     1      14.587  22.580   7.436  1.00  0.00     0.238 C
HETATM   43  O8  UNL     1      14.242  22.549   8.657  1.00  0.00    -0.272 OA
BRANCH  39  44
HETATM   44  C29 UNL     1      17.417  20.309   8.075  1.00  0.00     0.283 C
BRANCH  44  45
HETATM   45  O6  UNL     1      18.270  19.231   8.354  1.00  0.00    -0.295 OA
BRANCH  45  46
HETATM   46  C30 UNL     1      18.017  18.200   9.215  1.00  0.00     0.362 C
HETATM   47  O7  UNL     1      17.633  18.462  10.393  1.00  0.00    -0.238 OA
HETATM   48  N5  UNL     1      18.170  16.843   8.824  1.00  0.00    -0.337 N
HETATM   49  C31 UNL     1      18.610  16.559   7.481  1.00  0.00     0.154 C
HETATM   50  C32 UNL     1      17.889  15.758   9.763  1.00  0.00     0.154 C
ENDBRANCH  45  46
ENDBRANCH  44  45
ENDBRANCH  39  44
ENDBRANCH  30  32
ENDBRANCH   1  30
TORSDOF 17
ENDMDL