MODEL 5
REMARK VINA RESULT: -9.402518194      1.402      2.119
REMARK  12 active torsions:
REMARK  status: ('A' for Active; 'I' for Inactive)
REMARK    1  A    between atoms: O1_2  and  C2_3
REMARK    2  A    between atoms: C3_4  and  C4_5
REMARK       I    between atoms: C4_5  and  N1_7
REMARK    3  A    between atoms: N1_7  and  C5_9
REMARK    4  A    between atoms: C12_17  and  C13_18
REMARK    5  A    between atoms: C13_18  and  N2_19
REMARK    6  A    between atoms: N2_19  and  O4_20
REMARK    7  A    between atoms: N2_19  and  C14_22
REMARK    8  A    between atoms: C18_27  and  C19_28
REMARK       I    between atoms: C19_28  and  N3_30
REMARK    9  A    between atoms: C20_32  and  C22_34
REMARK   10  A    between atoms: C22_34  and  C23_36
REMARK   11  A    between atoms: C23_36  and  N4_38
REMARK       I    between atoms: N4_38  and  C25_40
REMARK   12  A    between atoms: C25_40  and  C26_42
ROOT
HETATM    1  C2  UNL     1      11.151  24.319   4.388  1.00  0.00     0.190 C
HETATM    2  C3  UNL     1      12.324  23.955   5.212  1.00  0.00     0.245 C
HETATM    3  O3  UNL     1      12.103  24.172   6.531  1.00  0.00    -0.362 OA
HETATM    4  C10 UNL     1      10.826  24.719   6.728  1.00  0.00     0.177 C
HETATM    5  C11 UNL     1      10.863  25.797   7.739  1.00  0.00     0.012 C
HETATM    6  C12 UNL     1       9.920  26.414   8.378  1.00  0.00    -0.057 C
HETATM    7  C15 UNL     1       8.442  26.249   8.268  1.00  0.00     0.013 C
HETATM    8  C16 UNL     1       7.921  24.894   8.589  1.00  0.00     0.015 C
HETATM    9  C17 UNL     1       7.913  26.864   6.996  1.00  0.00     0.025 C
HETATM   10  C18 UNL     1       7.139  25.967   6.099  1.00  0.00     0.102 C
HETATM   11  C34 UNL     1       8.042  25.613   4.936  1.00  0.00     0.182 C
HETATM   12  O9  UNL     1       8.934  24.625   5.230  1.00  0.00    -0.379 OA
HETATM   13  C35 UNL     1      10.260  25.066   5.403  1.00  0.00     0.186 C
ENDROOT
BRANCH  10  14
HETATM   14  C19 UNL     1       5.899  26.662   5.569  1.00  0.00     0.228 C
HETATM   15  O6  UNL     1       5.506  26.291   4.441  1.00  0.00    -0.273 OA
HETATM   16  N3  UNL     1       5.243  27.647   6.279  1.00  0.00    -0.327 N
HETATM   17  C20 UNL     1       4.047  27.902   6.551  1.00  0.00     0.056 C
ATOM     18  H3  UNL     1       5.886  28.331   6.679  1.00  0.00     0.168 HD
HETATM   19  C21 UNL     1       3.773  29.141   7.398  1.00  0.00     0.072 C
BRANCH  17  20
HETATM   20  C22 UNL     1       2.858  27.170   6.168  1.00  0.00     0.193 C
HETATM   21  O7  UNL     1       2.313  26.400   6.982  1.00  0.00    -0.289 OA
BRANCH  20  22
HETATM   22  C23 UNL     1       2.223  27.276   4.823  1.00  0.00     0.156 C
HETATM   23  C24 UNL     1       2.364  28.626   4.198  1.00  0.00     0.041 C
BRANCH  22  24
HETATM   24  N4  UNL     1       2.795  26.298   3.962  1.00  0.00    -0.349 N
HETATM   25  C25 UNL     1       2.171  25.047   3.749  1.00  0.00     0.227 C
HETATM   26  O8  UNL     1       1.091  24.795   4.331  1.00  0.00    -0.273 OA
ATOM     27  H4  UNL     1       3.674  26.503   3.489  1.00  0.00     0.163 HD
BRANCH  25  28
HETATM   28  C26 UNL     1       2.793  24.039   2.839  1.00  0.00     0.044 C
HETATM   29  C27 UNL     1       3.775  23.169   3.599  1.00  0.00     0.020 C
HETATM   30  C28 UNL     1       3.143  21.818   3.767  1.00  0.00     0.002 C
HETATM   31  C29 UNL     1       1.706  21.992   3.330  1.00  0.00     0.006 C
HETATM   32  C30 UNL     1       1.719  23.133   2.329  1.00  0.00     0.003 C
HETATM   33  C31 UNL     1       2.310  22.579   1.047  1.00  0.00     0.006 C
HETATM   34  C32 UNL     1       3.146  23.716   0.494  1.00  0.00     0.002 C
HETATM   35  C33 UNL     1       3.397  24.663   1.626  1.00  0.00     0.020 C
ENDBRANCH  25  28
ENDBRANCH  22  24
ENDBRANCH  20  22
ENDBRANCH  17  20
ENDBRANCH  10  14
BRANCH   6  36
HETATM   36  C13 UNL     1      10.376  27.487   9.363  1.00  0.00     0.193 C
BRANCH  36  37
HETATM   37  N2  UNL     1       9.512  28.636   9.343  1.00  0.00    -0.232 N
BRANCH  37  38
HETATM   38  O4  UNL     1       9.412  29.421   8.257  1.00  0.00    -0.285 OA
ATOM     39  H4  UNL     1       9.677  30.333   8.278  1.00  0.00     0.245 HD
ENDBRANCH  37  38
BRANCH  37  40
HETATM   40  C14 UNL     1       8.758  28.953  10.499  1.00  0.00     0.376 C
HETATM   41  O5  UNL     1       9.286  29.333  11.569  1.00  0.00    -0.281 OA
ENDBRANCH  37  40
ENDBRANCH  36  37
ENDBRANCH   6  36
BRANCH   1  42
HETATM   42  O1  UNL     1      11.543  25.166   3.369  1.00  0.00    -0.385 OA
HETATM   43  C1  UNL     1      10.809  24.976   2.202  1.00  0.00     0.202 C
ENDBRANCH   1  42
BRANCH   2  44
HETATM   44  C4  UNL     1      12.770  22.541   4.946  1.00  0.00     0.249 C
HETATM   45  O2  UNL     1      11.945  21.599   4.926  1.00  0.00    -0.271 OA
HETATM   46  N1  UNL     1      14.135  22.236   4.708  1.00  0.00    -0.354 N
ATOM     47  H1  UNL     1      14.801  23.009   4.725  1.00  0.00     0.162 HD
BRANCH  46  48
HETATM   48  C5  UNL     1      14.651  20.924   4.447  1.00  0.00     0.084 C
HETATM   49  C6  UNL     1      16.043  20.709   4.932  1.00  0.00     0.025 C
HETATM   50  C7  UNL     1      16.530  19.522   4.134  1.00  0.00     0.002 C
HETATM   51  C8  UNL     1      15.536  19.334   2.994  1.00  0.00     0.002 C
HETATM   52  C9  UNL     1      14.800  20.680   2.940  1.00  0.00     0.025 C
ENDBRANCH  46  48
ENDBRANCH   2  44
TORSDOF 12
ENDMDL