MODEL 5
REMARK VINA RESULT: -8.566190402      2.817     10.189
REMARK  17 active torsions:
REMARK  status: ('A' for Active; 'I' for Inactive)
REMARK    1  A    between atoms: C2_2  and  C3_3
REMARK    2  A    between atoms: C3_3  and  O1_5
REMARK    3  A    between atoms: O1_5  and  C5_6
REMARK    4  A    between atoms: C8_9  and  C9_10
REMARK    5  A    between atoms: C9_10  and  N1_11
REMARK    6  A    between atoms: C9_10  and  C24_39
REMARK    7  A    between atoms: N1_11  and  C10_13
REMARK    8  A    between atoms: C10_13  and  O2_14
REMARK    9  A    between atoms: C10_13  and  C11_16
REMARK   10  A    between atoms: C11_16  and  N2_17
REMARK   11  A    between atoms: C11_16  and  C20_35
REMARK       I    between atoms: N2_17  and  C12_19
REMARK   12  A    between atoms: C12_19  and  C13_21
REMARK   13  A    between atoms: C15_25  and  C16_26
REMARK   14  A    between atoms: C16_26  and  C17_27
REMARK   15  A    between atoms: C17_27  and  N4_30
REMARK   16  A    between atoms: C24_39  and  O4_40
REMARK   17  A    between atoms: C24_39  and  C25_42
REMARK       I    between atoms: C25_42  and  N5_44
REMARK       I    between atoms: N6_47  and  C28_48
ROOT
HETATM    1  N1  UNL     1      12.681  22.707   5.315  1.00  0.00    -0.362 N
ATOM      2  H1  UNL     1      13.165  23.326   4.664  1.00  0.00     0.162 HD
ENDROOT
BRANCH   1   3
HETATM    3  C9  UNL     1      11.190  22.880   5.541  1.00  0.00     0.150 C
BRANCH   3   4
HETATM    4  C8  UNL     1      11.005  23.850   6.600  1.00  0.00     0.015 C
HETATM    5  C7  UNL     1      11.786  25.126   6.425  1.00  0.00     0.009 C
HETATM    6  C6  UNL     1      11.775  25.935   7.719  1.00  0.00     0.032 C
HETATM    7  C5  UNL     1      10.333  26.257   8.081  1.00  0.00     0.122 C
HETATM    8  C33 UNL     1       9.549  24.974   8.183  1.00  0.00     0.032 C
HETATM    9  C32 UNL     1       9.552  24.314   6.810  1.00  0.00     0.009 C
BRANCH   7  10
HETATM   10  O1  UNL     1      10.336  26.958   9.271  1.00  0.00    -0.381 OA
BRANCH  10  11
HETATM   11  C3  UNL     1       9.135  27.669   9.351  1.00  0.00     0.117 C
HETATM   12  C4  UNL     1       9.120  28.604  10.531  1.00  0.00     0.039 C
BRANCH  11  13
HETATM   13  C2  UNL     1       9.028  28.526   8.089  1.00  0.00     0.027 C
HETATM   14  C1  UNL     1       7.614  28.978   7.889  1.00  0.00     0.007 C
ENDBRANCH  11  13
ENDBRANCH  10  11
ENDBRANCH   7  10
ENDBRANCH   3   4
BRANCH   3  15
HETATM   15  C24 UNL     1      10.755  23.180   4.155  1.00  0.00     0.134 C
BRANCH  15  16
HETATM   16  O4  UNL     1      10.797  22.082   3.425  1.00  0.00    -0.358 OA
ATOM     17  H4  UNL     1      10.455  21.349   3.924  1.00  0.00     0.217 HD
ENDBRANCH  15  16
BRANCH  15  18
HETATM   18  C25 UNL     1      10.338  24.337   3.494  1.00  0.00     0.274 C
HETATM   19  O5  UNL     1      11.141  25.225   3.037  1.00  0.00    -0.266 OA
HETATM   20  N5  UNL     1       8.967  24.660   3.252  1.00  0.00    -0.344 N
HETATM   21  C26 UNL     1       7.880  23.824   3.643  1.00  0.00     0.146 C
HETATM   22  C31 UNL     1       8.633  25.922   2.560  1.00  0.00     0.146 C
HETATM   23  C27 UNL     1       6.508  24.353   3.223  1.00  0.00     0.145 C
HETATM   24  N6  UNL     1       6.399  25.760   3.484  1.00  0.00    -0.349 N
HETATM   25  C28 UNL     1       5.167  26.325   3.869  1.00  0.00     0.215 C
HETATM   26  C30 UNL     1       7.560  26.642   3.359  1.00  0.00     0.145 C
HETATM   27  C29 UNL     1       3.973  25.432   4.004  1.00  0.00     0.117 C
HETATM   28  O6  UNL     1       5.069  27.567   4.097  1.00  0.00    -0.274 OA
ENDBRANCH  15  18
ENDBRANCH   3  15
ENDBRANCH   1   3
BRANCH   1  29
HETATM   29  C10 UNL     1      13.395  21.725   5.977  1.00  0.00     0.136 C
BRANCH  29  30
HETATM   30  O2  UNL     1      12.796  20.552   6.032  1.00  0.00    -0.348 OA
ATOM     31  H2  UNL     1      12.121  20.420   5.377  1.00  0.00     0.219 HD
ENDBRANCH  29  30
BRANCH  29  32
HETATM   32  C11 UNL     1      14.696  21.729   6.631  1.00  0.00     0.166 C
BRANCH  32  33
HETATM   33  N2  UNL     1      15.426  20.525   6.275  1.00  0.00    -0.344 N
HETATM   34  C12 UNL     1      16.113  20.359   5.056  1.00  0.00     0.260 C
HETATM   35  O3  UNL     1      16.104  21.276   4.211  1.00  0.00    -0.267 OA
ATOM     36  H2  UNL     1      15.444  19.756   6.946  1.00  0.00     0.163 HD
BRANCH  34  37
HETATM   37  C13 UNL     1      16.854  19.132   4.729  1.00  0.00     0.089 A
HETATM   38  C14 UNL     1      16.435  18.051   3.998  1.00  0.00     0.113 A
HETATM   39  N3  UNL     1      17.257  17.062   3.844  1.00  0.00    -0.362 N
HETATM   40  C15 UNL     1      18.465  17.131   4.396  1.00  0.00     0.053 A
ATOM     41  H3  UNL     1      16.982  16.240   3.306  1.00  0.00     0.165 HD
HETATM   42  S1  UNL     1      18.437  18.651   5.158  1.00  0.00    -0.070 SA
BRANCH  40  43
HETATM   43  C16 UNL     1      19.498  16.052   4.306  1.00  0.00     0.102 C
BRANCH  43  44
HETATM   44  C17 UNL     1      19.832  15.498   5.667  1.00  0.00     0.122 C
HETATM   45  C18 UNL     1      18.626  15.501   6.578  1.00  0.00     0.046 C
HETATM   46  C19 UNL     1      20.205  14.027   5.432  1.00  0.00     0.046 C
BRANCH  44  47
HETATM   47  N4  UNL     1      20.918  16.139   6.312  1.00  0.00    -0.071 N
ATOM     48  H43 UNL     1      21.553  15.446   6.708  1.00  0.00     0.275 HD
ATOM     49  H42 UNL     1      21.536  16.569   5.623  1.00  0.00     0.275 HD
ATOM     50  H41 UNL     1      20.648  16.820   7.021  1.00  0.00     0.275 HD
ENDBRANCH  44  47
ENDBRANCH  43  44
ENDBRANCH  40  43
ENDBRANCH  34  37
ENDBRANCH  32  33
BRANCH  32  51
HETATM   51  C20 UNL     1      14.681  22.033   8.075  1.00  0.00    -0.023 C
HETATM   52  C21 UNL     1      13.378  22.545   8.624  1.00  0.00     0.017 C
HETATM   53  C22 UNL     1      15.701  23.184   8.278  1.00  0.00     0.017 C
HETATM   54  C23 UNL     1      15.083  20.868   8.961  1.00  0.00     0.017 C
ENDBRANCH  32  51
ENDBRANCH  29  32
ENDBRANCH   1  29
TORSDOF 17
ENDMDL