MODEL 1
REMARK VINA RESULT: -8.961315994      0.000      0.000
REMARK  18 active torsions:
REMARK  status: ('A' for Active; 'I' for Inactive)
REMARK    1  A    between atoms: C2_2  and  O1_3
REMARK    2  A    between atoms: O1_3  and  C3_4
REMARK       I    between atoms: C3_4  and  N1_6
REMARK    3  A    between atoms: C6_9  and  C7_10
REMARK    4  A    between atoms: C6_9  and  C24_34
REMARK    5  A    between atoms: C7_10  and  N2_11
REMARK    6  A    between atoms: N2_11  and  C9_13
REMARK    7  A    between atoms: C9_13  and  O3_14
REMARK    8  A    between atoms: C9_13  and  C10_16
REMARK    9  A    between atoms: C10_16  and  N3_18
REMARK   10  A    between atoms: N3_18  and  C12_20
REMARK   11  A    between atoms: C12_20  and  C13_21
REMARK   12  A    between atoms: C12_20  and  C18_28
REMARK   13  A    between atoms: C13_21  and  O5_23
REMARK   14  A    between atoms: O5_23  and  C14_24
REMARK       I    between atoms: C24_34  and  N4_36
REMARK   15  A    between atoms: N4_36  and  C25_38
REMARK   16  A    between atoms: C25_38  and  C26_39
REMARK   17  A    between atoms: C25_38  and  C30_46
REMARK   18  A    between atoms: C26_39  and  C27_40
ROOT
HETATM    1  C3  UNL     1       8.746  27.508   7.590  1.00  0.00     0.366 C
HETATM    2  O2  UNL     1       8.702  28.273   6.658  1.00  0.00    -0.238 OA
HETATM    3  N1  UNL     1       9.436  26.290   7.804  1.00  0.00    -0.308 N
HETATM    4  C4  UNL     1       8.888  25.046   7.292  1.00  0.00     0.135 C
HETATM    5  C5  UNL     1       9.853  23.943   7.464  1.00  0.00     0.045 C
HETATM    6  C6  UNL     1      11.189  24.256   6.913  1.00  0.00     0.079 C
HETATM    7  C31 UNL     1      11.752  25.393   7.816  1.00  0.00     0.069 C
HETATM    8  C32 UNL     1      10.719  26.171   8.453  1.00  0.00     0.070 C
ENDROOT
BRANCH   6   9
HETATM    9  C7  UNL     1      12.155  23.203   7.053  1.00  0.00     0.085 C
BRANCH   9  10
HETATM   10  N2  UNL     1      12.657  22.480   5.906  1.00  0.00    -0.347 N
HETATM   11  C8  UNL     1      11.989  21.545   5.073  1.00  0.00     0.157 C
BRANCH  10  12
HETATM   12  C9  UNL     1      14.053  22.602   5.819  1.00  0.00     0.139 C
BRANCH  12  13
HETATM   13  O3  UNL     1      14.248  23.447   4.823  1.00  0.00    -0.348 OA
ATOM     14  H3  UNL     1      15.122  23.788   4.970  1.00  0.00     0.219 HD
ENDBRANCH  12  13
BRANCH  12  15
HETATM   15  C10 UNL     1      15.215  22.105   6.486  1.00  0.00     0.148 C
HETATM   16  C11 UNL     1      15.817  23.364   7.166  1.00  0.00     0.040 C
BRANCH  15  17
HETATM   17  N3  UNL     1      16.123  21.632   5.505  1.00  0.00    -0.397 N
ATOM     18  H3  UNL     1      16.433  22.230   4.739  1.00  0.00     0.154 HD
BRANCH  17  19
HETATM   19  C12 UNL     1      16.589  20.284   5.628  1.00  0.00     0.182 C
BRANCH  19  20
HETATM   20  C13 UNL     1      17.797  20.019   6.434  1.00  0.00     0.282 C
HETATM   21  O4  UNL     1      18.923  20.193   6.050  1.00  0.00    -0.263 OA
BRANCH  20  22
HETATM   22  O5  UNL     1      17.541  19.438   7.697  1.00  0.00    -0.310 OA
BRANCH  22  23
HETATM   23  C14 UNL     1      17.623  20.231   8.861  1.00  0.00     0.060 C
HETATM   24  C15 UNL     1      18.228  21.540   8.903  1.00  0.00     0.045 C
HETATM   25  C16 UNL     1      18.303  19.195   9.824  1.00  0.00     0.045 C
HETATM   26  C17 UNL     1      16.196  20.336   9.419  1.00  0.00     0.045 C
ENDBRANCH  22  23
ENDBRANCH  20  22
ENDBRANCH  19  20
BRANCH  19  27
HETATM   27  C18 UNL     1      16.647  19.574   4.316  1.00  0.00     0.018 C
HETATM   28  C19 UNL     1      16.757  18.085   4.367  1.00  0.00     0.007 C
HETATM   29  C20 UNL     1      16.749  17.581   2.943  1.00  0.00     0.000 C
HETATM   30  C21 UNL     1      16.719  18.691   1.918  1.00  0.00     0.000 C
HETATM   31  C22 UNL     1      15.538  19.620   2.117  1.00  0.00     0.000 C
HETATM   32  C23 UNL     1      15.254  19.774   3.602  1.00  0.00     0.007 C
ENDBRANCH  19  27
ENDBRANCH  17  19
ENDBRANCH  15  17
ENDBRANCH  12  15
ENDBRANCH  10  12
ENDBRANCH   9  10
ENDBRANCH   6   9
BRANCH   6  33
HETATM   33  C24 UNL     1      11.196  24.930   5.572  1.00  0.00     0.236 C
HETATM   34  O6  UNL     1      12.070  25.750   5.177  1.00  0.00    -0.272 OA
HETATM   35  N4  UNL     1      10.182  24.722   4.712  1.00  0.00    -0.324 N
ATOM     36  H4  UNL     1       9.529  24.011   5.043  1.00  0.00     0.169 HD
BRANCH  35  37
HETATM   37  C25 UNL     1       9.790  25.281   3.399  1.00  0.00     0.094 C
BRANCH  37  38
HETATM   38  C26 UNL     1       8.698  26.287   3.482  1.00  0.00     0.122 C
BRANCH  38  39
HETATM   39  C27 UNL     1       7.408  25.624   2.883  1.00  0.00     0.021 A
HETATM   40  C28 UNL     1       7.036  26.012   1.663  1.00  0.00     0.076 A
HETATM   41  S1  UNL     1       5.339  25.382   1.627  1.00  0.00    -0.095 SA
HETATM   42  C29 UNL     1       5.538  24.573   3.200  1.00  0.00     0.138 A
HETATM   43  N5  UNL     1       6.688  24.923   3.587  1.00  0.00    -0.363 N
ATOM     44  H5  UNL     1       7.023  24.618   4.501  1.00  0.00     0.165 HD
ENDBRANCH  38  39
ENDBRANCH  37  38
BRANCH  37  45
HETATM   45  C30 UNL     1       9.926  24.327   2.376  1.00  0.00     0.222 C
HETATM   46  O7  UNL     1      10.356  24.528   1.245  1.00  0.00    -0.643 OA
HETATM   47  O8  UNL     1       9.616  23.013   2.710  1.00  0.00    -0.643 OA
ENDBRANCH  37  45
ENDBRANCH  35  37
ENDBRANCH   6  33
BRANCH   1  48
HETATM   48  O1  UNL     1       7.952  27.871   8.746  1.00  0.00    -0.304 OA
BRANCH  48  49
HETATM   49  C2  UNL     1       8.301  29.035   9.477  1.00  0.00     0.176 C
HETATM   50  C1  UNL     1       9.145  28.730  10.685  1.00  0.00     0.034 C
ENDBRANCH  48  49
ENDBRANCH   1  48
TORSDOF 18
ENDMDL