MODEL 3
REMARK VINA RESULT: -8.956030014      3.980     12.501
REMARK  14 active torsions:
REMARK  status: ('A' for Active; 'I' for Inactive)
REMARK    1  A    between atoms: O1_2  and  C2_3
REMARK    2  A    between atoms: C2_3  and  C3_5
REMARK    3  A    between atoms: C3_5  and  N1_6
REMARK       I    between atoms: N1_6  and  C4_8
REMARK    4  A    between atoms: C4_8  and  C5_10
REMARK    5  A    between atoms: C5_10  and  C6_11
REMARK    6  A    between atoms: C5_10  and  C12_17
REMARK    7  A    between atoms: C6_11  and  C7_12
REMARK       I    between atoms: C12_17  and  N2_19
REMARK    8  A    between atoms: N2_19  and  C13_21
REMARK    9  A    between atoms: C13_21  and  C14_22
REMARK   10  A    between atoms: C13_21  and  C20_28
REMARK   11  A    between atoms: C14_22  and  C15_23
REMARK   12  A    between atoms: C20_28  and  C21_30
REMARK       I    between atoms: C21_30  and  N3_32
REMARK   13  A    between atoms: C26_38  and  C27_39
REMARK       I    between atoms: C27_39  and  N4_41
REMARK   14  A    between atoms: N4_41  and  C28_43
ROOT
HETATM    1  C13 UNL     1      10.543  23.468   5.236  1.00  0.00     0.164 C
ENDROOT
BRANCH   1   2
HETATM    2  N2  UNL     1       9.482  24.259   5.814  1.00  0.00    -0.348 N
HETATM    3  C12 UNL     1       9.501  25.671   5.932  1.00  0.00     0.231 C
HETATM    4  O4  UNL     1      10.509  26.283   5.504  1.00  0.00    -0.273 OA
ATOM      5  H2  UNL     1       8.659  23.766   6.162  1.00  0.00     0.163 HD
BRANCH   3   6
HETATM    6  C5  UNL     1       8.364  26.416   6.543  1.00  0.00     0.170 C
BRANCH   6   7
HETATM    7  C4  UNL     1       7.254  26.541   5.580  1.00  0.00     0.232 C
HETATM    8  N1  UNL     1       5.899  26.205   5.842  1.00  0.00    -0.341 N
ATOM      9  H1  UNL     1       5.651  25.858   6.768  1.00  0.00     0.163 HD
HETATM   10  O3  UNL     1       7.519  26.976   4.418  1.00  0.00    -0.273 OA
BRANCH   8  11
HETATM   11  C3  UNL     1       4.845  26.337   4.834  1.00  0.00     0.124 A
HETATM   12  C32 UNL     1       4.234  27.760   4.688  1.00  0.00     0.049 A
HETATM   13  C33 UNL     1       3.463  26.622   5.307  1.00  0.00     0.023 A
HETATM   14  C34 UNL     1       2.285  26.144   4.504  1.00  0.00     0.013 C
BRANCH  11  15
HETATM   15  C2  UNL     1       4.965  25.596   3.565  1.00  0.00     0.287 C
HETATM   16  O2  UNL     1       4.978  24.334   3.522  1.00  0.00    -0.262 OA
BRANCH  15  17
HETATM   17  O1  UNL     1       5.068  26.313   2.383  1.00  0.00    -0.325 OA
HETATM   18  C1  UNL     1       4.716  25.671   1.162  1.00  0.00     0.213 C
ENDBRANCH  15  17
ENDBRANCH  11  15
ENDBRANCH   8  11
ENDBRANCH   6   7
BRANCH   6  19
HETATM   19  C6  UNL     1       7.959  25.719   7.804  1.00  0.00     0.028 C
BRANCH  19  20
HETATM   20  C7  UNL     1       8.210  26.577   9.026  1.00  0.00    -0.013 C
HETATM   21  C8  UNL     1       7.791  28.027   8.727  1.00  0.00     0.005 C
HETATM   22  C9  UNL     1       8.548  28.800   9.766  1.00  0.00     0.000 C
HETATM   23  C10 UNL     1       9.840  28.042   9.993  1.00  0.00     0.000 C
HETATM   24  C11 UNL     1       9.672  26.705   9.331  1.00  0.00     0.005 C
ENDBRANCH  19  20
ENDBRANCH   6  19
ENDBRANCH   3   6
ENDBRANCH   1   2
BRANCH   1  25
HETATM   25  C14 UNL     1      10.134  22.533   4.189  1.00  0.00     0.038 C
BRANCH  25  26
HETATM   26  C15 UNL     1       9.786  23.217   2.860  1.00  0.00    -0.012 C
HETATM   27  C16 UNL     1       8.357  23.763   2.977  1.00  0.00     0.005 C
HETATM   28  C17 UNL     1       8.305  24.770   1.811  1.00  0.00     0.000 C
HETATM   29  C18 UNL     1       9.628  25.500   1.967  1.00  0.00     0.000 C
HETATM   30  C19 UNL     1      10.551  24.481   2.653  1.00  0.00     0.005 C
ENDBRANCH  25  26
ENDBRANCH   1  25
BRANCH   1  31
HETATM   31  C20 UNL     1      11.421  22.939   6.311  1.00  0.00     0.239 C
HETATM   32  O5  UNL     1      11.186  23.426   7.488  1.00  0.00    -0.285 OA
BRANCH  31  33
HETATM   33  C21 UNL     1      12.473  21.983   6.245  1.00  0.00     0.293 C
HETATM   34  O6  UNL     1      12.260  20.910   5.586  1.00  0.00    -0.264 OA
HETATM   35  N3  UNL     1      13.755  22.175   6.893  1.00  0.00    -0.322 N
HETATM   36  C22 UNL     1      14.094  23.412   7.538  1.00  0.00     0.202 C
HETATM   37  C26 UNL     1      14.703  21.131   6.964  1.00  0.00     0.198 C
HETATM   38  S1  UNL     1      15.914  23.231   7.832  1.00  0.00    -0.137 SA
HETATM   39  C23 UNL     1      15.810  21.391   7.900  1.00  0.00     0.032 C
HETATM   40  C24 UNL     1      17.153  20.899   7.511  1.00  0.00     0.029 C
HETATM   41  C25 UNL     1      15.406  20.966   9.298  1.00  0.00     0.029 C
BRANCH  37  42
HETATM   42  C27 UNL     1      15.222  20.743   5.653  1.00  0.00     0.242 C
HETATM   43  O7  UNL     1      15.664  21.661   4.881  1.00  0.00    -0.271 OA
HETATM   44  N4  UNL     1      15.289  19.426   5.139  1.00  0.00    -0.351 N
ATOM     45  H4  UNL     1      14.938  18.664   5.720  1.00  0.00     0.163 HD
BRANCH  44  46
HETATM   46  C28 UNL     1      15.824  19.100   3.844  1.00  0.00     0.022 C
HETATM   47  C29 UNL     1      17.342  19.294   3.813  1.00  0.00     0.037 C
HETATM   48  C30 UNL     1      15.524  17.645   3.554  1.00  0.00     0.037 C
HETATM   49  C31 UNL     1      15.249  19.903   2.712  1.00  0.00     0.037 C
ENDBRANCH  44  46
ENDBRANCH  37  42
ENDBRANCH  31  33
ENDBRANCH   1  31
TORSDOF 14
ENDMDL