MODEL 5
REMARK VINA RESULT: -6.565395318      2.042      4.739
REMARK  7 active torsions:
REMARK  status: ('A' for Active; 'I' for Inactive)
REMARK    1  A    between atoms: C2_2  and  C3_3
REMARK       I    between atoms: C3_3  and  N1_5
REMARK    2  A    between atoms: N1_5  and  C4_7
REMARK    3  A    between atoms: C4_7  and  C5_8
REMARK       I    between atoms: C5_8  and  N2_10
REMARK    4  A    between atoms: N2_10  and  C6_12
REMARK    5  A    between atoms: C6_12  and  C7_13
REMARK    6  A    between atoms: C7_13  and  O3_14
REMARK    7  A    between atoms: C17_25  and  C18_26
ROOT
HETATM    1  C4  UNL     1      -1.211   2.650  21.601  1.00  0.00     0.114 C
HETATM    2  C15 UNL     1      -0.598   3.991  21.883  1.00  0.00     0.041 C
HETATM    3  C16 UNL     1      -0.651   4.172  23.381  1.00  0.00     0.010 C
HETATM    4  C17 UNL     1      -0.436   2.783  23.897  1.00  0.00     0.020 C
HETATM    5  C23 UNL     1      -0.904   1.823  22.830  1.00  0.00     0.048 C
ENDROOT
BRANCH   1   6
HETATM    6  N1  UNL     1      -2.648   2.714  21.486  1.00  0.00    -0.343 N
HETATM    7  C3  UNL     1      -3.324   3.755  20.843  1.00  0.00     0.218 C
HETATM    8  O1  UNL     1      -2.793   4.744  20.292  1.00  0.00    -0.274 OA
ATOM      9  H1  UNL     1      -3.200   1.961  21.897  1.00  0.00     0.163 HD
BRANCH   7  10
HETATM   10  C2  UNL     1      -4.831   3.727  20.784  1.00  0.00     0.098 C
HETATM   11  C1  UNL     1      -5.389   2.347  20.758  1.00  0.00     0.014 C
ENDBRANCH   7  10
ENDBRANCH   1   6
BRANCH   1  12
HETATM   12  C5  UNL     1      -0.626   2.055  20.374  1.00  0.00     0.246 C
HETATM   13  O2  UNL     1      -0.412   2.750  19.349  1.00  0.00    -0.271 OA
HETATM   14  N2  UNL     1      -0.294   0.679  20.328  1.00  0.00    -0.348 N
ATOM     15  H2  UNL     1      -0.476   0.126  21.166  1.00  0.00     0.163 HD
BRANCH  14  16
HETATM   16  C6  UNL     1       0.283  -0.008  19.194  1.00  0.00     0.054 C
HETATM   17  C8  UNL     1       0.722  -1.354  19.642  1.00  0.00     0.033 C
HETATM   18  C9  UNL     1       0.646  -2.451  18.647  1.00  0.00     0.003 C
HETATM   19  C10 UNL     1      -0.785  -2.503  18.151  1.00  0.00     0.009 C
HETATM   20  C11 UNL     1      -1.037  -1.243  17.398  1.00  0.00    -0.045 C
HETATM   21  C12 UNL     1      -0.380  -1.403  16.020  1.00  0.00     0.015 C
HETATM   22  C13 UNL     1      -2.548  -1.235  17.097  1.00  0.00     0.015 C
HETATM   23  C14 UNL     1      -0.669   0.025  18.052  1.00  0.00     0.042 C
BRANCH  16  24
HETATM   24  C7  UNL     1       1.568   0.720  18.767  1.00  0.00     0.195 C
BRANCH  24  25
HETATM   25  O3  UNL     1       1.358   1.286  17.487  1.00  0.00    -0.398 OA
ATOM     26  H3  UNL     1       1.969   0.887  16.878  1.00  0.00     0.209 HD
ENDBRANCH  24  25
ENDBRANCH  16  24
ENDBRANCH  14  16
ENDBRANCH   1  12
BRANCH   4  27
HETATM   27  C18 UNL     1      -1.249   2.634  25.172  1.00  0.00     0.149 C
HETATM   28  C19 UNL     1      -1.399   3.941  25.894  1.00  0.00     0.200 C
HETATM   29  O4  UNL     1      -1.587   3.664  27.254  1.00  0.00    -0.386 OA
HETATM   30  C20 UNL     1      -0.405   3.209  27.826  1.00  0.00     0.199 C
HETATM   31  C21 UNL     1       0.349   2.438  26.770  1.00  0.00     0.141 C
HETATM   32  C22 UNL     1       1.283   1.411  27.364  1.00  0.00     0.042 C
HETATM   33  O5  UNL     1      -0.586   1.748  25.999  1.00  0.00    -0.376 OA
ENDBRANCH   4  27
TORSDOF 7
ENDMDL