MODEL 4
REMARK VINA RESULT: -7.120695604      1.459      1.874
REMARK  9 active torsions:
REMARK  status: ('A' for Active; 'I' for Inactive)
REMARK    1  A    between atoms: C4_4  and  C5_5
REMARK       I    between atoms: C5_5  and  N1_7
REMARK    2  A    between atoms: N1_7  and  C6_8
REMARK    3  A    between atoms: C13_15  and  O2_16
REMARK    4  A    between atoms: O2_16  and  O3_17
REMARK    5  A    between atoms: C16_21  and  C17_22
REMARK    6  A    between atoms: C18_23  and  C19_24
REMARK    7  A    between atoms: C20_25  and  C21_26
REMARK    8  A    between atoms: C21_26  and  C22_27
REMARK    9  A    between atoms: C23_30  and  C24_31
ROOT
HETATM    1  C1  UNL     1      -2.868   9.277  19.370  1.00  0.00     0.027 C
HETATM    2  C2  UNL     1      -2.519   8.207  19.817  1.00  0.00    -0.025 C
HETATM    3  C3  UNL     1      -2.128   6.966  20.363  1.00  0.00    -0.005 C
HETATM    4  C4  UNL     1      -1.812   5.918  20.855  1.00  0.00     0.024 C
ENDROOT
BRANCH   4   5
HETATM    5  C5  UNL     1      -1.435   4.623  21.515  1.00  0.00     0.367 C
HETATM    6  O1  UNL     1      -0.825   3.879  20.684  1.00  0.00    -0.242 OA
HETATM    7  N1  UNL     1      -1.773   4.453  22.798  1.00  0.00    -0.398 NA
BRANCH   7   8
HETATM    8  C6  UNL     1      -2.122   4.276  24.121  1.00  0.00     0.172 C
HETATM    9  C7  UNL     1      -2.894   5.359  24.849  1.00  0.00     0.051 C
HETATM   10  C8  UNL     1      -3.749   4.867  25.984  1.00  0.00    -0.019 C
HETATM   11  C9  UNL     1      -4.943   4.239  25.304  1.00  0.00     0.012 C
HETATM   12  C14 UNL     1      -3.217   3.924  26.967  1.00  0.00     0.001 C
HETATM   13  C23 UNL     1      -3.885   5.924  26.993  1.00  0.00     0.025 C
HETATM   14  C10 UNL     1      -4.413   3.261  24.270  1.00  0.00     0.009 C
HETATM   15  C11 UNL     1      -2.935   3.016  24.296  1.00  0.00     0.024 C
HETATM   16  C12 UNL     1      -2.444   2.194  25.452  1.00  0.00     0.043 C
HETATM   17  C13 UNL     1      -2.039   3.090  26.616  1.00  0.00     0.170 C
HETATM   18  C15 UNL     1      -4.234   3.033  27.672  1.00  0.00     0.019 C
HETATM   19  C16 UNL     1      -2.917   5.094  27.883  1.00  0.00     0.028 C
BRANCH  17  20
HETATM   20  O2  UNL     1      -1.837   2.198  27.699  1.00  0.00    -0.237 OA
BRANCH  20  21
HETATM   21  O3  UNL     1      -0.762   1.482  27.585  1.00  0.00    -0.250 OA
ATOM     22  H3  UNL     1       0.002   1.985  27.328  1.00  0.00     0.253 HD
ENDBRANCH  20  21
ENDBRANCH  17  20
BRANCH  19  23
HETATM   23  C17 UNL     1      -1.531   5.545  27.863  1.00  0.00    -0.021 C
HETATM   24  C18 UNL     1      -1.019   6.476  28.578  1.00  0.00    -0.004 C
BRANCH  24  25
HETATM   25  C19 UNL     1      -1.730   7.253  29.555  1.00  0.00    -0.004 C
HETATM   26  C20 UNL     1      -1.033   8.006  30.437  1.00  0.00    -0.016 C
BRANCH  26  27
HETATM   27  C21 UNL     1      -1.677   8.830  31.474  1.00  0.00     0.140 C
BRANCH  27  28
HETATM   28  C22 UNL     1      -0.846   8.643  32.708  1.00  0.00     0.176 C
HETATM   29  O4  UNL     1      -1.040   7.697  33.506  1.00  0.00    -0.648 OA
HETATM   30  O5  UNL     1       0.171   9.527  32.991  1.00  0.00    -0.648 OA
ENDBRANCH  27  28
ENDBRANCH  26  27
ENDBRANCH  24  25
ENDBRANCH  19  23
BRANCH  13  31
HETATM   31  C24 UNL     1      -5.077   6.331  27.674  1.00  0.00    -0.031 C
HETATM   32  C25 UNL     1      -5.819   7.402  27.674  1.00  0.00     0.007 C
ENDBRANCH  13  31
ENDBRANCH   7   8
ENDBRANCH   4   5
TORSDOF 9
ENDMDL