MODEL 2
REMARK VINA RESULT: -6.686573357      3.010      5.637
REMARK  8 active torsions:
REMARK  status: ('A' for Active; 'I' for Inactive)
REMARK    1  A    between atoms: O1_2  and  C2_3
REMARK    2  A    between atoms: C2_3  and  C3_4
REMARK    3  A    between atoms: C3_4  and  C4_5
REMARK    4  A    between atoms: C4_5  and  C5_6
REMARK    5  A    between atoms: C5_6  and  C6_7
REMARK    6  A    between atoms: C6_7  and  O2_8
REMARK    7  A    between atoms: C17_21  and  O4_22
REMARK    8  A    between atoms: C23_29  and  O5_30
ROOT
HETATM    1  C5  UNL     1      -2.373   4.208  21.526  1.00  0.00    -0.015 C
HETATM    2  C7  UNL     1      -2.638   2.769  21.150  1.00  0.00     0.012 C
HETATM    3  C8  UNL     1      -3.790   2.128  21.804  1.00  0.00     0.005 C
HETATM    4  C9  UNL     1      -4.153   2.565  23.168  1.00  0.00    -0.014 C
HETATM    5  C10 UNL     1      -5.688   2.573  23.336  1.00  0.00     0.010 C
HETATM    6  C11 UNL     1      -3.657   3.870  23.629  1.00  0.00    -0.001 C
HETATM    7  C12 UNL     1      -3.515   3.837  25.154  1.00  0.00     0.004 C
HETATM    8  C13 UNL     1      -3.443   5.220  25.719  1.00  0.00     0.084 C
HETATM    9  C14 UNL     1      -3.111   5.183  27.146  1.00  0.00     0.132 C
HETATM   10  O3  UNL     1      -3.364   6.205  27.803  1.00  0.00    -0.298 OA
HETATM   11  C15 UNL     1      -2.511   4.066  27.877  1.00  0.00     0.066 C
HETATM   12  C16 UNL     1      -1.203   4.525  28.469  1.00  0.00     0.044 C
HETATM   13  C17 UNL     1      -0.744   3.439  29.386  1.00  0.00     0.119 C
HETATM   14  C18 UNL     1      -0.458   2.209  28.592  1.00  0.00     0.032 C
HETATM   15  C19 UNL     1      -1.460   1.795  27.600  1.00  0.00     0.013 C
HETATM   16  C20 UNL     1      -2.417   2.805  27.079  1.00  0.00    -0.027 C
HETATM   17  C21 UNL     1      -3.817   2.152  27.214  1.00  0.00     0.016 C
HETATM   18  C22 UNL     1      -2.305   3.041  25.584  1.00  0.00     0.028 C
HETATM   19  C23 UNL     1      -1.128   3.811  25.125  1.00  0.00     0.123 C
HETATM   20  C24 UNL     1      -1.158   3.797  23.612  1.00  0.00     0.038 C
HETATM   21  C25 UNL     1      -2.403   4.401  23.013  1.00  0.00     0.003 C
ENDROOT
BRANCH   1  22
HETATM   22  C4  UNL     1      -3.062   5.197  20.685  1.00  0.00     0.014 C
BRANCH  22  23
HETATM   23  C3  UNL     1      -3.796   6.338  21.240  1.00  0.00     0.027 C
BRANCH  23  24
HETATM   24  C2  UNL     1      -3.741   7.567  20.312  1.00  0.00     0.167 C
BRANCH  24  25
HETATM   25  O1  UNL     1      -2.691   7.487  19.434  1.00  0.00    -0.396 OA
HETATM   26  C1  UNL     1      -2.038   8.693  19.407  1.00  0.00     0.201 C
ENDBRANCH  24  25
ENDBRANCH  23  24
ENDBRANCH  22  23
ENDBRANCH   1  22
BRANCH   1  27
HETATM   27  C6  UNL     1      -0.871   4.406  21.128  1.00  0.00     0.173 C
BRANCH  27  28
HETATM   28  O2  UNL     1      -0.618   5.655  20.649  1.00  0.00    -0.400 OA
ATOM     29  H2  UNL     1       0.125   6.065  21.075  1.00  0.00     0.209 HD
ENDBRANCH  27  28
ENDBRANCH   1  27
BRANCH  19  30
HETATM   30  O5  UNL     1       0.112   3.244  25.450  1.00  0.00    -0.395 OA
ATOM     31  H5  UNL     1       0.655   3.017  24.704  1.00  0.00     0.210 HD
ENDBRANCH  19  30
BRANCH  13  32
HETATM   32  O4  UNL     1       0.443   3.860  29.992  1.00  0.00    -0.396 OA
ATOM     33  H4  UNL     1       0.217   4.307  30.799  1.00  0.00     0.210 HD
ENDBRANCH  13  32
TORSDOF 8
ENDMDL