MODEL 5
REMARK VINA RESULT: -7.606572209      1.805      2.068
REMARK  8 active torsions:
REMARK  status: ('A' for Active; 'I' for Inactive)
REMARK    1  A    between atoms: C2_2  and  C3_3
REMARK    2  A    between atoms: C2_2  and  C12_21
REMARK       I    between atoms: C3_3  and  N1_5
REMARK    3  A    between atoms: N1_5  and  C4_7
REMARK    4  A    between atoms: C4_7  and  C5_8
REMARK    5  A    between atoms: C8_11  and  C9_12
REMARK    6  A    between atoms: C9_12  and  N2_13
REMARK    7  A    between atoms: N2_13  and  N3_15
REMARK    8  A    between atoms: N3_15  and  N4_16
ROOT
HETATM    1  C1  UNL     1      -2.090   2.536  25.833  1.00  0.00     0.022 C
HETATM    2  C2  UNL     1      -2.803   3.800  25.358  1.00  0.00     0.096 C
ENDROOT
BRANCH   2   3
HETATM    3  C3  UNL     1      -2.725   3.776  23.892  1.00  0.00     0.223 C
HETATM    4  O1  UNL     1      -3.310   2.899  23.235  1.00  0.00    -0.273 OA
HETATM    5  N1  UNL     1      -1.974   4.769  23.220  1.00  0.00    -0.360 N
ATOM      6  H1  UNL     1      -1.494   5.489  23.760  1.00  0.00     0.162 HD
BRANCH   5   7
HETATM    7  C4  UNL     1      -1.878   4.775  21.777  1.00  0.00     0.127 C
BRANCH   7   8
HETATM    8  C5  UNL     1      -2.094   6.163  21.215  1.00  0.00     0.003 C
HETATM    9  C6  UNL     1      -1.364   6.271  19.905  1.00  0.00     0.007 C
HETATM   10  C7  UNL     1      -1.471   7.729  19.463  1.00  0.00     0.007 C
HETATM   11  C8  UNL     1      -2.885   8.135  19.240  1.00  0.00     0.006 C
HETATM   12  C10 UNL     1      -3.892   7.142  19.752  1.00  0.00     0.007 C
HETATM   13  C11 UNL     1      -3.528   6.506  21.042  1.00  0.00     0.007 C
BRANCH  11  14
HETATM   14  C9  UNL     1      -3.189   9.509  19.830  1.00  0.00     0.160 C
BRANCH  14  15
HETATM   15  N2  UNL     1      -4.604   9.806  19.710  1.00  0.00    -0.252 N
ATOM     16  H2  UNL     1      -5.137   9.358  18.965  1.00  0.00     0.196 HD
BRANCH  15  17
HETATM   17  N3  UNL     1      -5.186  10.578  20.474  1.00  0.00    -0.249 NA
BRANCH  17  18
HETATM   18  N4  UNL     1      -5.963  11.312  21.058  1.00  0.00    -0.261 N
ATOM     19  H42 UNL     1      -5.191  11.817  21.492  1.00  0.00     0.193 HD
ATOM     20  H41 UNL     1      -6.769  11.805  21.443  1.00  0.00     0.193 HD
ENDBRANCH  17  18
ENDBRANCH  15  17
ENDBRANCH  14  15
ENDBRANCH  11  14
ENDBRANCH   7   8
ENDBRANCH   5   7
ENDBRANCH   2   3
BRANCH   2  21
HETATM   21  C12 UNL     1      -2.221   4.989  26.034  1.00  0.00     0.098 C
HETATM   22  C13 UNL     1      -3.191   5.999  26.512  1.00  0.00     0.026 C
HETATM   23  C14 UNL     1      -4.080   5.397  27.581  1.00  0.00     0.009 C
HETATM   24  C15 UNL     1      -4.114   6.272  28.785  1.00  0.00     0.094 C
HETATM   25  C16 UNL     1      -2.850   6.283  29.603  1.00  0.00     0.251 C
HETATM   26  N5  UNL     1      -2.052   5.106  29.496  1.00  0.00    -0.288 N
HETATM   27  O3  UNL     1      -3.264   6.457  30.940  1.00  0.00    -0.338 OA
HETATM   28  O4  UNL     1      -2.152   7.444  29.261  1.00  0.00    -0.338 OA
HETATM   29  C17 UNL     1      -1.299   4.473  28.490  1.00  0.00     0.320 C
ATOM     30  H5  UNL     1      -2.018   4.589  30.375  1.00  0.00     0.169 HD
HETATM   31  O2  UNL     1      -0.409   3.733  28.935  1.00  0.00    -0.247 OA
HETATM   32  N6  UNL     1      -1.338   4.499  27.082  1.00  0.00    -0.338 N
ATOM     33  H6  UNL     1      -0.515   4.047  26.685  1.00  0.00     0.164 HD
HETATM   34  C18 UNL     1      -2.212   6.578  31.810  1.00  0.00     0.175 C
HETATM   35  C19 UNL     1      -1.108   7.469  31.350  1.00  0.00     0.053 C
HETATM   36  C20 UNL     1      -0.904   7.495  29.871  1.00  0.00     0.175 C
ENDBRANCH   2  21
TORSDOF 8
ENDMDL