MODEL 5
REMARK VINA RESULT: -7.151491204      2.809      4.502
REMARK  8 active torsions:
REMARK  status: ('A' for Active; 'I' for Inactive)
REMARK    1  A    between atoms: C3_3  and  N1_4
REMARK       I    between atoms: N1_4  and  C4_6
REMARK    2  A    between atoms: C4_6  and  C5_8
REMARK    3  A    between atoms: C8_11  and  C9_12
REMARK    4  A    between atoms: C9_12  and  O2_13
REMARK    5  A    between atoms: N2_15  and  O3_17
REMARK    6  A    between atoms: N3_20  and  S1_21
REMARK    7  A    between atoms: S1_21  and  C11_24
REMARK    8  A    between atoms: C11_24  and  C12_25
ROOT
HETATM    1  C1  UNL     1      -0.245   3.074  28.913  1.00  0.00     0.015 C
HETATM    2  C2  UNL     1      -1.174   3.769  28.548  1.00  0.00    -0.081 C
HETATM    3  C3  UNL     1      -2.332   4.599  28.080  1.00  0.00     0.114 C
HETATM    4  C14 UNL     1      -3.421   4.433  29.061  1.00  0.00     0.049 C
HETATM    5  C15 UNL     1      -4.118   5.620  29.591  1.00  0.00     0.004 C
HETATM    6  C16 UNL     1      -3.326   6.670  30.265  1.00  0.00     0.000 C
HETATM    7  C17 UNL     1      -2.036   6.267  30.862  1.00  0.00     0.004 C
HETATM    8  C18 UNL     1      -0.826   6.510  30.039  1.00  0.00     0.027 C
HETATM    9  C19 UNL     1      -0.961   6.700  28.595  1.00  0.00    -0.027 C
HETATM   10  C20 UNL     1      -1.913   5.978  27.770  1.00  0.00     0.013 C
ENDROOT
BRANCH   3  11
HETATM   11  N1  UNL     1      -2.708   3.962  26.820  1.00  0.00    -0.336 N
HETATM   12  C4  UNL     1      -3.666   4.417  25.911  1.00  0.00     0.243 C
HETATM   13  O1  UNL     1      -4.332   5.462  26.081  1.00  0.00    -0.271 OA
ATOM     14  H1  UNL     1      -2.222   3.097  26.580  1.00  0.00     0.164 HD
BRANCH  12  15
HETATM   15  C5  UNL     1      -3.977   3.676  24.636  1.00  0.00     0.192 C
HETATM   16  C6  UNL     1      -2.852   2.724  24.315  1.00  0.00     0.037 C
HETATM   17  C7  UNL     1      -1.701   3.428  23.630  1.00  0.00     0.020 C
HETATM   18  C8  UNL     1      -2.255   4.020  22.354  1.00  0.00     0.101 C
HETATM   19  C10 UNL     1      -3.335   4.980  22.688  1.00  0.00     0.090 C
HETATM   20  N3  UNL     1      -4.316   4.576  23.606  1.00  0.00    -0.276 N
BRANCH  18  21
HETATM   21  C9  UNL     1      -1.172   4.713  21.615  1.00  0.00     0.144 C
HETATM   22  N2  UNL     1      -1.453   5.734  20.888  1.00  0.00    -0.251 N
ATOM     23  H2  UNL     1      -2.421   6.053  20.830  1.00  0.00     0.196 HD
BRANCH  21  24
HETATM   24  O2  UNL     1       0.133   4.261  21.709  1.00  0.00    -0.348 OA
ATOM     25  H2  UNL     1       0.362   3.592  22.343  1.00  0.00     0.219 HD
ENDBRANCH  21  24
BRANCH  22  26
HETATM   26  O3  UNL     1      -0.485   6.406  20.188  1.00  0.00    -0.288 OA
ATOM     27  H3  UNL     1       0.127   6.989  20.621  1.00  0.00     0.244 HD
ENDBRANCH  22  26
ENDBRANCH  18  21
BRANCH  20  28
HETATM   28  S1  UNL     1      -5.919   4.553  23.064  1.00  0.00     0.232 S
HETATM   29  O4  UNL     1      -6.103   5.593  22.020  1.00  0.00    -0.205 OA
HETATM   30  O5  UNL     1      -6.819   4.919  24.223  1.00  0.00    -0.205 OA
BRANCH  28  31
HETATM   31  C11 UNL     1      -6.439   2.952  22.499  1.00  0.00     0.163 C
BRANCH  31  32
HETATM   32  C12 UNL     1      -5.883   2.737  21.097  1.00  0.00     0.012 C
HETATM   33  C13 UNL     1      -4.823   1.684  21.049  1.00  0.00     0.006 C
ENDBRANCH  31  32
ENDBRANCH  28  31
ENDBRANCH  20  28
ENDBRANCH  12  15
ENDBRANCH   3  11
TORSDOF 8
ENDMDL