MODEL 3
REMARK VINA RESULT: -7.573381593      1.489      1.919
REMARK  7 active torsions:
REMARK  status: ('A' for Active; 'I' for Inactive)
REMARK    1  A    between atoms: C1_2  and  O2_4
REMARK    2  A    between atoms: O2_4  and  C2_5
REMARK    3  A    between atoms: C6_9  and  N2_10
REMARK       I    between atoms: N2_10  and  C7_12
REMARK    4  A    between atoms: C7_12  and  C8_14
REMARK    5  A    between atoms: C8_14  and  N3_15
REMARK    6  A    between atoms: C8_14  and  C18_27
REMARK       I    between atoms: N3_15  and  C9_17
REMARK    7  A    between atoms: C9_17  and  C10_19
ROOT
HETATM    1  C8  UNL     1       0.157   2.381  25.568  1.00  0.00     0.180 C
ENDROOT
BRANCH   1   2
HETATM    2  C7  UNL     1       0.168   2.904  24.221  1.00  0.00     0.241 C
HETATM    3  N2  UNL     1      -0.517   2.446  23.100  1.00  0.00    -0.352 N
ATOM      4  H2  UNL     1      -1.122   1.629  23.188  1.00  0.00     0.163 HD
HETATM    5  O3  UNL     1       0.917   3.938  24.025  1.00  0.00    -0.271 OA
BRANCH   3   6
HETATM    6  C6  UNL     1      -0.394   3.103  21.797  1.00  0.00     0.114 C
HETATM    7  C2  UNL     1      -1.614   3.848  21.393  1.00  0.00     0.156 C
HETATM    8  C3  UNL     1      -2.583   2.715  21.027  1.00  0.00     0.035 C
HETATM    9  C4  UNL     1      -1.667   1.857  20.144  1.00  0.00     0.005 C
HETATM   10  C5  UNL     1      -0.309   1.998  20.753  1.00  0.00     0.028 C
BRANCH   7  11
HETATM   11  O2  UNL     1      -1.328   4.496  20.160  1.00  0.00    -0.299 OA
BRANCH  11  12
HETATM   12  C1  UNL     1      -1.692   5.791  19.866  1.00  0.00     0.373 C
HETATM   13  N1  UNL     1      -0.665   6.747  19.695  1.00  0.00    -0.032 NA
HETATM   14  O1  UNL     1      -2.910   6.054  19.766  1.00  0.00    -0.242 OA
ENDBRANCH  11  12
ENDBRANCH   7  11
ENDBRANCH   3   6
ENDBRANCH   1   2
BRANCH   1  15
HETATM   15  N3  UNL     1      -0.269   3.347  26.568  1.00  0.00    -0.347 N
HETATM   16  C9  UNL     1      -1.603   3.678  26.868  1.00  0.00     0.227 C
HETATM   17  O4  UNL     1      -2.532   3.123  26.249  1.00  0.00    -0.273 OA
ATOM     18  H3  UNL     1       0.460   3.826  27.096  1.00  0.00     0.163 HD
BRANCH  16  19
HETATM   19  C10 UNL     1      -1.936   4.674  27.903  1.00  0.00     0.048 A
HETATM   20  C11 UNL     1      -2.775   5.868  27.462  1.00  0.00     0.020 C
HETATM   21  C12 UNL     1      -3.857   6.206  28.452  1.00  0.00     0.005 C
HETATM   22  C13 UNL     1      -3.364   7.136  29.540  1.00  0.00     0.027 C
HETATM   23  C14 UNL     1      -1.913   7.344  29.522  1.00  0.00    -0.030 C
HETATM   24  C15 UNL     1      -0.927   6.502  29.267  1.00  0.00    -0.025 C
HETATM   25  C16 UNL     1      -0.939   5.064  28.910  1.00  0.00     0.027 A
HETATM   26  C17 UNL     1      -2.045   4.178  29.311  1.00  0.00     0.029 A
ENDBRANCH  16  19
ENDBRANCH   1  15
BRANCH   1  27
HETATM   27  C18 UNL     1       1.314   1.615  26.079  1.00  0.00     0.018 C
HETATM   28  C19 UNL     1       1.484   1.498  27.545  1.00  0.00     0.007 C
HETATM   29  C20 UNL     1       2.010   0.170  28.032  1.00  0.00     0.000 C
HETATM   30  C21 UNL     1       3.131  -0.356  27.173  1.00  0.00     0.000 C
HETATM   31  C22 UNL     1       2.831  -0.240  25.698  1.00  0.00     0.000 C
HETATM   32  C23 UNL     1       1.414   0.225  25.439  1.00  0.00     0.007 C
ENDBRANCH   1  27
TORSDOF 7
ENDMDL