MODEL 1
REMARK VINA RESULT: -7.207982401      0.000      0.000
REMARK  8 active torsions:
REMARK  status: ('A' for Active; 'I' for Inactive)
REMARK    1  A    between atoms: C2_2  and  C4_4
REMARK    2  A    between atoms: C4_4  and  C5_5
REMARK    3  A    between atoms: C4_4  and  N1_8
REMARK    4  A    between atoms: C5_5  and  O1_6
REMARK       I    between atoms: N1_8  and  C6_10
REMARK    5  A    between atoms: C6_10  and  C7_12
REMARK    6  A    between atoms: C12_19  and  O3_20
REMARK    7  A    between atoms: O3_20  and  C13_21
REMARK    8  A    between atoms: C13_21  and  C14_23
ROOT
HETATM    1  C7  UNL     1      -0.354   3.548  22.391  1.00  0.00     0.176 C
HETATM    2  N2  UNL     1      -0.415   2.101  22.106  1.00  0.00    -0.405 N
ATOM      3  H2  UNL     1       0.155   1.668  21.380  1.00  0.00     0.154 HD
HETATM    4  C8  UNL     1      -1.305   1.357  22.894  1.00  0.00     0.080 C
HETATM    5  C9  UNL     1      -2.731   1.881  22.851  1.00  0.00     0.025 C
HETATM    6  C10 UNL     1      -2.724   3.404  23.071  1.00  0.00     0.011 C
HETATM    7  C11 UNL     1      -1.336   3.757  23.566  1.00  0.00     0.047 C
HETATM    8  C12 UNL     1      -1.112   2.884  24.739  1.00  0.00     0.140 C
HETATM    9  C24 UNL     1      -0.811   1.431  24.328  1.00  0.00     0.057 C
ENDROOT
BRANCH   8  10
HETATM   10  O3  UNL     1      -0.302   3.279  25.780  1.00  0.00    -0.315 OA
BRANCH  10  11
HETATM   11  C13 UNL     1      -0.680   3.076  27.115  1.00  0.00     0.268 C
HETATM   12  O4  UNL     1      -0.320   2.013  27.657  1.00  0.00    -0.264 OA
BRANCH  11  13
HETATM   13  C14 UNL     1      -1.453   4.050  27.899  1.00  0.00     0.049 C
HETATM   14  C15 UNL     1      -2.749   3.436  28.361  1.00  0.00     0.024 C
HETATM   15  C16 UNL     1      -3.468   4.426  29.263  1.00  0.00    -0.013 C
HETATM   16  C17 UNL     1      -3.675   5.697  28.490  1.00  0.00     0.009 C
HETATM   17  C21 UNL     1      -2.643   4.672  30.497  1.00  0.00     0.009 C
HETATM   18  C18 UNL     1      -2.340   6.301  28.137  1.00  0.00    -0.013 C
HETATM   19  C19 UNL     1      -1.457   6.528  29.324  1.00  0.00     0.009 C
HETATM   20  C23 UNL     1      -1.641   5.355  27.189  1.00  0.00     0.024 C
HETATM   21  C20 UNL     1      -1.319   5.229  30.092  1.00  0.00    -0.013 C
HETATM   22  C22 UNL     1      -0.629   4.250  29.189  1.00  0.00     0.024 C
ENDBRANCH  11  13
ENDBRANCH  10  11
ENDBRANCH   8  10
BRANCH   1  23
HETATM   23  C6  UNL     1      -1.053   4.133  21.224  1.00  0.00     0.240 C
HETATM   24  N1  UNL     1      -1.474   5.534  21.273  1.00  0.00    -0.352 N
ATOM     25  H1  UNL     1      -1.379   6.079  22.130  1.00  0.00     0.163 HD
HETATM   26  O2  UNL     1      -1.275   3.511  20.175  1.00  0.00    -0.271 OA
BRANCH  24  27
HETATM   27  C4  UNL     1      -2.017   6.117  20.101  1.00  0.00     0.111 C
BRANCH  27  28
HETATM   28  C2  UNL     1      -3.396   6.564  19.995  1.00  0.00     0.002 C
HETATM   29  C1  UNL     1      -4.278   6.267  21.172  1.00  0.00     0.011 C
HETATM   30  C3  UNL     1      -3.425   8.072  19.731  1.00  0.00     0.011 C
ENDBRANCH  27  28
BRANCH  27  31
HETATM   31  C5  UNL     1      -1.105   7.338  19.722  1.00  0.00     0.189 C
BRANCH  31  32
HETATM   32  O1  UNL     1       0.231   6.925  19.698  1.00  0.00    -0.399 OA
ATOM     33  H1  UNL     1       0.331   6.161  20.254  1.00  0.00     0.209 HD
ENDBRANCH  31  32
ENDBRANCH  27  31
ENDBRANCH  24  27
ENDBRANCH   1  23
TORSDOF 8
ENDMDL