MODEL 1
REMARK VINA RESULT: -6.223692237      0.000      0.000
REMARK  10 active torsions:
REMARK  status: ('A' for Active; 'I' for Inactive)
REMARK    1  A    between atoms: C2_2  and  N1_3
REMARK    2  A    between atoms: C2_2  and  C20_31
REMARK       I    between atoms: N1_3  and  C3_5
REMARK    3  A    between atoms: C3_5  and  C4_7
REMARK       I    between atoms: N2_12  and  C9_13
REMARK    4  A    between atoms: C9_13  and  C10_15
REMARK    5  A    between atoms: C10_15  and  N3_16
REMARK    6  A    between atoms: C10_15  and  C16_27
REMARK       I    between atoms: N3_16  and  C11_18
REMARK    7  A    between atoms: C11_18  and  O4_20
REMARK    8  A    between atoms: O4_20  and  C12_21
REMARK    9  A    between atoms: C12_21  and  C13_22
REMARK   10  A    between atoms: C13_22  and  O5_25
ROOT
HETATM    1  C4  UNL     1      -0.100   2.984  26.429  1.00  0.00     0.179 C
HETATM    2  C5  UNL     1       0.686   1.798  26.932  1.00  0.00     0.035 C
HETATM    3  C6  UNL     1       0.939   0.811  25.829  1.00  0.00     0.004 C
HETATM    4  C7  UNL     1      -0.366   0.174  25.379  1.00  0.00     0.020 C
HETATM    5  C8  UNL     1      -1.483   1.216  25.409  1.00  0.00     0.127 C
HETATM    6  N2  UNL     1      -0.894   2.545  25.296  1.00  0.00    -0.337 N
HETATM    7  C9  UNL     1      -1.049   3.324  24.156  1.00  0.00     0.244 C
HETATM    8  O2  UNL     1      -0.403   4.445  24.168  1.00  0.00    -0.271 OA
ENDROOT
BRANCH   7   9
HETATM    9  C10 UNL     1      -1.830   3.057  22.945  1.00  0.00     0.186 C
BRANCH   9  10
HETATM   10  N3  UNL     1      -0.900   3.131  21.820  1.00  0.00    -0.323 N
HETATM   11  C11 UNL     1      -0.345   1.934  21.243  1.00  0.00     0.361 C
HETATM   12  O3  UNL     1      -0.686   0.829  21.735  1.00  0.00    -0.238 OA
ATOM     13  H3  UNL     1      -0.641   4.041  21.440  1.00  0.00     0.165 HD
BRANCH  11  14
HETATM   14  O4  UNL     1       0.511   1.935  20.214  1.00  0.00    -0.301 OA
BRANCH  14  15
HETATM   15  C12 UNL     1       1.262   1.040  19.538  1.00  0.00     0.217 C
BRANCH  15  16
HETATM   16  C13 UNL     1       0.741   0.269  18.394  1.00  0.00     0.072 C
HETATM   17  C14 UNL     1       1.235  -1.158  18.342  1.00  0.00     0.047 C
HETATM   18  C15 UNL     1      -0.745   0.299  18.234  1.00  0.00     0.047 C
BRANCH  16  19
HETATM   19  O5  UNL     1       1.255   0.882  17.202  1.00  0.00    -0.388 OA
ATOM     20  H5  UNL     1       0.882   0.414  16.464  1.00  0.00     0.210 HD
ENDBRANCH  16  19
ENDBRANCH  15  16
ENDBRANCH  14  15
ENDBRANCH  11  14
ENDBRANCH   9  10
BRANCH   9  21
HETATM   21  C16 UNL     1      -2.948   4.059  22.758  1.00  0.00    -0.022 C
HETATM   22  C17 UNL     1      -2.454   5.293  22.053  1.00  0.00     0.017 C
HETATM   23  C18 UNL     1      -4.024   3.429  21.916  1.00  0.00     0.017 C
HETATM   24  C19 UNL     1      -3.496   4.527  24.100  1.00  0.00     0.017 C
ENDBRANCH   9  21
ENDBRANCH   7   9
BRANCH   1  25
HETATM   25  C3  UNL     1      -0.853   3.652  27.486  1.00  0.00     0.241 C
HETATM   26  N1  UNL     1      -1.476   4.907  27.236  1.00  0.00    -0.355 N
ATOM     27  H1  UNL     1      -1.388   5.336  26.314  1.00  0.00     0.162 HD
HETATM   28  O1  UNL     1      -0.987   3.168  28.632  1.00  0.00    -0.271 OA
BRANCH  26  29
HETATM   29  C2  UNL     1      -2.239   5.593  28.277  1.00  0.00     0.084 C
HETATM   30  C1  UNL     1      -3.575   6.042  27.704  1.00  0.00     0.032 C
BRANCH  29  31
HETATM   31  C20 UNL     1      -1.449   6.769  28.788  1.00  0.00     0.008 A
HETATM   32  C21 UNL     1      -0.501   6.563  29.921  1.00  0.00     0.007 A
HETATM   33  C22 UNL     1      -1.755   7.295  30.167  1.00  0.00     0.007 A
ENDBRANCH  29  31
ENDBRANCH  26  29
ENDBRANCH   1  25
TORSDOF 10
ENDMDL