MODEL 5
REMARK VINA RESULT: -6.397378331      3.196      7.309
REMARK  7 active torsions:
REMARK  status: ('A' for Active; 'I' for Inactive)
REMARK    1  A    between atoms: O1_2  and  C2_3
REMARK    2  A    between atoms: C2_3  and  C3_4
REMARK    3  A    between atoms: C3_4  and  N1_5
REMARK    4  A    between atoms: N2_8  and  C6_10
REMARK    5  A    between atoms: C16_20  and  O2_21
REMARK    6  A    between atoms: C20_27  and  C21_28
REMARK    7  A    between atoms: C21_28  and  O4_29
ROOT
HETATM    1  N1  UNL     1      -2.744   5.326  21.340  1.00  0.00    -0.364 N
HETATM    2  C4  UNL     1      -2.559   5.092  22.745  1.00  0.00     0.211 C
HETATM    3  C5  UNL     1      -3.771   4.396  23.282  1.00  0.00     0.133 C
HETATM    4  N2  UNL     1      -4.135   4.810  24.530  1.00  0.00    -0.364 N
ATOM      5  H2  UNL     1      -5.029   5.299  24.575  1.00  0.00     0.162 HD
HETATM    6  O3  UNL     1      -3.771   3.037  23.021  1.00  0.00    -0.330 OA
HETATM    7  C20 UNL     1      -2.777   2.505  22.294  1.00  0.00     0.162 C
HETATM    8  C22 UNL     1      -2.644   2.917  20.880  1.00  0.00     0.052 C
HETATM    9  C23 UNL     1      -1.178   2.949  20.502  1.00  0.00     0.018 C
HETATM   10  C24 UNL     1      -3.212   4.266  20.547  1.00  0.00     0.070 C
ENDROOT
BRANCH   4  11
HETATM   11  C6  UNL     1      -3.472   4.667  25.766  1.00  0.00     0.035 C
HETATM   12  C7  UNL     1      -3.247   5.963  26.424  1.00  0.00     0.035 C
HETATM   13  C8  UNL     1      -2.863   5.982  27.884  1.00  0.00    -0.012 C
HETATM   14  C9  UNL     1      -1.419   5.708  28.154  1.00  0.00     0.009 C
HETATM   15  C13 UNL     1      -3.808   5.300  28.809  1.00  0.00     0.010 C
HETATM   16  C10 UNL     1      -1.116   4.294  28.553  1.00  0.00    -0.011 C
HETATM   17  C11 UNL     1      -2.146   3.636  29.399  1.00  0.00     0.010 C
HETATM   18  C17 UNL     1      -0.648   3.455  27.397  1.00  0.00     0.042 C
HETATM   19  C12 UNL     1      -3.569   3.815  28.931  1.00  0.00    -0.010 C
HETATM   20  C14 UNL     1      -3.923   3.063  27.702  1.00  0.00    -0.005 C
HETATM   21  C15 UNL     1      -2.815   2.173  27.192  1.00  0.00     0.043 C
HETATM   22  C19 UNL     1      -4.478   3.812  26.572  1.00  0.00     0.036 C
HETATM   23  C16 UNL     1      -1.729   2.941  26.505  1.00  0.00     0.061 C
HETATM   24  C18 UNL     1      -2.206   3.893  25.472  1.00  0.00     0.068 C
BRANCH  23  25
HETATM   25  O2  UNL     1      -1.048   1.908  25.778  1.00  0.00    -0.390 OA
ATOM     26  H2  UNL     1      -0.174   1.951  26.146  1.00  0.00     0.210 HD
ENDBRANCH  23  25
ENDBRANCH   4  11
BRANCH   1  27
HETATM   27  C3  UNL     1      -2.941   6.632  20.897  1.00  0.00     0.089 C
BRANCH  27  28
HETATM   28  C2  UNL     1      -2.065   7.132  19.790  1.00  0.00     0.211 C
BRANCH  28  29
HETATM   29  O1  UNL     1      -2.546   8.285  19.184  1.00  0.00    -0.391 OA
HETATM   30  C1  UNL     1      -3.702   8.790  19.748  1.00  0.00     0.201 C
ENDBRANCH  28  29
ENDBRANCH  27  28
ENDBRANCH   1  27
BRANCH   7  31
HETATM   31  C21 UNL     1      -3.006   0.979  22.298  1.00  0.00     0.197 C
BRANCH  31  32
HETATM   32  O4  UNL     1      -2.525   0.415  23.470  1.00  0.00    -0.398 OA
ATOM     33  H4  UNL     1      -2.282  -0.492  23.330  1.00  0.00     0.209 HD
ENDBRANCH  31  32
ENDBRANCH   7  31
TORSDOF 7
ENDMDL