MODEL 3
REMARK VINA RESULT: -5.936615878      4.535      6.495
REMARK  4 active torsions:
REMARK  status: ('A' for Active; 'I' for Inactive)
REMARK    1  A    between atoms: C4_5  and  C5_6
REMARK    2  A    between atoms: C5_6  and  N1_7
REMARK       I    between atoms: N1_7  and  C6_9
REMARK       I    between atoms: C6_9  and  N2_11
REMARK    3  A    between atoms: N2_11  and  C7_13
REMARK    4  A    between atoms: C7_13  and  C8_14
ROOT
HETATM    1  N1  UNL     1      39.867  -3.841  29.490  1.00  0.00    -0.341 N
ATOM      2  H1  UNL     1      39.998  -4.731  29.009  1.00  0.00     0.164 HD
HETATM    3  C6  UNL     1      40.843  -2.863  29.257  1.00  0.00     0.316 C
HETATM    4  O2  UNL     1      40.825  -1.707  29.737  1.00  0.00    -0.247 OA
HETATM    5  N2  UNL     1      41.963  -3.151  28.418  1.00  0.00    -0.343 N
ATOM      6  H2  UNL     1      42.060  -4.068  27.983  1.00  0.00     0.164 HD
ENDROOT
BRANCH   1   7
HETATM    7  C5  UNL     1      38.725  -3.741  30.311  1.00  0.00     0.149 C
BRANCH   7   8
HETATM    8  C4  UNL     1      37.367  -3.771  29.740  1.00  0.00     0.102 C
HETATM    9  C3  UNL     1      36.812  -2.614  29.029  1.00  0.00     0.036 C
HETATM   10  C2  UNL     1      35.608  -3.252  28.278  1.00  0.00     0.105 C
HETATM   11  C1  UNL     1      36.201  -4.566  27.915  1.00  0.00     0.218 C
HETATM   12  O1  UNL     1      35.743  -5.382  27.080  1.00  0.00    -0.274 OA
HETATM   13  N4  UNL     1      37.385  -4.785  28.656  1.00  0.00    -0.355 N
ATOM     14  H4  UNL     1      38.101  -5.491  28.483  1.00  0.00     0.162 HD
ENDBRANCH   7   8
ENDBRANCH   1   7
BRANCH   5  15
HETATM   15  C7  UNL     1      42.948  -2.134  28.195  1.00  0.00     0.130 C
BRANCH  15  16
HETATM   16  C8  UNL     1      44.192  -2.658  27.522  1.00  0.00     0.031 C
HETATM   17  C9  UNL     1      44.867  -1.446  26.868  1.00  0.00     0.035 C
HETATM   18  C10 UNL     1      44.274  -1.511  25.476  1.00  0.00     0.232 C
HETATM   19  N3  UNL     1      44.444  -2.939  25.175  1.00  0.00    -0.075 N
HETATM   20  C11 UNL     1      43.821  -3.533  26.349  1.00  0.00     0.238 C
ATOM     21  H32 UNL     1      44.075  -3.248  24.276  1.00  0.00     0.277 HD
ATOM     22  H31 UNL     1      45.400  -3.239  24.984  1.00  0.00     0.277 HD
ENDBRANCH  15  16
ENDBRANCH   5  15
TORSDOF 4
ENDMDL