MODEL 4
REMARK VINA RESULT: -5.284999647      2.441      3.109
REMARK  4 active torsions:
REMARK  status: ('A' for Active; 'I' for Inactive)
REMARK    1  A    between atoms: C4_7  and  C5_8
REMARK    2  A    between atoms: C5_8  and  N2_9
REMARK    3  A    between atoms: N2_9  and  C6_12
REMARK    4  A    between atoms: C6_12  and  C7_13
ROOT
HETATM    1  N2  UNL     1      42.364  -4.643  28.419  1.00  0.00    -0.074 N
ATOM      2  H21 UNL     1      42.581  -5.146  27.559  1.00  0.00     0.277 HD
ATOM      3  H22 UNL     1      41.411  -4.972  28.572  1.00  0.00     0.277 HD
ENDROOT
BRANCH   1   4
HETATM    4  C5  UNL     1      42.384  -3.237  28.202  1.00  0.00     0.246 C
BRANCH   4   5
HETATM    5  C4  UNL     1      43.786  -2.714  28.230  1.00  0.00     0.105 C
HETATM    6  C1  UNL     1      44.006  -1.497  29.004  1.00  0.00     0.223 C
HETATM    7  O1  UNL     1      43.812  -1.296  30.219  1.00  0.00    -0.273 OA
HETATM    8  N1  UNL     1      44.506  -0.515  28.116  1.00  0.00    -0.361 N
HETATM    9  C2  UNL     1      44.113  -0.895  26.789  1.00  0.00     0.123 C
ATOM     10  H1  UNL     1      45.046   0.312  28.373  1.00  0.00     0.162 HD
HETATM   11  C3  UNL     1      44.284  -2.404  26.820  1.00  0.00     0.035 C
ENDBRANCH   4   5
ENDBRANCH   1   4
BRANCH   1  12
HETATM   12  C6  UNL     1      43.238  -5.069  29.499  1.00  0.00     0.240 C
BRANCH  12  13
HETATM   13  C7  UNL     1      42.508  -5.494  30.734  1.00  0.00     0.047 C
HETATM   14  C8  UNL     1      41.041  -5.578  30.491  1.00  0.00     0.130 C
HETATM   15  N3  UNL     1      40.252  -4.610  31.221  1.00  0.00    -0.367 N
HETATM   16  C9  UNL     1      40.773  -3.350  31.652  1.00  0.00     0.167 C
ATOM     17  H3  UNL     1      39.281  -4.835  31.438  1.00  0.00     0.161 HD
HETATM   18  S1  UNL     1      39.834  -2.079  31.992  1.00  0.00    -0.041 SA
HETATM   19  N4  UNL     1      42.213  -3.307  31.761  1.00  0.00    -0.367 N
HETATM   20  C10 UNL     1      42.836  -4.599  31.913  1.00  0.00     0.130 C
ATOM     21  H4  UNL     1      42.744  -2.437  31.733  1.00  0.00     0.161 HD
ENDBRANCH  12  13
ENDBRANCH   1  12
TORSDOF 4
ENDMDL