MODEL 5
REMARK VINA RESULT: -4.904534901      1.014      1.365
REMARK  7 active torsions:
REMARK  status: ('A' for Active; 'I' for Inactive)
REMARK    1  A    between atoms: N1_1  and  S1_4
REMARK    2  A    between atoms: S1_4  and  N2_7
REMARK    3  A    between atoms: N2_7  and  N3_9
REMARK    4  A    between atoms: N3_9  and  C1_11
REMARK    5  A    between atoms: C1_11  and  N4_13
REMARK    6  A    between atoms: N4_13  and  C2_15
REMARK    7  A    between atoms: C2_15  and  C3_16
ROOT
HETATM    1  N3  UNL     1      46.404   0.101  35.481  1.00  0.00    -0.266 N
ATOM      2  H3  UNL     1      46.064  -0.828  35.233  1.00  0.00     0.190 HD
ENDROOT
BRANCH   1   3
HETATM    3  N2  UNL     1      47.706   0.446  35.130  1.00  0.00    -0.208 N
ATOM      4  H2  UNL     1      47.944   0.988  34.300  1.00  0.00     0.201 HD
BRANCH   3   5
HETATM    5  S1  UNL     1      48.865  -0.143  36.249  1.00  0.00     0.330 S
HETATM    6  O1  UNL     1      48.768  -1.629  36.457  1.00  0.00    -0.181 OA
HETATM    7  O2  UNL     1      48.713   0.510  37.603  1.00  0.00    -0.181 OA
BRANCH   5   8
HETATM    8  N1  UNL     1      50.450   0.196  35.644  1.00  0.00    -0.310 N
ATOM      9  H12 UNL     1      50.716   0.214  34.659  1.00  0.00     0.170 HD
ATOM     10  H11 UNL     1      51.054   0.372  36.447  1.00  0.00     0.170 HD
ENDBRANCH   5   8
ENDBRANCH   3   5
ENDBRANCH   1   3
BRANCH   1  11
HETATM   11  C1  UNL     1      45.527   0.982  36.166  1.00  0.00     0.187 C
HETATM   12  S2  UNL     1      43.933   0.679  36.068  1.00  0.00    -0.040 SA
BRANCH  11  13
HETATM   13  N4  UNL     1      45.969   2.096  36.912  1.00  0.00    -0.366 N
ATOM     14  H4  UNL     1      46.810   2.587  36.609  1.00  0.00     0.161 HD
BRANCH  13  15
HETATM   15  C2  UNL     1      45.280   2.563  38.078  1.00  0.00     0.126 C
BRANCH  15  16
HETATM   16  C3  UNL     1      44.938   4.012  38.071  1.00  0.00     0.003 C
HETATM   17  C4  UNL     1      43.766   4.390  38.984  1.00  0.00     0.006 C
HETATM   18  C5  UNL     1      43.462   5.470  37.933  1.00  0.00     0.001 C
HETATM   19  C6  UNL     1      44.003   4.440  36.927  1.00  0.00     0.006 C
ENDBRANCH  15  16
ENDBRANCH  13  15
ENDBRANCH  11  13
ENDBRANCH   1  11
TORSDOF 7
ENDMDL