MODEL 2
REMARK VINA RESULT: -5.105034687      0.089      1.027
REMARK  7 active torsions:
REMARK  status: ('A' for Active; 'I' for Inactive)
REMARK    1  A    between atoms: N1_2  and  C4_5
REMARK    2  A    between atoms: C4_5  and  C5_6
REMARK    3  A    between atoms: C5_6  and  N2_7
REMARK    4  A    between atoms: N2_7  and  C6_9
REMARK    5  A    between atoms: C6_9  and  N3_11
REMARK    6  A    between atoms: N3_11  and  N4_13
REMARK    7  A    between atoms: N4_13  and  C7_15
ROOT
HETATM    1  N3  UNL     1      42.150  -5.262  28.663  1.00  0.00    -0.274 N
ATOM      2  H3  UNL     1      41.748  -5.968  28.047  1.00  0.00     0.189 HD
ENDROOT
BRANCH   1   3
HETATM    3  C6  UNL     1      42.721  -5.639  29.909  1.00  0.00     0.186 C
HETATM    4  S1  UNL     1      42.985  -4.474  31.056  1.00  0.00    -0.040 SA
BRANCH   3   5
HETATM    5  N2  UNL     1      43.038  -6.996  30.176  1.00  0.00    -0.364 N
ATOM      6  H2  UNL     1      42.631  -7.718  29.582  1.00  0.00     0.162 HD
BRANCH   5   7
HETATM    7  C5  UNL     1      43.908  -7.398  31.249  1.00  0.00     0.150 C
BRANCH   7   8
HETATM    8  C4  UNL     1      44.594  -8.665  30.897  1.00  0.00     0.255 C
BRANCH   8   9
HETATM    9  N1  UNL     1      45.858  -8.902  31.546  1.00  0.00    -0.077 N
HETATM   10  C1  UNL     1      46.884  -9.423  30.669  1.00  0.00     0.271 C
HETATM   11  C2  UNL     1      45.616  -9.950  32.553  1.00  0.00     0.271 C
HETATM   12  C3  UNL     1      46.377  -7.763  32.247  1.00  0.00     0.271 C
ENDBRANCH   8   9
ENDBRANCH   7   8
ENDBRANCH   5   7
ENDBRANCH   3   5
ENDBRANCH   1   3
BRANCH   1  13
HETATM   13  N4  UNL     1      42.143  -3.928  28.293  1.00  0.00    -0.269 N
ATOM     14  H4  UNL     1      41.458  -3.292  28.704  1.00  0.00     0.190 HD
BRANCH  13  15
HETATM   15  C7  UNL     1      43.092  -3.432  27.336  1.00  0.00     0.190 C
HETATM   16  N5  UNL     1      43.685  -2.318  27.330  1.00  0.00    -0.360 N
HETATM   17  C8  UNL     1      44.582  -2.118  26.230  1.00  0.00     0.142 C
ATOM     18  H5  UNL     1      43.538  -1.614  28.054  1.00  0.00     0.162 HD
HETATM   19  C9  UNL     1      44.175  -3.237  25.280  1.00  0.00     0.142 C
HETATM   20  N6  UNL     1      43.522  -4.172  26.188  1.00  0.00    -0.360 N
ATOM     21  H6  UNL     1      43.395  -5.173  26.034  1.00  0.00     0.162 HD
ENDBRANCH  13  15
ENDBRANCH   1  13
TORSDOF 7
ENDMDL