MODEL 5
REMARK VINA RESULT: -4.240492359      7.398      8.767
REMARK  7 active torsions:
REMARK  status: ('A' for Active; 'I' for Inactive)
REMARK    1  A    between atoms: C2_2  and  N1_3
REMARK    2  A    between atoms: C5_6  and  C6_7
REMARK    3  A    between atoms: C5_6  and  C7_10
REMARK    4  A    between atoms: C6_7  and  O1_8
REMARK    5  A    between atoms: C7_10  and  C8_11
REMARK    6  A    between atoms: C8_11  and  O2_12
REMARK    7  A    between atoms: C9_14  and  O3_15
ROOT
HETATM    1  N1  UNL     1      44.630   2.426  37.194  1.00  0.00     0.008 N
HETATM    2  C3  UNL     1      44.614   3.668  36.409  1.00  0.00     0.302 C
HETATM    3  C4  UNL     1      45.799   1.706  36.792  1.00  0.00     0.278 C
HETATM    4  C5  UNL     1      45.622   0.606  35.808  1.00  0.00     0.035 C
HETATM    5  C9  UNL     1      44.892  -0.588  36.243  1.00  0.00     0.135 C
HETATM    6  C10 UNL     1      44.079  -0.469  37.490  1.00  0.00     0.079 C
HETATM    7  C11 UNL     1      43.087   0.620  37.511  1.00  0.00     0.089 C
HETATM    8  N2  UNL     1      43.435   1.860  36.988  1.00  0.00    -0.232 N
ATOM      9  H2  UNL     1      42.750   2.361  36.423  1.00  0.00     0.192 HD
ENDROOT
BRANCH   4  10
HETATM   10  C6  UNL     1      45.050   1.111  34.474  1.00  0.00     0.178 C
BRANCH  10  11
HETATM   11  O1  UNL     1      45.803   0.645  33.413  1.00  0.00    -0.400 OA
ATOM     12  H1  UNL     1      45.306   0.688  32.604  1.00  0.00     0.209 HD
ENDBRANCH  10  11
ENDBRANCH   4  10
BRANCH   4  13
HETATM   13  C7  UNL     1      47.023   0.158  35.414  1.00  0.00     0.042 C
BRANCH  13  14
HETATM   14  C8  UNL     1      47.825  -0.380  36.533  1.00  0.00     0.165 C
BRANCH  14  15
HETATM   15  O2  UNL     1      48.644  -1.432  36.076  1.00  0.00    -0.401 OA
ATOM     16  H2  UNL     1      49.499  -1.096  35.834  1.00  0.00     0.209 HD
ENDBRANCH  14  15
ENDBRANCH  13  14
ENDBRANCH   4  13
BRANCH   5  17
HETATM   17  O3  UNL     1      44.048  -1.007  35.210  1.00  0.00    -0.394 OA
ATOM     18  H3  UNL     1      43.151  -1.002  35.522  1.00  0.00     0.210 HD
ENDBRANCH   5  17
BRANCH   1  19
HETATM   19  C2  UNL     1      44.837   2.929  38.565  1.00  0.00     0.260 C
HETATM   20  C1  UNL     1      45.994   2.290  39.241  1.00  0.00     0.037 C
ENDBRANCH   1  19
TORSDOF 7
ENDMDL