MODEL 1
REMARK VINA RESULT: -5.183210825      0.000      0.000
REMARK  5 active torsions:
REMARK  status: ('A' for Active; 'I' for Inactive)
REMARK       I    between atoms: C1_4  and  N2_5
REMARK       I    between atoms: C1_4  and  N4_14
REMARK    1  A    between atoms: N2_5  and  C2_7
REMARK    2  A    between atoms: C2_7  and  C3_8
REMARK    3  A    between atoms: C3_8  and  C4_9
REMARK    4  A    between atoms: C4_9  and  N3_10
REMARK    5  A    between atoms: N4_14  and  C5_16
ROOT
HETATM    1  N1  UNL     1      42.327  -4.681  28.234  1.00  0.00    -0.235 N
ATOM      2  H11 UNL     1      41.855  -5.483  28.651  1.00  0.00     0.174 HD
ATOM      3  H12 UNL     1      42.950  -4.862  27.447  1.00  0.00     0.174 HD
HETATM    4  C1  UNL     1      42.175  -3.480  28.647  1.00  0.00     0.667 C
HETATM    5  N2  UNL     1      42.833  -2.362  28.065  1.00  0.00    -0.227 N
ATOM      6  H2  UNL     1      42.289  -1.513  27.909  1.00  0.00     0.177 HD
HETATM    7  N4  UNL     1      41.305  -3.228  29.746  1.00  0.00    -0.221 N
ATOM      8  H4  UNL     1      41.669  -3.330  30.693  1.00  0.00     0.178 HD
ENDROOT
BRANCH   5   9
HETATM    9  C2  UNL     1      44.212  -2.357  27.686  1.00  0.00     0.139 C
BRANCH   9  10
HETATM   10  C3  UNL     1      44.328  -2.048  26.213  1.00  0.00     0.047 C
BRANCH  10  11
HETATM   11  C4  UNL     1      44.114  -3.300  25.374  1.00  0.00     0.231 C
BRANCH  11  12
HETATM   12  N3  UNL     1      44.634  -3.112  24.035  1.00  0.00    -0.079 N
ATOM     13  H33 UNL     1      43.893  -3.136  23.334  1.00  0.00     0.274 HD
ATOM     14  H32 UNL     1      44.957  -2.156  23.885  1.00  0.00     0.274 HD
ATOM     15  H31 UNL     1      45.366  -3.794  23.834  1.00  0.00     0.274 HD
ENDBRANCH  11  12
ENDBRANCH  10  11
ENDBRANCH   9  10
ENDBRANCH   5   9
BRANCH   7  16
HETATM   16  C5  UNL     1      39.922  -2.833  29.572  1.00  0.00     0.114 C
HETATM   17  C6  UNL     1      39.667  -1.574  30.271  1.00  0.00     0.041 C
HETATM   18  C7  UNL     1      38.207  -1.390  30.528  1.00  0.00     0.142 C
HETATM   19  S1  UNL     1      37.541  -3.051  30.477  1.00  0.00     0.146 S
HETATM   20  O1  UNL     1      36.950  -3.461  31.771  1.00  0.00    -0.228 OA
HETATM   21  O2  UNL     1      36.601  -3.122  29.335  1.00  0.00    -0.228 OA
HETATM   22  C8  UNL     1      39.069  -3.930  30.138  1.00  0.00     0.165 C
ENDBRANCH   7  16
TORSDOF 5
ENDMDL