MODEL 4
REMARK VINA RESULT: -6.753882790      1.409      1.885
REMARK  7 active torsions:
REMARK  status: ('A' for Active; 'I' for Inactive)
REMARK    1  A    between atoms: N1_1  and  N2_4
REMARK    2  A    between atoms: N2_4  and  C1_5
REMARK    3  A    between atoms: C3_9  and  N4_10
REMARK    4  A    between atoms: N4_10  and  C4_12
REMARK    5  A    between atoms: C4_12  and  C5_13
REMARK    6  A    between atoms: C5_13  and  O1_14
REMARK    7  A    between atoms: C5_13  and  C6_16
ROOT
HETATM    1  C4  UNL     1      42.715  -3.211  27.854  1.00  0.00     0.146 C
ENDROOT
BRANCH   1   2
HETATM    2  N4  UNL     1      43.677  -2.235  27.395  1.00  0.00    -0.406 N
ATOM      3  H4  UNL     1      43.752  -1.309  27.817  1.00  0.00     0.154 HD
BRANCH   2   4
HETATM    4  C3  UNL     1      44.508  -2.641  26.323  1.00  0.00     0.179 C
HETATM    5  C1  UNL     1      44.305  -2.101  24.987  1.00  0.00     0.199 C
HETATM    6  N3  UNL     1      44.543  -3.423  24.461  1.00  0.00    -0.363 N
HETATM    7  C2  UNL     1      43.975  -3.923  25.697  1.00  0.00     0.156 C
ATOM      8  H3  UNL     1      44.934  -3.823  23.608  1.00  0.00     0.162 HD
BRANCH   5   9
HETATM    9  N2  UNL     1      44.045  -1.044  24.380  1.00  0.00    -0.317 NA
BRANCH   9  10
HETATM   10  N1  UNL     1      43.773  -0.022  23.742  1.00  0.00    -0.279 N
ATOM     11  H12 UNL     1      43.009  -0.476  24.243  1.00  0.00     0.191 HD
ATOM     12  H11 UNL     1      43.584   0.825  23.206  1.00  0.00     0.191 HD
ENDBRANCH   9  10
ENDBRANCH   5   9
ENDBRANCH   2   4
ENDBRANCH   1   2
BRANCH   1  13
HETATM   13  C5  UNL     1      42.112  -2.812  29.182  1.00  0.00     0.141 C
BRANCH  13  14
HETATM   14  O1  UNL     1      42.886  -1.758  29.733  1.00  0.00    -0.394 OA
ATOM     15  H1  UNL     1      42.323  -1.221  30.279  1.00  0.00     0.210 HD
ENDBRANCH  13  14
BRANCH  13  16
HETATM   16  C6  UNL     1      42.195  -3.916  30.214  1.00  0.00     0.042 C
HETATM   17  C7  UNL     1      42.730  -5.131  29.459  1.00  0.00     0.009 C
HETATM   18  C8  UNL     1      42.352  -6.430  30.080  1.00  0.00     0.002 C
HETATM   19  C9  UNL     1      41.761  -6.342  31.449  1.00  0.00     0.027 C
HETATM   20  C10 UNL     1      42.786  -5.804  32.394  1.00  0.00     0.232 C
HETATM   21  N5  UNL     1      42.777  -4.384  32.548  1.00  0.00    -0.075 N
HETATM   22  C11 UNL     1      43.122  -3.655  31.345  1.00  0.00     0.239 C
ATOM     23  H52 UNL     1      41.876  -4.069  32.910  1.00  0.00     0.277 HD
ATOM     24  H51 UNL     1      43.381  -4.104  33.321  1.00  0.00     0.277 HD
ENDBRANCH  13  16
ENDBRANCH   1  13
TORSDOF 7
ENDMDL