MODEL 3
REMARK VINA RESULT: -5.542661707      0.872      1.906
REMARK  4 active torsions:
REMARK  status: ('A' for Active; 'I' for Inactive)
REMARK       I    between atoms: C1_4  and  N3_6
REMARK    1  A    between atoms: N3_6  and  C2_8
REMARK    2  A    between atoms: C2_8  and  C3_9
REMARK    3  A    between atoms: C3_9  and  C4_10
REMARK    4  A    between atoms: C4_10  and  N4_11
ROOT
HETATM    1  C3  UNL     1      43.571  -1.324  27.659  1.00  0.00     0.064 C
ENDROOT
BRANCH   1   2
HETATM    2  C2  UNL     1      44.630  -1.884  26.765  1.00  0.00     0.127 C
BRANCH   2   3
HETATM    3  N3  UNL     1      44.504  -3.298  26.487  1.00  0.00    -0.365 N
HETATM    4  C1  UNL     1      44.159  -3.603  25.121  1.00  0.00     0.181 C
HETATM    5  N1  UNL     1      43.671  -4.747  24.812  1.00  0.00    -0.374 N
HETATM    6  N2  UNL     1      44.317  -2.621  24.085  1.00  0.00    -0.064 NA
ATOM      7  H12 UNL     1      43.426  -4.962  23.846  1.00  0.00     0.158 HD
ATOM      8  H11 UNL     1      43.559  -5.444  25.547  1.00  0.00     0.158 HD
ATOM      9  H3  UNL     1      44.648  -4.018  27.196  1.00  0.00     0.162 HD
ENDBRANCH   2   3
ENDBRANCH   1   2
BRANCH   1  10
HETATM   10  C4  UNL     1      43.801  -1.748  29.111  1.00  0.00     0.064 C
BRANCH  10  11
HETATM   11  N4  UNL     1      42.944  -2.723  29.599  1.00  0.00    -0.373 N
HETATM   12  C5  UNL     1      41.688  -2.907  28.965  1.00  0.00     0.128 C
HETATM   13  C6  UNL     1      40.599  -2.058  29.623  1.00  0.00     0.033 C
HETATM   14  C7  UNL     1      40.142  -2.690  30.895  1.00  0.00     0.110 C
HETATM   15  S1  UNL     1      40.652  -4.349  31.134  1.00  0.00     0.019 S
HETATM   16  O1  UNL     1      39.668  -5.347  30.221  1.00  0.00    -0.258 OA
HETATM   17  C8  UNL     1      42.356  -4.655  30.933  1.00  0.00     0.153 C
HETATM   18  C9  UNL     1      43.191  -3.420  30.778  1.00  0.00     0.075 C
ENDBRANCH  10  11
ENDBRANCH   1  10
TORSDOF 4
ENDMDL