MODEL 1
REMARK VINA RESULT: -5.786468116      0.000      0.000
REMARK  4 active torsions:
REMARK  status: ('A' for Active; 'I' for Inactive)
REMARK    1  A    between atoms: N3_8  and  C4_10
REMARK    2  A    between atoms: C4_10  and  C5_11
REMARK    3  A    between atoms: C5_11  and  C6_12
REMARK    4  A    between atoms: C6_12  and  N4_13
ROOT
HETATM    1  C1  UNL     1      36.086  -2.479  28.682  1.00  0.00     0.065 C
HETATM    2  C2  UNL     1      37.278  -2.526  29.247  1.00  0.00     0.112 A
HETATM    3  N1  UNL     1      37.701  -1.874  30.429  1.00  0.00    -0.283 N
ATOM      4  H1  UNL     1      37.116  -1.275  31.012  1.00  0.00     0.188 HD
HETATM    5  N2  UNL     1      39.043  -2.180  30.676  1.00  0.00    -0.270 N
ATOM      6  H2  UNL     1      39.589  -1.837  31.466  1.00  0.00     0.190 HD
HETATM    7  C3  UNL     1      39.533  -3.048  29.651  1.00  0.00     0.196 A
HETATM    8  N3  UNL     1      40.700  -3.555  29.490  1.00  0.00    -0.361 N
ATOM      9  H3  UNL     1      40.881  -4.164  28.692  1.00  0.00     0.162 HD
HETATM   10  N6  UNL     1      38.414  -3.240  28.784  1.00  0.00    -0.313 N
ATOM     11  H6  UNL     1      38.430  -3.816  27.943  1.00  0.00     0.170 HD
ENDROOT
BRANCH   8  12
HETATM   12  C4  UNL     1      41.750  -3.274  30.419  1.00  0.00     0.124 C
BRANCH  12  13
HETATM   13  C5  UNL     1      43.105  -3.401  29.717  1.00  0.00     0.050 C
BRANCH  13  14
HETATM   14  C6  UNL     1      43.457  -2.127  29.022  1.00  0.00     0.274 C
BRANCH  14  15
HETATM   15  N4  UNL     1      43.534  -2.266  27.604  1.00  0.00     0.091 N
HETATM   16  C7  UNL     1      44.609  -1.435  27.044  1.00  0.00     0.300 C
HETATM   17  C8  UNL     1      44.268  -1.387  25.548  1.00  0.00     0.262 C
HETATM   18  N5  UNL     1      44.575  -2.706  25.047  1.00  0.00    -0.072 N
HETATM   19  C9  UNL     1      43.899  -3.773  25.717  1.00  0.00     0.262 C
ATOM     20  H52 UNL     1      44.401  -2.752  24.043  1.00  0.00     0.277 HD
ATOM     21  H51 UNL     1      45.583  -2.862  25.058  1.00  0.00     0.277 HD
HETATM   22  C10 UNL     1      43.845  -3.635  27.221  1.00  0.00     0.300 C
ENDBRANCH  14  15
ENDBRANCH  13  14
ENDBRANCH  12  13
ENDBRANCH   8  12
TORSDOF 4
ENDMDL