MODEL 1
REMARK VINA RESULT: -6.381684673      0.000      0.000
REMARK  3 active torsions:
REMARK  status: ('A' for Active; 'I' for Inactive)
REMARK       I    between atoms: C1_4  and  N3_6
REMARK    1  A    between atoms: C3_8  and  O1_9
REMARK    2  A    between atoms: O1_9  and  C4_10
REMARK    3  A    between atoms: C4_10  and  C5_11
REMARK       I    between atoms: N4_15  and  C9_16
ROOT
HETATM    1  C4  UNL     1      42.664  -1.280  29.712  1.00  0.00     0.193 C
ENDROOT
BRANCH   1   2
HETATM    2  O1  UNL     1      42.929  -2.608  30.007  1.00  0.00    -0.381 OA
BRANCH   2   3
HETATM    3  C3  UNL     1      43.643  -3.249  29.000  1.00  0.00     0.157 C
HETATM    4  C2  UNL     1      42.734  -3.714  27.881  1.00  0.00     0.159 C
HETATM    5  N3  UNL     1      43.745  -3.279  26.945  1.00  0.00    -0.351 N
HETATM    6  C1  UNL     1      44.132  -3.623  25.628  1.00  0.00     0.184 C
HETATM    7  C10 UNL     1      44.200  -2.332  27.937  1.00  0.00     0.159 C
HETATM    8  N1  UNL     1      44.404  -4.866  25.315  1.00  0.00    -0.374 N
HETATM    9  N2  UNL     1      44.249  -2.679  24.583  1.00  0.00    -0.064 NA
ATOM     10  H12 UNL     1      44.682  -5.114  24.366  1.00  0.00     0.158 HD
ATOM     11  H11 UNL     1      44.319  -5.547  26.069  1.00  0.00     0.158 HD
ENDBRANCH   2   3
ENDBRANCH   1   2
BRANCH   1  12
HETATM   12  C5  UNL     1      42.555  -0.545  31.033  1.00  0.00     0.110 C
HETATM   13  C6  UNL     1      43.452  -1.188  32.067  1.00  0.00     0.029 C
HETATM   14  C7  UNL     1      42.748  -0.907  33.352  1.00  0.00     0.022 C
HETATM   15  C8  UNL     1      41.270  -0.975  32.947  1.00  0.00     0.126 C
HETATM   16  N4  UNL     1      41.236  -0.549  31.568  1.00  0.00    -0.349 N
HETATM   17  C9  UNL     1      40.057  -0.193  30.870  1.00  0.00     0.184 C
HETATM   18  N5  UNL     1      39.538  -0.893  29.942  1.00  0.00    -0.374 N
HETATM   19  N6  UNL     1      39.446   1.051  31.271  1.00  0.00    -0.064 NA
ATOM     20  H52 UNL     1      39.970  -1.772  29.659  1.00  0.00     0.158 HD
ATOM     21  H51 UNL     1      38.689  -0.636  29.439  1.00  0.00     0.158 HD
ENDBRANCH   1  12
TORSDOF 3
ENDMDL