MODEL 3
REMARK VINA RESULT: -6.064343089      2.550      3.356
REMARK  5 active torsions:
REMARK  status: ('A' for Active; 'I' for Inactive)
REMARK    1  A    between atoms: N2_7  and  C4_8
REMARK    2  A    between atoms: C4_8  and  C5_9
REMARK    3  A    between atoms: C5_9  and  C6_10
REMARK    4  A    between atoms: C6_10  and  N3_11
REMARK    5  A    between atoms: N3_11  and  C7_13
ROOT
HETATM    1  N1  UNL     1      44.606  -3.443  24.256  1.00  0.00    -0.389 N
ATOM      2  H11 UNL     1      45.005  -2.778  23.594  1.00  0.00     0.157 HD
ATOM      3  H12 UNL     1      44.543  -4.456  24.160  1.00  0.00     0.157 HD
HETATM    4  C1  UNL     1      44.113  -2.998  25.361  1.00  0.00     0.072 C
HETATM    5  C2  UNL     1      43.539  -3.953  26.313  1.00  0.00     0.106 C
HETATM    6  C3  UNL     1      44.086  -3.882  27.692  1.00  0.00     0.280 C
HETATM    7  N2  UNL     1      44.003  -2.626  28.332  1.00  0.00     0.090 N
HETATM    8  C8  UNL     1      43.233  -1.630  27.676  1.00  0.00     0.292 C
HETATM    9  C9  UNL     1      44.084  -0.832  26.717  1.00  0.00     0.151 C
HETATM   10  N5  UNL     1      44.201  -1.590  25.494  1.00  0.00    -0.378 N
ATOM     11  H5  UNL     1      44.363  -1.058  24.638  1.00  0.00     0.160 HD
ENDROOT
BRANCH   7  12
HETATM   12  C4  UNL     1      43.558  -2.781  29.691  1.00  0.00     0.274 C
BRANCH  12  13
HETATM   13  C5  UNL     1      44.013  -1.545  30.448  1.00  0.00     0.050 C
BRANCH  13  14
HETATM   14  C6  UNL     1      42.867  -1.110  31.319  1.00  0.00     0.123 C
BRANCH  14  15
HETATM   15  N3  UNL     1      41.982  -0.165  30.689  1.00  0.00    -0.369 N
ATOM     16  H3  UNL     1      42.366   0.725  30.373  1.00  0.00     0.161 HD
BRANCH  15  17
HETATM   17  C7  UNL     1      40.610  -0.414  30.487  1.00  0.00     0.180 C
HETATM   18  N4  UNL     1      40.179  -1.537  29.741  1.00  0.00    -0.070 NA
HETATM   19  S1  UNL     1      39.485   0.583  31.103  1.00  0.00    -0.044 SA
ENDBRANCH  15  17
ENDBRANCH  14  15
ENDBRANCH  13  14
ENDBRANCH  12  13
ENDBRANCH   7  12
TORSDOF 5
ENDMDL