MODEL 5
REMARK VINA RESULT: -5.697701940      1.996      3.472
REMARK  5 active torsions:
REMARK  status: ('A' for Active; 'I' for Inactive)
REMARK    1  A    between atoms: C3_3  and  C4_4
REMARK    2  A    between atoms: C4_4  and  O1_5
REMARK    3  A    between atoms: O1_5  and  C5_6
REMARK    4  A    between atoms: C5_6  and  C6_10
REMARK    5  A    between atoms: C11_18  and  C12_19
ROOT
HETATM    1  C1  UNL     1      37.853  -4.161  29.874  1.00  0.00     0.012 C
HETATM    2  C2  UNL     1      38.616  -5.017  30.248  1.00  0.00    -0.115 C
HETATM    3  C3  UNL     1      39.540  -6.047  30.714  1.00  0.00     0.119 C
ENDROOT
BRANCH   3   4
HETATM    4  C4  UNL     1      40.752  -6.146  29.784  1.00  0.00     0.189 C
BRANCH   4   5
HETATM    5  O1  UNL     1      41.127  -4.861  29.342  1.00  0.00    -0.338 OA
BRANCH   5   6
HETATM    6  C5  UNL     1      42.344  -4.694  28.676  1.00  0.00     0.118 C
HETATM    7  N1  UNL     1      43.297  -5.513  28.924  1.00  0.00    -0.383 N
ATOM      8  H12 UNL     1      43.147  -6.266  29.595  1.00  0.00     0.158 HD
ATOM      9  H11 UNL     1      44.185  -5.392  28.437  1.00  0.00     0.158 HD
BRANCH   6  10
HETATM   10  C6  UNL     1      42.560  -3.606  27.704  1.00  0.00     0.102 C
HETATM   11  C7  UNL     1      42.600  -2.260  28.383  1.00  0.00     0.203 C
HETATM   12  N2  UNL     1      43.352  -2.172  29.603  1.00  0.00    -0.070 N
HETATM   13  C10 UNL     1      43.653  -1.859  27.362  1.00  0.00     0.030 C
HETATM   14  C8  UNL     1      44.068  -0.885  29.468  1.00  0.00     0.233 C
ATOM     15  H22 UNL     1      42.794  -2.260  30.451  1.00  0.00     0.277 HD
ATOM     16  H21 UNL     1      43.953  -2.974  29.788  1.00  0.00     0.277 HD
HETATM   17  C9  UNL     1      44.685  -1.056  28.083  1.00  0.00     0.035 C
HETATM   18  C11 UNL     1      43.973  -3.358  27.244  1.00  0.00     0.070 C
BRANCH  18  19
HETATM   19  C12 UNL     1      44.217  -3.695  25.808  1.00  0.00     0.092 C
HETATM   20  N3  UNL     1      44.401  -4.928  25.468  1.00  0.00    -0.391 N
ATOM     21  H32 UNL     1      44.368  -5.621  26.214  1.00  0.00     0.157 HD
ATOM     22  H31 UNL     1      44.567  -5.158  24.488  1.00  0.00     0.157 HD
HETATM   23  N4  UNL     1      44.261  -2.738  24.776  1.00  0.00    -0.088 NA
ENDBRANCH  18  19
ENDBRANCH   6  10
ENDBRANCH   5   6
ENDBRANCH   4   5
ENDBRANCH   3   4
TORSDOF 5
ENDMDL