MODEL 4
REMARK VINA RESULT: -6.134095926      3.125      4.503
REMARK  4 active torsions:
REMARK  status: ('A' for Active; 'I' for Inactive)
REMARK       I    between atoms: C1_2  and  N4_12
REMARK    1  A    between atoms: N2_3  and  C2_5
REMARK    2  A    between atoms: N4_12  and  C6_14
REMARK    3  A    between atoms: C6_14  and  C7_15
REMARK    4  A    between atoms: C7_15  and  N5_16
ROOT
HETATM    1  N1  UNL     1      42.790  -2.147  33.011  1.00  0.00    -0.064 NA
HETATM    2  C1  UNL     1      43.662  -1.559  32.109  1.00  0.00     0.184 C
HETATM    3  N2  UNL     1      44.464  -0.607  32.447  1.00  0.00    -0.358 N
ATOM      4  H2  UNL     1      45.092  -0.202  31.754  1.00  0.00     0.162 HD
HETATM    5  N4  UNL     1      43.744  -1.957  30.738  1.00  0.00    -0.363 N
ATOM      6  H4  UNL     1      44.347  -2.727  30.448  1.00  0.00     0.162 HD
ENDROOT
BRANCH   5   7
HETATM    7  C6  UNL     1      42.950  -1.240  29.785  1.00  0.00     0.142 C
BRANCH   7   8
HETATM    8  C7  UNL     1      42.271  -2.119  28.806  1.00  0.00     0.141 C
BRANCH   8   9
HETATM    9  N5  UNL     1      42.944  -2.371  27.591  1.00  0.00    -0.389 N
HETATM   10  C8  UNL     1      43.752  -1.260  27.131  1.00  0.00     0.149 C
HETATM   11  C9  UNL     1      45.039  -1.805  26.528  1.00  0.00     0.252 C
HETATM   12  N6  UNL     1      44.650  -2.638  25.404  1.00  0.00    -0.069 N
HETATM   13  C10 UNL     1      43.909  -3.763  25.884  1.00  0.00     0.276 C
ATOM     14  H62 UNL     1      44.140  -2.115  24.692  1.00  0.00     0.277 HD
ATOM     15  H61 UNL     1      45.449  -2.917  24.835  1.00  0.00     0.277 HD
HETATM   16  C11 UNL     1      43.449  -3.638  27.315  1.00  0.00     0.085 C
ENDBRANCH   8   9
ENDBRANCH   7   8
ENDBRANCH   5   7
BRANCH   3  17
HETATM   17  C2  UNL     1      44.474  -0.118  33.797  1.00  0.00     0.111 C
HETATM   18  C3  UNL     1      43.812   1.261  33.860  1.00  0.00     0.054 C
HETATM   19  C4  UNL     1      44.479   1.883  35.047  1.00  0.00     0.234 C
HETATM   20  N3  UNL     1      45.674   1.151  35.313  1.00  0.00    -0.073 N
HETATM   21  C5  UNL     1      45.899   0.242  34.234  1.00  0.00     0.257 C
ATOM     22  H32 UNL     1      46.474   1.759  35.487  1.00  0.00     0.277 HD
ATOM     23  H31 UNL     1      45.653   0.685  36.220  1.00  0.00     0.277 HD
ENDBRANCH   3  17
TORSDOF 4
ENDMDL