MODEL 2
REMARK VINA RESULT: -5.081027072      4.717      6.392
REMARK  4 active torsions:
REMARK  status: ('A' for Active; 'I' for Inactive)
REMARK    1  A    between atoms: O1_2  and  C2_3
REMARK    2  A    between atoms: C2_3  and  C3_4
REMARK    3  A    between atoms: C7_8  and  N1_9
REMARK       I    between atoms: N1_9  and  C8_11
REMARK       I    between atoms: C8_11  and  N3_15
REMARK    4  A    between atoms: N3_15  and  N4_17
ROOT
HETATM    1  N1  UNL     1      47.512   0.611  36.364  1.00  0.00    -0.218 N
ATOM      2  H1  UNL     1      47.730   1.353  35.699  1.00  0.00     0.178 HD
HETATM    3  C8  UNL     1      48.559  -0.177  36.878  1.00  0.00     0.687 C
HETATM    4  N2  UNL     1      49.368   0.307  37.732  1.00  0.00    -0.234 N
ATOM      5  H21 UNL     1      50.127  -0.264  38.104  1.00  0.00     0.174 HD
ATOM      6  H22 UNL     1      49.261   1.271  38.048  1.00  0.00     0.174 HD
HETATM    7  N3  UNL     1      48.707  -1.509  36.440  1.00  0.00    -0.119 N
ATOM      8  H3  UNL     1      49.509  -1.730  35.849  1.00  0.00     0.207 HD
ENDROOT
BRANCH   1   9
HETATM    9  C7  UNL     1      46.136   0.396  36.755  1.00  0.00     0.128 C
HETATM   10  C6  UNL     1      45.540   1.647  37.263  1.00  0.00     0.028 C
HETATM   11  C5  UNL     1      45.209   2.648  36.179  1.00  0.00     0.005 C
HETATM   12  C4  UNL     1      43.884   2.199  35.587  1.00  0.00     0.034 C
HETATM   13  C3  UNL     1      44.186   1.368  34.372  1.00  0.00     0.145 C
HETATM   14  O2  UNL     1      45.158   0.443  34.526  1.00  0.00    -0.377 OA
HETATM   15  C9  UNL     1      45.375  -0.269  35.625  1.00  0.00     0.141 C
HETATM   16  C10 UNL     1      44.258  -1.128  36.165  1.00  0.00     0.041 C
BRANCH  13  17
HETATM   17  C2  UNL     1      42.924   0.770  33.787  1.00  0.00     0.199 C
BRANCH  17  18
HETATM   18  O1  UNL     1      43.048   0.343  32.496  1.00  0.00    -0.393 OA
HETATM   19  C1  UNL     1      41.979  -0.406  32.047  1.00  0.00     0.201 C
ENDBRANCH  17  18
ENDBRANCH  13  17
ENDBRANCH   1   9
BRANCH   7  20
HETATM   20  N4  UNL     1      47.833  -2.543  36.760  1.00  0.00    -0.235 N
HETATM   21  N5  UNL     1      47.246  -3.278  35.925  1.00  0.00    -0.330 N
ATOM     22  H52 UNL     1      47.436  -3.088  34.942  1.00  0.00     0.178 HD
ATOM     23  H51 UNL     1      46.604  -4.036  36.160  1.00  0.00     0.178 HD
ATOM     24  H4  UNL     1      47.655  -2.719  37.749  1.00  0.00     0.208 HD
ENDBRANCH   7  20
TORSDOF 4
ENDMDL