MODEL 5
REMARK VINA RESULT: -5.496784607      1.731      2.018
REMARK  7 active torsions:
REMARK  status: ('A' for Active; 'I' for Inactive)
REMARK    1  A    between atoms: N1_2  and  C2_4
REMARK    2  A    between atoms: C2_4  and  N2_6
REMARK    3  A    between atoms: N2_6  and  N3_8
REMARK    4  A    between atoms: N3_8  and  C3_9
REMARK    5  A    between atoms: C3_9  and  C4_10
REMARK    6  A    between atoms: C4_10  and  C5_11
REMARK    7  A    between atoms: C5_11  and  N4_12
ROOT
HETATM    1  C3  UNL     1      43.578  -2.564  30.202  1.00  0.00     0.136 C
ENDROOT
BRANCH   1   2
HETATM    2  N3  UNL     1      43.919  -1.199  29.921  1.00  0.00    -0.139 NA
BRANCH   2   3
HETATM    3  N2  UNL     1      42.697  -0.479  29.867  1.00  0.00    -0.280 N
ATOM      4  H2  UNL     1      42.379  -0.116  28.969  1.00  0.00     0.184 HD
BRANCH   3   5
HETATM    5  C2  UNL     1      41.909  -0.248  31.011  1.00  0.00     0.183 C
HETATM    6  S1  UNL     1      40.291  -0.207  30.849  1.00  0.00    -0.040 SA
BRANCH   5   7
HETATM    7  N1  UNL     1      42.474  -0.053  32.301  1.00  0.00    -0.371 N
HETATM    8  C1  UNL     1      42.251  -0.962  33.397  1.00  0.00     0.148 C
ATOM      9  H1  UNL     1      43.062   0.766  32.458  1.00  0.00     0.161 HD
ENDBRANCH   5   7
ENDBRANCH   3   5
ENDBRANCH   2   3
ENDBRANCH   1   2
BRANCH   1  10
HETATM   10  C4  UNL     1      43.873  -3.506  29.087  1.00  0.00     0.038 C
BRANCH  10  11
HETATM   11  C5  UNL     1      42.801  -3.495  28.013  1.00  0.00     0.129 C
BRANCH  11  12
HETATM   12  N4  UNL     1      43.383  -3.158  26.729  1.00  0.00    -0.333 N
HETATM   13  C6  UNL     1      43.645  -4.123  25.678  1.00  0.00     0.147 C
HETATM   14  C7  UNL     1      44.055  -3.320  24.485  1.00  0.00     0.144 C
HETATM   15  N5  UNL     1      44.418  -2.020  24.977  1.00  0.00    -0.341 N
HETATM   16  C8  UNL     1      43.798  -1.886  26.244  1.00  0.00     0.318 C
ATOM     17  H5  UNL     1      45.004  -1.329  24.508  1.00  0.00     0.164 HD
HETATM   18  O1  UNL     1      43.627  -0.815  26.874  1.00  0.00    -0.247 OA
ENDBRANCH  11  12
ENDBRANCH  10  11
ENDBRANCH   1  10
TORSDOF 7
ENDMDL