MODEL 2
REMARK VINA RESULT: -5.144628379      2.884      4.026
REMARK  7 active torsions:
REMARK  status: ('A' for Active; 'I' for Inactive)
REMARK    1  A    between atoms: N1_2  and  C4_5
REMARK    2  A    between atoms: C4_5  and  C5_6
REMARK    3  A    between atoms: C5_6  and  C6_7
REMARK    4  A    between atoms: C7_10  and  C8_11
REMARK    5  A    between atoms: C8_11  and  O1_12
REMARK    6  A    between atoms: C10_15  and  O2_16
REMARK    7  A    between atoms: C11_18  and  O3_19
ROOT
HETATM    1  C6  UNL     1      43.434  -2.193  29.197  1.00  0.00     0.110 C
HETATM    2  N2  UNL     1      44.289  -1.960  28.091  1.00  0.00    -0.408 N
ATOM      3  H2  UNL     1      44.915  -1.156  28.058  1.00  0.00     0.154 HD
HETATM    4  C7  UNL     1      44.231  -2.900  27.035  1.00  0.00     0.103 C
HETATM    5  C9  UNL     1      43.002  -3.715  26.928  1.00  0.00     0.061 C
HETATM    6  C10 UNL     1      42.421  -4.176  28.220  1.00  0.00     0.150 C
HETATM    7  C11 UNL     1      43.180  -3.673  29.397  1.00  0.00     0.169 C
ENDROOT
BRANCH   1   8
HETATM    8  C5  UNL     1      43.937  -1.640  30.501  1.00  0.00     0.055 C
BRANCH   8   9
HETATM    9  C4  UNL     1      42.853  -1.027  31.343  1.00  0.00     0.238 C
BRANCH   9  10
HETATM   10  N1  UNL     1      43.190  -1.112  32.727  1.00  0.00    -0.079 N
HETATM   11  C1  UNL     1      44.578  -0.826  33.014  1.00  0.00     0.271 C
HETATM   12  C2  UNL     1      42.407  -0.147  33.516  1.00  0.00     0.271 C
HETATM   13  C3  UNL     1      42.887  -2.417  33.308  1.00  0.00     0.271 C
ENDBRANCH   9  10
ENDBRANCH   8   9
ENDBRANCH   1   8
BRANCH   7  14
HETATM   14  O3  UNL     1      44.407  -4.292  29.586  1.00  0.00    -0.391 OA
ATOM     15  H3  UNL     1      44.287  -5.223  29.444  1.00  0.00     0.210 HD
ENDBRANCH   7  14
BRANCH   4  16
HETATM   16  C8  UNL     1      44.394  -2.129  25.718  1.00  0.00     0.189 C
BRANCH  16  17
HETATM   17  O1  UNL     1      44.640  -3.048  24.699  1.00  0.00    -0.399 OA
ATOM     18  H1  UNL     1      44.702  -3.913  25.086  1.00  0.00     0.209 HD
ENDBRANCH  16  17
ENDBRANCH   4  16
BRANCH   6  19
HETATM   19  O2  UNL     1      41.097  -3.747  28.314  1.00  0.00    -0.393 OA
ATOM     20  H2  UNL     1      40.899  -3.526  29.216  1.00  0.00     0.210 HD
ENDBRANCH   6  19
TORSDOF 7
ENDMDL