MODEL 3
REMARK VINA RESULT: -5.592069450      1.038      1.087
REMARK  7 active torsions:
REMARK  status: ('A' for Active; 'I' for Inactive)
REMARK    1  A    between atoms: C4_7  and  C5_8
REMARK    2  A    between atoms: C5_8  and  N2_9
REMARK    3  A    between atoms: N2_9  and  C6_11
REMARK    4  A    between atoms: C6_11  and  N3_13
REMARK    5  A    between atoms: N3_13  and  C7_15
REMARK    6  A    between atoms: C7_15  and  C8_16
REMARK    7  A    between atoms: C8_16  and  O1_17
ROOT
HETATM    1  C5  UNL     1      43.798  -1.674  29.569  1.00  0.00     0.154 C
ENDROOT
BRANCH   1   2
HETATM    2  C4  UNL     1      43.872  -2.305  28.226  1.00  0.00     0.140 C
HETATM    3  C3  UNL     1      44.430  -1.490  27.115  1.00  0.00     0.039 C
HETATM    4  C2  UNL     1      44.294  -2.291  25.815  1.00  0.00     0.057 C
HETATM    5  C1  UNL     1      43.931  -3.709  26.084  1.00  0.00     0.004 C
HETATM    6  N1  UNL     1      44.431  -4.691  25.460  1.00  0.00    -0.404 N
HETATM    7  C9  UNL     1      42.923  -4.033  27.134  1.00  0.00     0.220 C
ATOM      8  H12 UNL     1      45.121  -4.469  24.742  1.00  0.00     0.155 HD
ATOM      9  H11 UNL     1      44.183  -5.663  25.645  1.00  0.00     0.155 HD
HETATM   10  O2  UNL     1      42.632  -2.890  27.872  1.00  0.00    -0.379 OA
ENDBRANCH   1   2
BRANCH   1  11
HETATM   11  N2  UNL     1      42.998  -0.475  29.620  1.00  0.00    -0.365 N
ATOM     12  H2  UNL     1      43.207   0.328  29.029  1.00  0.00     0.161 HD
BRANCH  11  13
HETATM   13  C6  UNL     1      41.911  -0.460  30.526  1.00  0.00     0.167 C
HETATM   14  S1  UNL     1      42.254  -0.527  32.162  1.00  0.00    -0.041 SA
BRANCH  13  15
HETATM   15  N3  UNL     1      40.555  -0.391  30.131  1.00  0.00    -0.365 N
ATOM     16  H3  UNL     1      40.249  -0.876  29.287  1.00  0.00     0.161 HD
BRANCH  15  17
HETATM   17  C7  UNL     1      39.604   0.354  30.907  1.00  0.00     0.148 C
BRANCH  17  18
HETATM   18  C8  UNL     1      38.469  -0.600  31.287  1.00  0.00     0.183 C
BRANCH  18  19
HETATM   19  O1  UNL     1      38.885  -1.930  31.230  1.00  0.00    -0.399 OA
ATOM     20  H1  UNL     1      39.046  -2.278  32.099  1.00  0.00     0.209 HD
ENDBRANCH  18  19
ENDBRANCH  17  18
ENDBRANCH  15  17
ENDBRANCH  13  15
ENDBRANCH  11  13
ENDBRANCH   1  11
TORSDOF 7
ENDMDL