MODEL 3
REMARK VINA RESULT: -5.416643159      4.710      7.217
REMARK  4 active torsions:
REMARK  status: ('A' for Active; 'I' for Inactive)
REMARK    1  A    between atoms: N1_2  and  C2_4
REMARK    2  A    between atoms: C2_4  and  C3_5
REMARK    3  A    between atoms: C3_5  and  C4_6
REMARK    4  A    between atoms: C6_11  and  C7_12
ROOT
HETATM    1  C4  UNL     1      44.535   0.246  34.993  1.00  0.00     0.178 C
HETATM    2  N2  UNL     1      44.645   0.961  36.281  1.00  0.00    -0.346 N
ATOM      3  H2  UNL     1      43.801   1.302  36.740  1.00  0.00     0.163 HD
HETATM    4  C5  UNL     1      45.911   1.182  36.890  1.00  0.00     0.241 C
HETATM    5  O1  UNL     1      46.043   2.161  37.666  1.00  0.00    -0.271 OA
HETATM    6  C6  UNL     1      46.980   0.217  36.546  1.00  0.00     0.182 C
HETATM    7  N4  UNL     1      47.017   0.123  35.098  1.00  0.00    -0.346 N
ATOM      8  H4  UNL     1      47.875  -0.154  34.621  1.00  0.00     0.163 HD
HETATM    9  C11 UNL     1      45.844   0.420  34.351  1.00  0.00     0.241 C
HETATM   10  O2  UNL     1      45.957   0.822  33.167  1.00  0.00    -0.271 OA
ENDROOT
BRANCH   6  11
HETATM   11  C7  UNL     1      48.315   0.540  37.136  1.00  0.00     0.045 C
HETATM   12  C8  UNL     1      49.362  -0.015  36.168  1.00  0.00     0.036 C
HETATM   13  C9  UNL     1      50.240  -0.943  37.013  1.00  0.00     0.232 C
HETATM   14  N3  UNL     1      50.094  -0.288  38.322  1.00  0.00    -0.075 N
HETATM   15  C10 UNL     1      48.626  -0.216  38.386  1.00  0.00     0.239 C
ATOM     16  H32 UNL     1      50.556  -0.745  39.108  1.00  0.00     0.277 HD
ATOM     17  H31 UNL     1      50.593   0.593  38.443  1.00  0.00     0.277 HD
ENDBRANCH   6  11
BRANCH   1  18
HETATM   18  C3  UNL     1      43.376   0.838  34.285  1.00  0.00     0.054 C
BRANCH  18  19
HETATM   19  C2  UNL     1      42.594  -0.078  33.410  1.00  0.00     0.115 C
BRANCH  19  20
HETATM   20  N1  UNL     1      43.126  -0.224  32.081  1.00  0.00    -0.425 N
HETATM   21  C1  UNL     1      43.545  -1.548  31.743  1.00  0.00     0.139 C
ATOM     22  H1  UNL     1      43.199   0.558  31.430  1.00  0.00     0.152 HD
ENDBRANCH  19  20
ENDBRANCH  18  19
ENDBRANCH   1  18
TORSDOF 4
ENDMDL