MODEL 1
REMARK VINA RESULT: -7.270289198      0.000      0.000
REMARK  7 active torsions:
REMARK  status: ('A' for Active; 'I' for Inactive)
REMARK    1  A    between atoms: C2_2  and  C3_4
REMARK    2  A    between atoms: C3_4  and  N1_5
REMARK    3  A    between atoms: N1_5  and  C4_7
REMARK    4  A    between atoms: C4_7  and  O2_8
REMARK    5  A    between atoms: C4_7  and  C5_10
REMARK    6  A    between atoms: C8_18  and  C9_19
REMARK    7  A    between atoms: C15_27  and  C16_28
ROOT
HETATM    1  C9  UNL     1       3.464 -12.725  39.394  1.00  0.00     0.010 C
HETATM    2  C10 UNL     1       4.406 -11.910  38.797  1.00  0.00     0.042 C
HETATM    3  C11 UNL     1       4.503 -11.539  37.448  1.00  0.00     0.098 C
HETATM    4  C12 UNL     1       5.782 -11.111  36.989  1.00  0.00     0.103 C
HETATM    5  N4  UNL     1       6.813 -10.745  36.625  1.00  0.00    -0.191 NA
HETATM    6  C13 UNL     1       3.514 -11.528  36.496  1.00  0.00     0.222 C
HETATM    7  O3  UNL     1       3.620 -10.749  35.521  1.00  0.00    -0.284 OA
HETATM    8  C14 UNL     1       2.365 -12.313  36.500  1.00  0.00     0.122 A
HETATM    9  C15 UNL     1       1.611 -12.628  35.403  1.00  0.00     0.057 A
HETATM   10  C19 UNL     1       0.556 -13.404  35.876  1.00  0.00     0.125 A
HETATM   11  N7  UNL     1       0.678 -13.547  37.205  1.00  0.00    -0.304 N
ATOM     12  H7  UNL     1       0.049 -14.065  37.818  1.00  0.00     0.186 HD
HETATM   13  N8  UNL     1       1.766 -12.891  37.571  1.00  0.00    -0.262 N
HETATM   14  C20 UNL     1       2.167 -12.858  38.880  1.00  0.00     0.130 C
ENDROOT
BRANCH   1  15
HETATM   15  C8  UNL     1       3.808 -13.480  40.587  1.00  0.00     0.049 A
HETATM   16  C7  UNL     1       2.969 -14.462  41.043  1.00  0.00     0.078 A
HETATM   17  C6  UNL     1       3.261 -15.209  42.189  1.00  0.00     0.102 A
HETATM   18  N2  UNL     1       4.401 -14.925  42.822  1.00  0.00    -0.329 N
HETATM   19  N3  UNL     1       2.444 -16.137  42.600  1.00  0.00    -0.385 N
HETATM   20  C5  UNL     1       5.239 -13.972  42.400  1.00  0.00     0.132 A
ATOM     21  H2  UNL     1       4.641 -15.454  43.660  1.00  0.00     0.168 HD
HETATM   22  N9  UNL     1       4.929 -13.253  41.275  1.00  0.00    -0.341 N
ATOM     23  H9  UNL     1       5.570 -12.527  40.956  1.00  0.00     0.167 HD
ATOM     24  H32 UNL     1       2.658 -16.681  43.436  1.00  0.00     0.157 HD
ATOM     25  H31 UNL     1       1.573 -16.354  42.116  1.00  0.00     0.157 HD
BRANCH  20  26
HETATM   26  C4  UNL     1       6.482 -13.707  43.149  1.00  0.00     0.283 C
BRANCH  26  27
HETATM   27  N1  UNL     1       6.736 -14.558  44.248  1.00  0.00    -0.384 N
ATOM     28  H1  UNL     1       6.131 -15.354  44.448  1.00  0.00     0.156 HD
BRANCH  27  29
HETATM   29  C3  UNL     1       7.858 -14.271  45.063  1.00  0.00     0.195 C
BRANCH  29  30
HETATM   30  C2  UNL     1       8.175 -15.461  45.940  1.00  0.00     0.140 C
HETATM   31  C1  UNL     1       7.535 -15.679  47.247  1.00  0.00     0.092 C
HETATM   32  O1  UNL     1       8.994 -16.269  45.544  1.00  0.00    -0.297 OA
ENDBRANCH  29  30
ENDBRANCH  27  29
ENDBRANCH  26  27
BRANCH  26  33
HETATM   33  O2  UNL     1       6.615 -12.343  43.491  1.00  0.00    -0.370 OA
ATOM     34  H2  UNL     1       7.525 -12.084  43.575  1.00  0.00     0.212 HD
ENDBRANCH  26  33
ENDBRANCH  20  26
ENDBRANCH   1  15
BRANCH   9  35
HETATM   35  C16 UNL     1       1.843 -12.275  34.025  1.00  0.00     0.111 C
HETATM   36  N5  UNL     1       2.704 -12.936  33.295  1.00  0.00    -0.374 N
HETATM   37  C17 UNL     1       2.772 -12.416  31.961  1.00  0.00     0.141 C
ATOM     38  H5  UNL     1       3.258 -13.723  33.633  1.00  0.00     0.161 HD
HETATM   39  C18 UNL     1       1.567 -11.520  31.873  1.00  0.00     0.141 C
HETATM   40  N6  UNL     1       1.280 -11.224  33.256  1.00  0.00    -0.374 N
ATOM     41  H6  UNL     1       0.769 -10.416  33.612  1.00  0.00     0.161 HD
ENDBRANCH   9  35
TORSDOF 7
ENDMDL