MODEL 2
REMARK VINA RESULT: -6.186605278      3.454      9.612
REMARK  10 active torsions:
REMARK  status: ('A' for Active; 'I' for Inactive)
REMARK    1  A    between atoms: N1_1  and  C1_4
REMARK    2  A    between atoms: C2_7  and  N3_8
REMARK    3  A    between atoms: N5_15  and  C5_16
REMARK    4  A    between atoms: C9_22  and  C10_23
REMARK    5  A    between atoms: N8_26  and  C11_27
REMARK    6  A    between atoms: C11_27  and  C12_28
REMARK    7  A    between atoms: C12_28  and  O1_29
REMARK    8  A    between atoms: N9_35  and  C16_36
REMARK    9  A    between atoms: C16_36  and  C17_37
REMARK   10  A    between atoms: C17_37  and  N10_38
ROOT
HETATM    1  C1  UNL     1      10.276 -15.964  48.145  1.00  0.00     0.679 A
HETATM    2  N2  UNL     1       9.000 -16.058  48.543  1.00  0.00    -0.175 N
ATOM      3  H2  UNL     1       8.806 -16.345  49.502  1.00  0.00     0.186 HD
HETATM    4  C2  UNL     1       7.950 -15.784  47.712  1.00  0.00     0.146 A
HETATM    5  C3  UNL     1       8.207 -15.395  46.420  1.00  0.00     0.145 A
HETATM    6  C4  UNL     1       9.533 -15.310  46.048  1.00  0.00     0.171 A
HETATM    7  N4  UNL     1      10.557 -15.587  46.885  1.00  0.00    -0.174 N
ATOM      8  H4  UNL     1      11.524 -15.511  46.568  1.00  0.00     0.186 HD
HETATM    9  N5  UNL     1       9.603 -14.922  44.771  1.00  0.00    -0.160 N
HETATM   10  C8  UNL     1       8.343 -14.757  44.317  1.00  0.00     0.694 A
HETATM   11  N6  UNL     1       7.636 -14.414  43.241  1.00  0.00    -0.186 N
ATOM     12  H6  UNL     1       8.028 -14.148  42.338  1.00  0.00     0.184 HD
HETATM   13  C9  UNL     1       6.332 -14.475  43.530  1.00  0.00     0.111 A
HETATM   14  C18 UNL     1       6.266 -14.883  44.873  1.00  0.00     0.149 A
HETATM   15  N11 UNL     1       7.495 -15.050  45.337  1.00  0.00    -0.148 N
ENDROOT
BRANCH  13  16
HETATM   16  C10 UNL     1       5.170 -14.200  42.709  1.00  0.00     0.155 A
HETATM   17  N7  UNL     1       5.038 -13.146  41.883  1.00  0.00    -0.277 N
HETATM   18  N8  UNL     1       3.863 -13.193  41.285  1.00  0.00    -0.238 N
ATOM     19  H7  UNL     1       5.740 -12.421  41.740  1.00  0.00     0.189 HD
HETATM   20  C15 UNL     1       3.237 -14.290  41.736  1.00  0.00     0.345 A
HETATM   21  O2  UNL     1       2.087 -14.637  41.367  1.00  0.00    -0.245 OA
HETATM   22  N9  UNL     1       4.053 -14.929  42.630  1.00  0.00    -0.279 N
BRANCH  18  23
HETATM   23  C11 UNL     1       3.385 -12.211  40.326  1.00  0.00     0.192 C
BRANCH  23  24
HETATM   24  C12 UNL     1       3.099 -12.837  38.991  1.00  0.00     0.076 A
HETATM   25  C13 UNL     1       4.132 -13.729  38.377  1.00  0.00     0.042 A
HETATM   26  C14 UNL     1       3.890 -12.396  37.775  1.00  0.00     0.042 A
BRANCH  24  27
HETATM   27  O1  UNL     1       1.766 -13.207  38.817  1.00  0.00    -0.388 OA
ATOM     28  H1  UNL     1       1.295 -13.340  39.631  1.00  0.00     0.210 HD
ENDBRANCH  24  27
ENDBRANCH  23  24
ENDBRANCH  18  23
BRANCH  22  29
HETATM   29  C16 UNL     1       3.711 -16.141  43.315  1.00  0.00     0.162 C
BRANCH  29  30
HETATM   30  C17 UNL     1       3.225 -17.243  42.411  1.00  0.00     0.250 C
BRANCH  30  31
HETATM   31  N10 UNL     1       4.329 -17.686  41.600  1.00  0.00    -0.078 N
ATOM     32 3H10 UNL     1       4.039 -17.972  40.665  1.00  0.00     0.274 HD
ATOM     33 2H10 UNL     1       4.946 -16.921  41.326  1.00  0.00     0.274 HD
ATOM     34 1H10 UNL     1       4.822 -18.426  42.102  1.00  0.00     0.274 HD
ENDBRANCH  30  31
ENDBRANCH  29  30
ENDBRANCH  22  29
ENDBRANCH  13  16
BRANCH   9  35
HETATM   35  C5  UNL     1      10.783 -14.702  43.968  1.00  0.00     0.110 A
HETATM   36  C6  UNL     1      10.849 -15.076  42.546  1.00  0.00     0.028 A
HETATM   37  C7  UNL     1      11.494 -15.987  43.562  1.00  0.00     0.028 A
ENDBRANCH   9  35
BRANCH   4  38
HETATM   38  N3  UNL     1       6.758 -15.881  48.117  1.00  0.00    -0.383 N
ATOM     39  H32 UNL     1       5.993 -15.951  47.445  1.00  0.00     0.157 HD
ATOM     40  H31 UNL     1       6.541 -15.891  49.114  1.00  0.00     0.157 HD
ENDBRANCH   4  38
BRANCH   1  41
HETATM   41  N1  UNL     1      11.270 -16.228  48.943  1.00  0.00    -0.234 N
ATOM     42  H12 UNL     1      11.893 -16.998  48.698  1.00  0.00     0.174 HD
ATOM     43  H11 UNL     1      11.437 -15.692  49.794  1.00  0.00     0.174 HD
ENDBRANCH   1  41
TORSDOF 10
ENDMDL