MODEL 1
REMARK VINA RESULT: -9.826794710      0.000      0.000
REMARK  8 active torsions:
REMARK  status: ('A' for Active; 'I' for Inactive)
REMARK    1  A    between atoms: N3_10  and  C5_11
REMARK    2  A    between atoms: C5_11  and  C6_12
REMARK    3  A    between atoms: C6_12  and  C7_13
REMARK    4  A    between atoms: C7_13  and  N4_15
REMARK    5  A    between atoms: N4_15  and  C9_17
REMARK    6  A    between atoms: C10_19  and  O3_20
REMARK    7  A    between atoms: C12_23  and  C13_24
REMARK       I    between atoms: C13_24  and  N5_26
REMARK    8  A    between atoms: N5_26  and  C14_28
ROOT
HETATM    1  N4  UNL     1       1.967 -11.527  38.004  1.00  0.00    -0.365 N
ATOM      2  H4  UNL     1       1.174 -10.950  37.724  1.00  0.00     0.162 HD
ENDROOT
BRANCH   1   3
HETATM    3  C7  UNL     1       1.756 -12.559  38.991  1.00  0.00     0.081 C
HETATM    4  C8  UNL     1       2.028 -13.884  38.291  1.00  0.00     0.032 C
BRANCH   3   5
HETATM    5  C6  UNL     1       2.464 -12.417  40.269  1.00  0.00     0.046 C
BRANCH   5   6
HETATM    6  C5  UNL     1       3.806 -13.001  40.447  1.00  0.00     0.153 C
BRANCH   6   7
HETATM    7  N3  UNL     1       3.789 -14.094  41.449  1.00  0.00    -0.272 N
HETATM    8  N2  UNL     1       2.927 -15.077  41.579  1.00  0.00    -0.261 N
HETATM    9  C4  UNL     1       3.235 -15.872  42.598  1.00  0.00     0.290 A
ATOM     10  H2  UNL     1       2.119 -15.214  40.970  1.00  0.00     0.190 HD
HETATM   11  C3  UNL     1       4.392 -15.352  43.165  1.00  0.00     0.149 A
HETATM   12  O1  UNL     1       2.652 -16.904  43.027  1.00  0.00    -0.264 OA
HETATM   13  N1  UNL     1       5.153 -15.727  44.208  1.00  0.00    -0.348 N
HETATM   14  C16 UNL     1       4.710 -14.241  42.422  1.00  0.00     0.158 A
HETATM   15  C2  UNL     1       6.255 -15.033  44.564  1.00  0.00     0.074 A
ATOM     16  H1  UNL     1       4.893 -16.556  44.742  1.00  0.00     0.166 HD
HETATM   17  C1  UNL     1       7.110 -15.428  45.709  1.00  0.00     0.074 C
HETATM   18  C17 UNL     1       6.573 -13.919  43.818  1.00  0.00     0.269 A
HETATM   19  N9  UNL     1       5.813 -13.559  42.791  1.00  0.00    -0.305 N
HETATM   20  O5  UNL     1       7.601 -13.251  44.130  1.00  0.00    -0.266 OA
ATOM     21  H9  UNL     1       6.075 -12.730  42.258  1.00  0.00     0.171 HD
ENDBRANCH   6   7
ENDBRANCH   5   6
ENDBRANCH   3   5
ENDBRANCH   1   3
BRANCH   1  22
HETATM   22  C9  UNL     1       3.237 -11.281  37.404  1.00  0.00     0.162 A
HETATM   23  O2  UNL     1       4.333 -10.870  38.025  1.00  0.00    -0.270 OA
HETATM   24  C10 UNL     1       5.332 -10.740  37.189  1.00  0.00     0.186 A
HETATM   25  C11 UNL     1       4.873 -11.084  35.936  1.00  0.00     0.085 A
HETATM   26  C12 UNL     1       3.528 -11.430  36.081  1.00  0.00     0.088 A
BRANCH  24  27
HETATM   27  O3  UNL     1       6.636 -10.336  37.440  1.00  0.00    -0.341 OA
ATOM     28  H3  UNL     1       7.158 -10.455  38.224  1.00  0.00     0.220 HD
ENDBRANCH  24  27
BRANCH  26  29
HETATM   29  C13 UNL     1       2.687 -11.859  34.942  1.00  0.00     0.262 C
HETATM   30  O4  UNL     1       1.563 -12.375  35.131  1.00  0.00    -0.267 OA
HETATM   31  N5  UNL     1       3.129 -11.696  33.616  1.00  0.00    -0.293 N
ATOM     32  H5  UNL     1       4.045 -11.279  33.451  1.00  0.00     0.172 HD
BRANCH  31  33
HETATM   33  C14 UNL     1       2.353 -12.089  32.510  1.00  0.00     0.195 C
HETATM   34  N6  UNL     1       2.728 -12.975  31.593  1.00  0.00    -0.346 N
HETATM   35  C15 UNL     1       1.646 -13.087  30.644  1.00  0.00     0.259 C
ATOM     36  H6  UNL     1       3.614 -13.480  31.565  1.00  0.00     0.163 HD
HETATM   37  N7  UNL     1       0.484 -12.728  31.473  1.00  0.00    -0.119 NA
HETATM   38  N8  UNL     1       1.067 -11.626  32.160  1.00  0.00    -0.273 N
ATOM     39  H8  UNL     1       0.652 -10.714  32.354  1.00  0.00     0.185 HD
ENDBRANCH  31  33
ENDBRANCH  26  29
ENDBRANCH   1  22
TORSDOF 8
ENDMDL