MODEL 3
REMARK VINA RESULT: -8.084378844      1.647      3.097
REMARK  7 active torsions:
REMARK  status: ('A' for Active; 'I' for Inactive)
REMARK    1  A    between atoms: C2_3  and  N2_4
REMARK    2  A    between atoms: C4_8  and  C5_9
REMARK    3  A    between atoms: N4_10  and  N5_12
REMARK       I    between atoms: N5_12  and  C6_14
REMARK    4  A    between atoms: C9_23  and  C10_24
REMARK    5  A    between atoms: N9_25  and  N10_27
REMARK       I    between atoms: N10_27  and  C11_29
REMARK    6  A    between atoms: C11_29  and  C12_31
REMARK    7  A    between atoms: C14_35  and  N12_36
ROOT
HETATM    1  C1  UNL     1       1.644 -15.046  40.787  1.00  0.00     0.161 C
HETATM    2  N1  UNL     1       2.935 -14.675  41.357  1.00  0.00    -0.301 N
HETATM    3  C2  UNL     1       3.687 -13.712  40.795  1.00  0.00     0.150 A
HETATM    4  C7  UNL     1       4.891 -13.380  41.345  1.00  0.00     0.053 A
HETATM    5  C8  UNL     1       5.307 -14.045  42.466  1.00  0.00     0.022 A
HETATM    6  C9  UNL     1       4.526 -15.055  43.061  1.00  0.00     0.049 A
HETATM    7  C15 UNL     1       3.329 -15.350  42.474  1.00  0.00     0.260 A
HETATM    8  O2  UNL     1       2.580 -16.219  42.925  1.00  0.00    -0.267 OA
ENDROOT
BRANCH   3   9
HETATM    9  N2  UNL     1       3.236 -13.025  39.620  1.00  0.00    -0.179 N
HETATM   10  N3  UNL     1       3.644 -13.246  38.381  1.00  0.00    -0.287 N
HETATM   11  C3  UNL     1       3.012 -12.422  37.529  1.00  0.00     0.141 A
ATOM     12  H3  UNL     1       4.339 -13.942  38.112  1.00  0.00     0.188 HD
HETATM   13  C4  UNL     1       2.162 -11.646  38.289  1.00  0.00     0.083 A
HETATM   14  N8  UNL     1       2.340 -12.056  39.551  1.00  0.00    -0.275 N
ATOM     15  H8  UNL     1       1.846 -11.671  40.356  1.00  0.00     0.189 HD
BRANCH  13  16
HETATM   16  C5  UNL     1       1.274 -10.610  37.780  1.00  0.00     0.139 C
HETATM   17  N4  UNL     1       0.002 -10.788  37.719  1.00  0.00    -0.307 N
ATOM     18  H4  UNL     1      -0.607 -10.053  37.361  1.00  0.00     0.186 HD
BRANCH  17  19
HETATM   19  N5  UNL     1      -0.531 -11.998  38.149  1.00  0.00    -0.274 N
HETATM   20  C6  UNL     1      -1.794 -12.046  38.794  1.00  0.00     0.200 C
HETATM   21  N6  UNL     1      -2.304 -13.115  39.273  1.00  0.00    -0.372 N
HETATM   22  N7  UNL     1      -2.559 -10.837  38.928  1.00  0.00    -0.062 NA
ATOM     23  H62 UNL     1      -1.761 -13.973  39.178  1.00  0.00     0.158 HD
ATOM     24  H61 UNL     1      -3.212 -13.149  39.737  1.00  0.00     0.158 HD
ATOM     25  H5  UNL     1      -0.008 -12.861  38.000  1.00  0.00     0.189 HD
ENDBRANCH  17  19
ENDBRANCH  13  16
ENDBRANCH   3   9
BRANCH   6  26
HETATM   26  C10 UNL     1       5.019 -15.738  44.265  1.00  0.00     0.124 C
HETATM   27  N9  UNL     1       6.024 -15.584  44.923  1.00  0.00    -0.308 N
ATOM     28  H9  UNL     1       5.935 -16.284  45.660  1.00  0.00     0.186 HD
BRANCH  27  29
HETATM   29  N10 UNL     1       7.168 -14.996  45.197  1.00  0.00    -0.266 N
HETATM   30  C11 UNL     1       7.829 -15.241  46.441  1.00  0.00     0.278 C
HETATM   31  O1  UNL     1       7.358 -16.008  47.301  1.00  0.00    -0.265 OA
ATOM     32  H10 UNL     1       7.586 -14.360  44.517  1.00  0.00     0.190 HD
BRANCH  30  33
HETATM   33  C12 UNL     1       9.103 -14.555  46.687  1.00  0.00     0.093 A
HETATM   34  C13 UNL     1      10.364 -14.882  46.265  1.00  0.00     0.115 A
HETATM   35  N11 UNL     1      11.348 -14.106  46.618  1.00  0.00    -0.345 N
HETATM   36  C14 UNL     1      11.086 -13.038  47.368  1.00  0.00     0.142 A
ATOM     37  H11 UNL     1      12.303 -14.313  46.326  1.00  0.00     0.167 HD
HETATM   38  S1  UNL     1       9.400 -13.123  47.586  1.00  0.00    -0.048 SA
BRANCH  36  39
HETATM   39  N12 UNL     1      11.936 -12.144  47.821  1.00  0.00    -0.380 N
ATOM     40 2H12 UNL     1      12.115 -11.858  48.783  1.00  0.00     0.158 HD
ATOM     41 1H12 UNL     1      12.580 -11.564  47.283  1.00  0.00     0.158 HD
ENDBRANCH  36  39
ENDBRANCH  30  33
ENDBRANCH  27  29
ENDBRANCH   6  26
TORSDOF 7
ENDMDL