MODEL 1
REMARK VINA RESULT: -7.056497729      0.000      0.000
REMARK  9 active torsions:
REMARK  status: ('A' for Active; 'I' for Inactive)
REMARK    1  A    between atoms: C2_2  and  O2_4
REMARK    2  A    between atoms: O2_4  and  C3_5
REMARK    3  A    between atoms: C3_5  and  C4_6
REMARK    4  A    between atoms: C4_6  and  O3_7
REMARK    5  A    between atoms: O3_7  and  N1_8
REMARK    6  A    between atoms: C5_10  and  C7_12
REMARK    7  A    between atoms: N3_18  and  N4_20
REMARK       I    between atoms: N4_20  and  C10_22
REMARK       I    between atoms: C10_22  and  N6_26
REMARK    8  A    between atoms: N6_26  and  N7_28
REMARK    9  A    between atoms: C11_31  and  C12_32
REMARK       I    between atoms: C12_32  and  N8_34
ROOT
HETATM    1  C12 UNL     1      -0.012 -11.786  37.705  1.00  0.00     0.284 C
HETATM    2  O4  UNL     1      -0.093 -10.814  36.890  1.00  0.00    -0.265 OA
HETATM    3  N8  UNL     1      -1.182 -12.312  38.264  1.00  0.00    -0.258 N
ATOM      4  H8  UNL     1      -1.120 -13.088  38.923  1.00  0.00     0.181 HD
HETATM    5  C13 UNL     1      -2.435 -11.787  37.931  1.00  0.00     0.184 C
HETATM    6  N9  UNL     1      -3.483 -11.354  37.636  1.00  0.00    -0.172 NA
ENDROOT
BRANCH   1   7
HETATM    7  C11 UNL     1       1.288 -12.348  38.072  1.00  0.00     0.148 A
HETATM    8  C9  UNL     1       2.116 -12.813  37.091  1.00  0.00     0.154 A
HETATM    9  N2  UNL     1       3.284 -13.434  37.531  1.00  0.00    -0.332 N
HETATM   10  N3  UNL     1       2.022 -12.725  35.887  1.00  0.00    -0.269 N
HETATM   11  C8  UNL     1       3.544 -13.543  38.845  1.00  0.00     0.104 A
ATOM     12  H2  UNL     1       3.947 -13.807  36.851  1.00  0.00     0.168 HD
HETATM   13  S1  UNL     1       4.855 -14.227  39.748  1.00  0.00    -0.068 SA
HETATM   14  C14 UNL     1       2.724 -13.076  39.825  1.00  0.00     0.074 A
HETATM   15  C7  UNL     1       4.309 -13.893  41.319  1.00  0.00     0.039 A
HETATM   16  C15 UNL     1       3.121 -13.258  41.117  1.00  0.00    -0.013 A
HETATM   17  C16 UNL     1       2.318 -12.794  42.329  1.00  0.00     0.052 C
HETATM   18  N10 UNL     1       1.566 -12.464  39.401  1.00  0.00    -0.346 N
ATOM     19  H10 UNL     1       0.910 -12.094  40.088  1.00  0.00     0.166 HD
ATOM     20  H3  UNL     1       2.852 -13.146  35.470  1.00  0.00     0.189 HD
BRANCH  15  21
HETATM   21  C5  UNL     1       4.980 -14.224  42.578  1.00  0.00     0.046 C
HETATM   22  N1  UNL     1       5.931 -13.533  43.045  1.00  0.00    -0.270 N
ATOM     23  H1  UNL     1       6.217 -12.720  42.498  1.00  0.00     0.194 HD
HETATM   24  C6  UNL     1       4.519 -15.411  43.320  1.00  0.00     0.071 C
BRANCH  22  25
HETATM   25  O3  UNL     1       6.607 -13.758  44.190  1.00  0.00    -0.278 OA
BRANCH  25  26
HETATM   26  C4  UNL     1       7.920 -14.269  44.269  1.00  0.00     0.228 C
BRANCH  26  27
HETATM   27  C3  UNL     1       8.266 -14.782  45.627  1.00  0.00     0.207 C
BRANCH  27  28
HETATM   28  O2  UNL     1       9.526 -14.282  46.031  1.00  0.00    -0.320 OA
BRANCH  28  29
HETATM   29  C2  UNL     1       9.690 -13.455  47.132  1.00  0.00     0.254 C
HETATM   30  C1  UNL     1       8.662 -13.503  48.195  1.00  0.00     0.126 C
HETATM   31  O1  UNL     1      10.694 -12.713  47.173  1.00  0.00    -0.266 OA
ENDBRANCH  28  29
ENDBRANCH  27  28
ENDBRANCH  26  27
ENDBRANCH  25  26
ENDBRANCH  22  25
ENDBRANCH  15  21
BRANCH  10  32
HETATM   32  N4  UNL     1       1.243 -12.287  34.911  1.00  0.00    -0.130 N
HETATM   33  C10 UNL     1       1.402 -12.646  33.510  1.00  0.00     0.704 C
HETATM   34  N5  UNL     1       0.584 -13.402  32.887  1.00  0.00    -0.232 N
HETATM   35  N6  UNL     1       2.526 -12.125  32.814  1.00  0.00    -0.138 N
ATOM     36  H52 UNL     1      -0.222 -13.775  33.387  1.00  0.00     0.174 HD
ATOM     37  H51 UNL     1       0.697 -13.654  31.905  1.00  0.00     0.174 HD
ATOM     38  H6  UNL     1       2.868 -12.600  31.979  1.00  0.00     0.205 HD
ATOM     39  H4  UNL     1       0.480 -11.655  35.157  1.00  0.00     0.205 HD
BRANCH  35  40
HETATM   40  N7  UNL     1       3.157 -10.982  33.260  1.00  0.00    -0.331 N
ATOM     41  H72 UNL     1       3.478 -10.298  32.574  1.00  0.00     0.177 HD
ATOM     42  H71 UNL     1       3.300 -10.825  34.258  1.00  0.00     0.177 HD
ENDBRANCH  35  40
ENDBRANCH  10  32
ENDBRANCH   1   7
TORSDOF 9
ENDMDL