MODEL 1
REMARK VINA RESULT: -2.311196978      0.000      0.000
REMARK  6 active torsions:
REMARK  status: ('A' for Active; 'I' for Inactive)
REMARK       I    between atoms: C2_2  and  N1_4
REMARK    1  A    between atoms: N1_4  and  C3_6
REMARK    2  A    between atoms: C4_7  and  C5_8
REMARK    3  A    between atoms: C9_13  and  C10_14
REMARK    4  A    between atoms: C10_14  and  O3_15
REMARK    5  A    between atoms: C10_14  and  N2_17
REMARK       I    between atoms: N2_17  and  C11_19
REMARK    6  A    between atoms: N4_23  and  C13_24
ROOT
HETATM    1  C3  UNL     1       7.956 -14.989  44.853  1.00  0.00     0.128 A
HETATM    2  C4  UNL     1       8.406 -15.206  46.198  1.00  0.00     0.054 A
HETATM    3  C9  UNL     1       7.359 -15.436  47.019  1.00  0.00     0.023 A
HETATM    4  C12 UNL     1       6.233 -15.355  46.168  1.00  0.00     0.112 A
HETATM    5  N4  UNL     1       6.648 -15.087  44.889  1.00  0.00    -0.299 N
ENDROOT
BRANCH   5   6
HETATM    6  C13 UNL     1       5.658 -14.923  43.861  1.00  0.00     0.151 A
HETATM    7  C14 UNL     1       5.661 -13.887  42.952  1.00  0.00     0.155 A
HETATM    8  N5  UNL     1       6.658 -12.900  43.089  1.00  0.00    -0.080 NA
HETATM    9  N6  UNL     1       4.754 -13.792  41.956  1.00  0.00    -0.290 N
HETATM   10  C15 UNL     1       4.771 -12.694  41.009  1.00  0.00     0.162 C
HETATM   11  C16 UNL     1       3.819 -14.750  41.856  1.00  0.00     0.332 A
HETATM   12  O5  UNL     1       2.969 -14.650  40.913  1.00  0.00    -0.246 OA
HETATM   13  N7  UNL     1       3.790 -15.772  42.727  1.00  0.00    -0.269 N
HETATM   14  C17 UNL     1       2.769 -16.794  42.597  1.00  0.00     0.164 C
HETATM   15  C18 UNL     1       4.684 -15.890  43.730  1.00  0.00     0.282 A
HETATM   16  O6  UNL     1       4.655 -16.858  44.552  1.00  0.00    -0.265 OA
ENDBRANCH   5   6
BRANCH   1  17
HETATM   17  N1  UNL     1       8.863 -14.642  43.836  1.00  0.00    -0.312 N
HETATM   18  C2  UNL     1       9.973 -15.248  43.294  1.00  0.00     0.219 C
HETATM   19  C1  UNL     1      10.623 -14.602  42.073  1.00  0.00     0.117 C
HETATM   20  O1  UNL     1      10.533 -16.266  43.665  1.00  0.00    -0.274 OA
ATOM     21  H1  UNL     1       8.651 -13.742  43.404  1.00  0.00     0.170 HD
ENDBRANCH   1  17
BRANCH   2  22
HETATM   22  C5  UNL     1       9.834 -15.215  46.557  1.00  0.00     0.089 A
HETATM   23  C6  UNL     1      10.692 -14.181  46.814  1.00  0.00     0.040 A
HETATM   24  C7  UNL     1      11.936 -14.689  47.093  1.00  0.00     0.027 A
HETATM   25  C8  UNL     1      11.805 -16.050  46.996  1.00  0.00     0.142 A
HETATM   26  O2  UNL     1      10.575 -16.321  46.684  1.00  0.00    -0.322 OA
ENDBRANCH   2  22
BRANCH   3  27
HETATM   27  C10 UNL     1       7.216 -15.837  48.433  1.00  0.00     0.258 C
BRANCH  27  28
HETATM   28  O3  UNL     1       5.898 -16.502  48.495  1.00  0.00    -0.372 OA
ATOM     29  H3  UNL     1       5.932 -17.022  49.290  1.00  0.00     0.212 HD
ENDBRANCH  27  28
BRANCH  27  30
HETATM   30  N2  UNL     1       8.059 -16.986  48.814  1.00  0.00    -0.315 N
HETATM   31  C11 UNL     1       9.226 -16.809  49.589  1.00  0.00     0.330 C
HETATM   32  N3  UNL     1      10.015 -17.916  49.941  1.00  0.00    -0.040 NA
HETATM   33  O4  UNL     1       9.551 -15.668  49.959  1.00  0.00    -0.251 OA
ATOM     34  H2  UNL     1       7.794 -17.924  48.512  1.00  0.00     0.166 HD
ENDBRANCH  27  30
ENDBRANCH   3  27
TORSDOF 6
ENDMDL