MODEL 2
REMARK VINA RESULT: -3.417875067      0.132      1.154
REMARK  12 active torsions:
REMARK  status: ('A' for Active; 'I' for Inactive)
REMARK    1  A    between atoms: C2_2  and  N1_3
REMARK    2  A    between atoms: N1_3  and  C3_4
REMARK    3  A    between atoms: N1_3  and  C5_6
REMARK    4  A    between atoms: C6_9  and  N3_10
REMARK    5  A    between atoms: C9_18  and  O1_19
REMARK    6  A    between atoms: C9_18  and  C10_21
REMARK    7  A    between atoms: C10_21  and  O2_22
REMARK    8  A    between atoms: C12_27  and  N7_28
REMARK    9  A    between atoms: C16_36  and  N10_37
REMARK   10  A    between atoms: N10_37  and  C17_39
REMARK   11  A    between atoms: C17_39  and  C18_40
REMARK   12  A    between atoms: C18_40  and  N11_41
ROOT
HETATM    1  C5  UNL     1       2.836 -13.872  41.268  1.00  0.00     0.698 A
HETATM    2  N2  UNL     1       1.592 -13.933  41.849  1.00  0.00    -0.022 N
ATOM      3  H2  UNL     1       1.525 -14.171  42.838  1.00  0.00     0.203 HD
HETATM    4  C6  UNL     1       0.461 -13.691  41.163  1.00  0.00     0.692 A
HETATM    5  N4  UNL     1       0.569 -13.379  39.862  1.00  0.00    -0.175 N
ATOM      6  H4  UNL     1      -0.272 -13.190  39.316  1.00  0.00     0.186 HD
HETATM    7  C7  UNL     1       1.777 -13.313  39.273  1.00  0.00     0.155 A
HETATM    8  N5  UNL     1       2.900 -13.563  39.983  1.00  0.00    -0.163 N
HETATM    9  C8  UNL     1       4.197 -13.567  39.345  1.00  0.00     0.196 C
HETATM   10  C9  UNL     1       4.283 -12.902  38.033  1.00  0.00     0.139 C
HETATM   11  C11 UNL     1       3.037 -12.799  37.254  1.00  0.00     0.082 A
HETATM   12  N6  UNL     1       3.082 -12.522  35.912  1.00  0.00    -0.189 N
ATOM     13  H6  UNL     1       3.982 -12.427  35.442  1.00  0.00     0.184 HD
HETATM   14  C12 UNL     1       1.947 -12.375  35.216  1.00  0.00     0.705 A
HETATM   15  N9  UNL     1       0.730 -12.495  35.820  1.00  0.00    -0.174 N
ATOM     16  H9  UNL     1      -0.120 -12.377  35.269  1.00  0.00     0.186 HD
HETATM   17  C16 UNL     1       0.639 -12.766  37.132  1.00  0.00     0.133 A
HETATM   18  C19 UNL     1       1.822 -12.924  37.870  1.00  0.00     0.080 A
ENDROOT
BRANCH  17  19
HETATM   19  N10 UNL     1      -0.454 -12.904  37.788  1.00  0.00    -0.373 N
ATOM     20  H10 UNL     1      -0.731 -13.846  38.064  1.00  0.00     0.161 HD
BRANCH  19  21
HETATM   21  C17 UNL     1      -1.316 -11.813  38.160  1.00  0.00     0.148 C
BRANCH  21  22
HETATM   22  C18 UNL     1      -2.666 -12.410  38.560  1.00  0.00     0.249 C
BRANCH  22  23
HETATM   23  N11 UNL     1      -3.694 -11.457  38.187  1.00  0.00    -0.078 N
ATOM     24 3H11 UNL     1      -3.940 -10.821  38.946  1.00  0.00     0.274 HD
ATOM     25 2H11 UNL     1      -3.363 -10.754  37.526  1.00  0.00     0.274 HD
ATOM     26 1H11 UNL     1      -4.492 -11.987  37.837  1.00  0.00     0.274 HD
ENDBRANCH  22  23
ENDBRANCH  21  22
ENDBRANCH  19  21
ENDBRANCH  17  19
BRANCH  14  27
HETATM   27  N7  UNL     1       1.967 -12.103  33.816  1.00  0.00    -0.098 N
HETATM   28  C13 UNL     1       1.199 -12.717  32.886  1.00  0.00     0.136 A
HETATM   29  C14 UNL     1       1.524 -12.157  31.668  1.00  0.00     0.038 A
HETATM   30  C15 UNL     1       2.493 -11.214  31.929  1.00  0.00     0.110 A
HETATM   31  N8  UNL     1       2.748 -11.194  33.232  1.00  0.00    -0.291 N
ATOM     32  H8  UNL     1       3.423 -10.590  33.703  1.00  0.00     0.187 HD
ENDBRANCH  14  27
BRANCH  10  33
HETATM   33  O1  UNL     1       4.744 -11.571  38.219  1.00  0.00    -0.380 OA
ATOM     34  H1  UNL     1       4.213 -10.983  37.695  1.00  0.00     0.211 HD
ENDBRANCH  10  33
BRANCH  10  35
HETATM   35  C10 UNL     1       5.289 -13.662  37.158  1.00  0.00     0.210 C
BRANCH  35  36
HETATM   36  O2  UNL     1       5.809 -12.704  36.268  1.00  0.00    -0.397 OA
ATOM     37  H2  UNL     1       5.154 -12.017  36.228  1.00  0.00     0.209 HD
ENDBRANCH  35  36
ENDBRANCH  10  35
BRANCH   4  38
HETATM   38  N3  UNL     1      -0.698 -13.744  41.712  1.00  0.00    -0.234 N
ATOM     39  H32 UNL     1      -1.046 -12.943  42.239  1.00  0.00     0.174 HD
ATOM     40  H31 UNL     1      -1.294 -14.570  41.648  1.00  0.00     0.174 HD
ENDBRANCH   4  38
BRANCH   1  41
HETATM   41  N1  UNL     1       3.933 -14.157  42.128  1.00  0.00    -0.218 N
BRANCH  41  42
HETATM   42  C2  UNL     1       5.005 -13.147  42.232  1.00  0.00     0.137 C
HETATM   43  C1  UNL     1       6.170 -13.656  43.050  1.00  0.00     0.027 C
ENDBRANCH  41  42
BRANCH  41  44
HETATM   44  C3  UNL     1       4.107 -15.343  42.918  1.00  0.00     0.137 C
HETATM   45  C4  UNL     1       3.810 -16.608  42.130  1.00  0.00     0.027 C
ENDBRANCH  41  44
ENDBRANCH   1  41
TORSDOF 12
ENDMDL