MODEL 3
REMARK VINA RESULT: -7.238095333      2.523      3.719
REMARK  11 active torsions:
REMARK  status: ('A' for Active; 'I' for Inactive)
REMARK    1  A    between atoms: N1_2  and  N2_4
REMARK    2  A    between atoms: C2_6  and  N3_7
REMARK    3  A    between atoms: C2_6  and  C8_22
REMARK    4  A    between atoms: N3_7  and  C3_9
REMARK    5  A    between atoms: C3_9  and  C5_11
REMARK    6  A    between atoms: C5_11  and  O1_12
REMARK    7  A    between atoms: C5_11  and  C6_14
REMARK       I    between atoms: C6_14  and  N4_16
REMARK    8  A    between atoms: N4_16  and  N5_18
REMARK    9  A    between atoms: N5_18  and  O3_20
REMARK   10  A    between atoms: N8_27  and  C9_28
REMARK   11  A    between atoms: C16_41  and  O4_42
ROOT
HETATM    1  C9  UNL     1       3.553 -14.559  42.154  1.00  0.00     0.111 A
HETATM    2  C10 UNL     1       4.756 -14.164  42.712  1.00  0.00    -0.007 A
HETATM    3  C11 UNL     1       5.364 -12.886  42.329  1.00  0.00     0.052 C
HETATM    4  C12 UNL     1       5.398 -14.967  43.636  1.00  0.00     0.068 A
HETATM    5  C13 UNL     1       6.647 -14.520  44.192  1.00  0.00     0.101 C
HETATM    6  N9  UNL     1       7.662 -14.166  44.661  1.00  0.00    -0.191 NA
HETATM    7  C14 UNL     1       4.845 -16.187  44.021  1.00  0.00     0.113 A
HETATM    8  N10 UNL     1       3.680 -16.545  43.464  1.00  0.00    -0.349 N
ATOM      9  H10 UNL     1       3.260 -17.436  43.733  1.00  0.00     0.167 HD
HETATM   10  C15 UNL     1       3.040 -15.773  42.562  1.00  0.00     0.128 A
HETATM   11  N11 UNL     1       1.923 -16.204  42.082  1.00  0.00    -0.384 N
ATOM     12 1H11 UNL     1       1.543 -17.101  42.384  1.00  0.00     0.157 HD
ATOM     13 2H11 UNL     1       1.439 -15.620  41.400  1.00  0.00     0.157 HD
ENDROOT
BRANCH   1  14
HETATM   14  N8  UNL     1       2.911 -13.725  41.210  1.00  0.00    -0.213 N
HETATM   15  N7  UNL     1       2.124 -12.716  41.474  1.00  0.00    -0.233 N
HETATM   16  N6  UNL     1       1.684 -12.140  40.382  1.00  0.00    -0.278 N
ATOM     17  H7  UNL     1       1.882 -12.413  42.418  1.00  0.00     0.209 HD
HETATM   18  C8  UNL     1       2.201 -12.796  39.299  1.00  0.00     0.147 A
ATOM     19  H6  UNL     1       1.057 -11.336  40.346  1.00  0.00     0.189 HD
HETATM   20  C16 UNL     1       2.982 -13.802  39.883  1.00  0.00     0.196 A
BRANCH  18  21
HETATM   21  C2  UNL     1       1.999 -12.487  37.900  1.00  0.00     0.149 C
HETATM   22  N2  UNL     1       1.033 -11.770  37.513  1.00  0.00    -0.288 N
ATOM     23  H2  UNL     1       0.976 -11.642  36.503  1.00  0.00     0.188 HD
BRANCH  22  24
HETATM   24  N1  UNL     1       0.047 -11.136  38.228  1.00  0.00    -0.339 N
HETATM   25  C1  UNL     1      -1.237 -11.782  38.388  1.00  0.00     0.167 C
ATOM     26  H1  UNL     1       0.218 -10.219  38.641  1.00  0.00     0.179 HD
ENDBRANCH  22  24
BRANCH  21  27
HETATM   27  N3  UNL     1       2.883 -13.025  36.929  1.00  0.00    -0.366 N
ATOM     28  H3  UNL     1       3.049 -14.030  36.995  1.00  0.00     0.161 HD
BRANCH  27  29
HETATM   29  C3  UNL     1       3.564 -12.363  35.885  1.00  0.00     0.117 C
HETATM   30  C4  UNL     1       4.686 -11.436  36.327  1.00  0.00     0.035 C
BRANCH  29  31
HETATM   31  C5  UNL     1       2.709 -11.598  34.905  1.00  0.00     0.234 C
BRANCH  31  32
HETATM   32  O1  UNL     1       3.534 -11.084  33.906  1.00  0.00    -0.384 OA
ATOM     33  H1  UNL     1       3.087 -10.354  33.494  1.00  0.00     0.210 HD
ENDBRANCH  31  32
BRANCH  31  34
HETATM   34  C6  UNL     1       1.705 -12.478  34.259  1.00  0.00     0.270 C
HETATM   35  O2  UNL     1       0.835 -13.029  35.011  1.00  0.00    -0.269 OA
HETATM   36  N4  UNL     1       1.645 -12.749  32.868  1.00  0.00    -0.244 N
HETATM   37  C7  UNL     1       0.588 -13.626  32.391  1.00  0.00     0.183 C
BRANCH  36  38
HETATM   38  N5  UNL     1       2.522 -12.248  31.915  1.00  0.00    -0.206 N
ATOM     39  H5  UNL     1       2.935 -11.332  32.087  1.00  0.00     0.216 HD
BRANCH  38  40
HETATM   40  O3  UNL     1       2.837 -12.831  30.877  1.00  0.00    -0.274 OA
ATOM     41  H3  UNL     1       3.716 -12.859  30.518  1.00  0.00     0.246 HD
ENDBRANCH  38  40
ENDBRANCH  36  38
ENDBRANCH  31  34
ENDBRANCH  29  31
ENDBRANCH  27  29
ENDBRANCH  21  27
ENDBRANCH  18  21
BRANCH  20  42
HETATM   42  O4  UNL     1       3.730 -14.754  39.222  1.00  0.00    -0.343 OA
ATOM     43  H4  UNL     1       4.588 -15.076  39.471  1.00  0.00     0.219 HD
ENDBRANCH  20  42
ENDBRANCH   1  14
TORSDOF 11
ENDMDL