MODEL 3
REMARK VINA RESULT: -8.243281658      2.290      3.837
REMARK  8 active torsions:
REMARK  status: ('A' for Active; 'I' for Inactive)
REMARK    1  A    between atoms: C2_2  and  N2_5
REMARK    2  A    between atoms: C2_2  and  C12_26
REMARK    3  A    between atoms: N2_5  and  C4_7
REMARK    4  A    between atoms: C4_7  and  C5_8
REMARK    5  A    between atoms: C5_8  and  O1_9
REMARK    6  A    between atoms: C5_8  and  C6_11
REMARK    7  A    between atoms: C6_11  and  N3_12
REMARK    8  A    between atoms: C18_35  and  N9_36
ROOT
HETATM    1  C1  UNL     1       1.019 -12.996  41.203  1.00  0.00     0.062 C
HETATM    2  C2  UNL     1       0.678 -13.044  39.735  1.00  0.00     0.160 C
HETATM    3  C3  UNL     1       0.650 -14.477  39.381  1.00  0.00     0.097 C
HETATM    4  N1  UNL     1       0.608 -15.609  39.095  1.00  0.00    -0.194 NA
ENDROOT
BRANCH   2   5
HETATM    5  N2  UNL     1      -0.457 -12.340  39.352  1.00  0.00    -0.374 N
ATOM      6  H2  UNL     1      -0.287 -11.391  39.019  1.00  0.00     0.160 HD
BRANCH   5   7
HETATM    7  C4  UNL     1      -1.770 -12.732  39.356  1.00  0.00     0.090 C
BRANCH   7   8
HETATM    8  C5  UNL     1      -2.725 -11.897  38.590  1.00  0.00     0.176 C
BRANCH   8   9
HETATM    9  O1  UNL     1      -2.115 -11.667  37.317  1.00  0.00    -0.389 OA
ATOM     10  H1  UNL     1      -2.712 -12.026  36.671  1.00  0.00     0.210 HD
ENDBRANCH   8   9
BRANCH   8  11
HETATM   11  C6  UNL     1      -3.970 -12.686  38.180  1.00  0.00     0.186 C
BRANCH  11  12
HETATM   12  N3  UNL     1      -4.660 -12.041  37.121  1.00  0.00    -0.281 N
HETATM   13  N4  UNL     1      -4.689 -10.772  36.685  1.00  0.00    -0.291 N
HETATM   14  C7  UNL     1      -5.559 -11.096  35.739  1.00  0.00     0.150 A
ATOM     15  H4  UNL     1      -4.227  -9.906  36.967  1.00  0.00     0.187 HD
HETATM   16  C8  UNL     1      -6.287 -10.547  34.709  1.00  0.00     0.277 C
HETATM   17  C11 UNL     1      -5.539 -12.409  36.177  1.00  0.00     0.152 A
HETATM   18  O2  UNL     1      -5.975  -9.432  34.246  1.00  0.00    -0.266 OA
HETATM   19  N5  UNL     1      -7.363 -11.100  34.098  1.00  0.00    -0.318 N
HETATM   20  C9  UNL     1      -7.987 -12.277  34.386  1.00  0.00     0.186 C
ATOM     21  H5  UNL     1      -7.757 -10.566  33.323  1.00  0.00     0.169 HD
HETATM   22  N6  UNL     1      -7.362 -13.381  34.849  1.00  0.00    -0.318 N
HETATM   23  C10 UNL     1      -6.274 -13.449  35.637  1.00  0.00     0.277 C
ATOM     24  H6  UNL     1      -7.764 -14.275  34.565  1.00  0.00     0.169 HD
HETATM   25  O3  UNL     1      -5.822 -14.574  35.960  1.00  0.00    -0.266 OA
ENDBRANCH  11  12
ENDBRANCH   8  11
ENDBRANCH   7   8
ENDBRANCH   5   7
ENDBRANCH   2   5
BRANCH   2  26
HETATM   26  C12 UNL     1       1.852 -12.434  39.006  1.00  0.00     0.069 A
HETATM   27  C13 UNL     1       2.932 -11.941  39.680  1.00  0.00     0.033 A
HETATM   28  C14 UNL     1       4.024 -11.430  38.975  1.00  0.00     0.037 A
HETATM   29  C15 UNL     1       3.975 -11.440  37.585  1.00  0.00     0.112 A
HETATM   30  C16 UNL     1       4.906 -11.010  36.660  1.00  0.00     0.159 A
HETATM   31  N10 UNL     1       2.901 -11.931  36.981  1.00  0.00    -0.084 N
HETATM   32  C17 UNL     1       6.193 -10.427  36.904  1.00  0.00     0.120 C
HETATM   33  N8  UNL     1       4.331 -11.270  35.461  1.00  0.00    -0.178 N
HETATM   34  N7  UNL     1       7.222  -9.962  37.087  1.00  0.00    -0.190 NA
HETATM   35  C18 UNL     1       3.118 -11.830  35.655  1.00  0.00     0.698 A
ATOM     36  H8  UNL     1       4.749 -11.074  34.552  1.00  0.00     0.185 HD
HETATM   37  N11 UNL     1       1.856 -12.418  37.668  1.00  0.00    -0.280 N
ATOM     38  H11 UNL     1       1.050 -12.783  37.161  1.00  0.00     0.188 HD
BRANCH  35  39
HETATM   39  N9  UNL     1       2.312 -12.203  34.718  1.00  0.00    -0.233 N
ATOM     40  H92 UNL     1       2.270 -11.825  33.771  1.00  0.00     0.174 HD
ATOM     41  H91 UNL     1       1.605 -12.932  34.807  1.00  0.00     0.174 HD
ENDBRANCH  35  39
ENDBRANCH   2  26
TORSDOF 8
ENDMDL