MODEL 1
REMARK VINA RESULT: -10.289076583      0.000      0.000
REMARK  8 active torsions:
REMARK  status: ('A' for Active; 'I' for Inactive)
REMARK    1  A    between atoms: C2_2  and  N2_7
REMARK    2  A    between atoms: N1_3  and  O1_5
REMARK    3  A    between atoms: N2_7  and  S1_9
REMARK    4  A    between atoms: S1_9  and  C3_12
REMARK    5  A    between atoms: C6_15  and  N3_16
REMARK    6  A    between atoms: N3_16  and  N4_18
REMARK    7  A    between atoms: N6_24  and  N7_25
REMARK       I    between atoms: N7_25  and  C9_27
REMARK       I    between atoms: C9_27  and  N9_31
REMARK    8  A    between atoms: N9_31  and  N10_33
ROOT
HETATM    1  N4  UNL     1       4.043 -13.134  41.577  1.00  0.00    -0.281 N
ATOM      2  H4  UNL     1       4.053 -12.176  41.930  1.00  0.00     0.188 HD
HETATM    3  C7  UNL     1       4.043 -13.364  40.304  1.00  0.00     0.188 C
HETATM    4  N5  UNL     1       4.031 -14.639  39.667  1.00  0.00    -0.353 N
ATOM      5  H5  UNL     1       4.346 -15.528  40.056  1.00  0.00     0.163 HD
HETATM    6  C8  UNL     1       3.473 -14.402  38.343  1.00  0.00     0.276 C
HETATM    7  N6  UNL     1       4.046 -13.108  38.004  1.00  0.00    -0.222 N
HETATM    8  C10 UNL     1       4.053 -12.379  39.228  1.00  0.00     0.309 C
HETATM    9  O6  UNL     1       4.066 -11.117  39.325  1.00  0.00    -0.262 OA
ENDROOT
BRANCH   1  10
HETATM   10  N3  UNL     1       4.031 -14.202  42.452  1.00  0.00    -0.299 N
ATOM     11  H3  UNL     1       3.226 -14.828  42.457  1.00  0.00     0.187 HD
BRANCH  10  12
HETATM   12  C6  UNL     1       5.099 -14.455  43.343  1.00  0.00     0.048 A
HETATM   13  C5  UNL     1       6.209 -13.638  43.334  1.00  0.00     0.032 A
HETATM   14  C4  UNL     1       7.280 -13.838  44.187  1.00  0.00     0.027 A
HETATM   15  C3  UNL     1       7.256 -14.887  45.086  1.00  0.00     0.080 A
HETATM   16  C12 UNL     1       6.135 -15.706  45.090  1.00  0.00     0.027 A
HETATM   17  C11 UNL     1       5.077 -15.501  44.240  1.00  0.00     0.032 A
BRANCH  15  18
HETATM   18  S1  UNL     1       8.592 -15.162  46.179  1.00  0.00     0.264 S
HETATM   19  O2  UNL     1       9.140 -16.543  45.931  1.00  0.00    -0.200 OA
HETATM   20  O3  UNL     1       9.691 -14.182  45.913  1.00  0.00    -0.200 OA
BRANCH  18  21
HETATM   21  N2  UNL     1       8.110 -15.053  47.813  1.00  0.00    -0.268 N
ATOM     22  H2  UNL     1       8.235 -14.154  48.278  1.00  0.00     0.180 HD
BRANCH  21  23
HETATM   23  C2  UNL     1       7.549 -16.106  48.579  1.00  0.00     0.107 C
HETATM   24  C1  UNL     1       8.397 -16.997  49.400  1.00  0.00     0.091 C
HETATM   25  N1  UNL     1       6.278 -16.277  48.547  1.00  0.00    -0.257 N
ATOM     26  H1  UNL     1       5.692 -15.663  47.981  1.00  0.00     0.195 HD
BRANCH  25  27
HETATM   27  O1  UNL     1       5.710 -17.290  49.278  1.00  0.00    -0.288 OA
ATOM     28  H1  UNL     1       5.533 -18.126  48.865  1.00  0.00     0.244 HD
ENDBRANCH  25  27
ENDBRANCH  21  23
ENDBRANCH  18  21
ENDBRANCH  15  18
ENDBRANCH  10  12
ENDBRANCH   1  10
BRANCH   7  29
HETATM   29  N7  UNL     1       4.490 -12.688  36.742  1.00  0.00    -0.124 N
HETATM   30  C9  UNL     1       3.723 -11.704  36.085  1.00  0.00     0.710 C
HETATM   31  N8  UNL     1       2.748 -12.054  35.338  1.00  0.00    -0.232 N
HETATM   32  N9  UNL     1       4.034 -10.343  36.256  1.00  0.00    -0.071 N
ATOM     33  H82 UNL     1       2.522 -13.040  35.214  1.00  0.00     0.174 HD
ATOM     34  H81 UNL     1       2.193 -11.342  34.863  1.00  0.00     0.174 HD
ATOM     35  H9  UNL     1       3.289  -9.678  36.463  1.00  0.00     0.212 HD
ATOM     36  H7  UNL     1       5.331 -13.077  36.317  1.00  0.00     0.206 HD
BRANCH  32  37
HETATM   37  N10 UNL     1       5.349  -9.894  36.148  1.00  0.00    -0.024 N
HETATM   38  O4  UNL     1       5.553  -8.666  36.209  1.00  0.00    -0.516 OA
HETATM   39  O5  UNL     1       6.370 -10.788  35.981  1.00  0.00    -0.516 OA
ENDBRANCH  32  37
ENDBRANCH   7  29
TORSDOF 8
ENDMDL