MODEL 2
REMARK VINA RESULT: -6.933254715      2.009      2.923
REMARK  4 active torsions:
REMARK  status: ('A' for Active; 'I' for Inactive)
REMARK    1  A    between atoms: C3_3  and  C5_6
REMARK    2  A    between atoms: C5_6  and  C6_7
REMARK    3  A    between atoms: C6_7  and  C7_8
REMARK    4  A    between atoms: C7_8  and  N1_9
ROOT
HETATM    1  C1  UNL     1      -7.158   3.782  17.531  1.00  0.00     0.014 C
HETATM    2  C2  UNL     1      -6.429   3.836  16.575  1.00  0.00    -0.091 C
HETATM    3  C3  UNL     1      -5.536   3.925  15.422  1.00  0.00     0.096 C
HETATM    4  C4  UNL     1      -6.202   3.221  14.266  1.00  0.00     0.046 C
HETATM    5 CL1  UNL     1      -4.013   3.070  15.810  1.00  0.00    -0.105 Cl
ENDROOT
BRANCH   3   6
HETATM    6  C5  UNL     1      -5.265   5.377  15.109  1.00  0.00     0.043 C
BRANCH   6   7
HETATM    7  C6  UNL     1      -3.802   5.561  14.752  1.00  0.00     0.048 C
BRANCH   7   8
HETATM    8  C7  UNL     1      -3.783   6.083  13.314  1.00  0.00     0.068 C
BRANCH   8   9
HETATM    9  N1  UNL     1      -3.043   5.197  12.525  1.00  0.00    -0.354 N
HETATM   10  C8  UNL     1      -3.376   5.027  11.169  1.00  0.00     0.071 C
HETATM   11  C9  UNL     1      -3.821   3.594  10.965  1.00  0.00     0.086 C
HETATM   12  C10 UNL     1      -2.862   2.696  11.692  1.00  0.00     0.124 C
HETATM   13  C11 UNL     1      -1.571   3.397  12.091  1.00  0.00     0.086 C
HETATM   14  N2  UNL     1      -3.458   2.099  12.857  1.00  0.00    -0.324 N
HETATM   15  C15 UNL     1      -2.574   1.546  10.800  1.00  0.00     0.256 C
HETATM   16  C12 UNL     1      -1.956   4.494  13.064  1.00  0.00     0.071 C
HETATM   17  C13 UNL     1      -3.821   0.773  12.535  1.00  0.00     0.325 C
ATOM     18  H2  UNL     1      -3.594   2.554  13.760  1.00  0.00     0.165 HD
HETATM   19  O1  UNL     1      -4.528  -0.002  13.263  1.00  0.00    -0.247 OA
HETATM   20  N3  UNL     1      -3.286   0.433  11.286  1.00  0.00    -0.272 N
HETATM   21  C14 UNL     1      -3.391  -0.825  10.541  1.00  0.00     0.164 C
HETATM   22  O2  UNL     1      -1.813   1.613   9.792  1.00  0.00    -0.270 OA
ENDBRANCH   8   9
ENDBRANCH   7   8
ENDBRANCH   6   7
ENDBRANCH   3   6
TORSDOF 4
ENDMDL