MODEL 4
REMARK VINA RESULT: -6.238304559      0.862      1.134
REMARK  4 active torsions:
REMARK  status: ('A' for Active; 'I' for Inactive)
REMARK       I    between atoms: N1_2  and  C2_4
REMARK    1  A    between atoms: C2_4  and  C3_6
REMARK    2  A    between atoms: C6_9  and  C7_10
REMARK    3  A    between atoms: C7_10  and  N2_11
REMARK    4  A    between atoms: C10_15  and  C11_16
ROOT
HETATM    1  C3  UNL     1      -3.874   1.505  11.934  1.00  0.00     0.104 C
HETATM    2  C4  UNL     1      -4.260   0.588  10.766  1.00  0.00     0.048 C
HETATM    3  C5  UNL     1      -4.627   2.802  11.825  1.00  0.00     0.046 C
HETATM    4  C6  UNL     1      -3.668   3.979  11.916  1.00  0.00     0.018 C
HETATM    5  C14 UNL     1      -2.705   3.818  10.748  1.00  0.00     0.025 C
HETATM    6  C15 UNL     1      -1.955   2.524  10.868  1.00  0.00     0.115 C
HETATM    7  N3  UNL     1      -2.459   1.731  11.948  1.00  0.00    -0.405 N
ATOM      8  H3  UNL     1      -1.854   1.354  12.677  1.00  0.00     0.154 HD
ENDROOT
BRANCH   4   9
HETATM    9  C7  UNL     1      -4.434   5.274  11.794  1.00  0.00     0.277 C
BRANCH   9  10
HETATM   10  N2  UNL     1      -4.074   6.145  12.899  1.00  0.00     0.097 N
HETATM   11  C8  UNL     1      -3.461   5.310  13.947  1.00  0.00     0.295 C
HETATM   12  C9  UNL     1      -4.086   6.268  14.953  1.00  0.00     0.144 C
HETATM   13 CL1  UNL     1      -3.075   7.708  15.120  1.00  0.00    -0.121 Cl
HETATM   14  C10 UNL     1      -5.141   6.387  13.846  1.00  0.00     0.246 C
BRANCH  14  15
HETATM   15  C11 UNL     1      -5.729   7.760  13.874  1.00  0.00     0.012 C
HETATM   16  C12 UNL     1      -6.534   8.113  12.651  1.00  0.00     0.012 C
HETATM   17  C13 UNL     1      -6.715   7.791  15.051  1.00  0.00     0.012 C
ENDBRANCH  14  15
ENDBRANCH   9  10
ENDBRANCH   4   9
BRANCH   1  18
HETATM   18  C2  UNL     1      -4.239   0.760  13.171  1.00  0.00     0.244 C
HETATM   19  N1  UNL     1      -4.295   1.380  14.441  1.00  0.00    -0.363 N
HETATM   20  C1  UNL     1      -4.649   0.631  15.617  1.00  0.00     0.149 C
ATOM     21  H1  UNL     1      -4.081   2.374  14.525  1.00  0.00     0.162 HD
HETATM   22  O1  UNL     1      -4.506  -0.458  13.088  1.00  0.00    -0.271 OA
ENDBRANCH   1  18
TORSDOF 4
ENDMDL