MODEL 2
REMARK VINA RESULT: -6.269880798      1.475      1.898
REMARK  6 active torsions:
REMARK  status: ('A' for Active; 'I' for Inactive)
REMARK    1  A    between atoms: C2_2  and  C3_4
REMARK    2  A    between atoms: C3_4  and  C4_5
REMARK    3  A    between atoms: C4_5  and  N1_6
REMARK    4  A    between atoms: N1_6  and  C5_8
REMARK    5  A    between atoms: C7_14  and  N4_15
REMARK    6  A    between atoms: N4_15  and  C8_17
ROOT
HETATM    1  C5  UNL     1      -3.177   3.595  12.999  1.00  0.00     0.693 A
HETATM    2  N2  UNL     1      -3.764   4.787  12.788  1.00  0.00    -0.187 N
ATOM      3  H2  UNL     1      -3.527   5.318  11.949  1.00  0.00     0.185 HD
HETATM    4  C6  UNL     1      -4.665   5.300  13.666  1.00  0.00     0.215 A
HETATM    5  N3  UNL     1      -5.000   4.631  14.777  1.00  0.00    -0.187 N
ATOM      6  H3  UNL     1      -5.676   5.021  15.433  1.00  0.00     0.185 HD
HETATM    7  C7  UNL     1      -4.427   3.430  15.016  1.00  0.00     0.693 A
HETATM    8  N5  UNL     1      -3.544   2.943  14.142  1.00  0.00    -0.022 N
ATOM      9  H5  UNL     1      -3.122   2.035  14.337  1.00  0.00     0.203 HD
ENDROOT
BRANCH   1  10
HETATM   10  N1  UNL     1      -2.330   3.063  12.219  1.00  0.00    -0.225 N
ATOM     11  H1  UNL     1      -1.336   3.213  12.387  1.00  0.00     0.177 HD
BRANCH  10  12
HETATM   12  C4  UNL     1      -2.740   2.253  11.101  1.00  0.00     0.139 C
BRANCH  12  13
HETATM   13  C3  UNL     1      -2.321   0.805  11.237  1.00  0.00     0.035 C
BRANCH  13  14
HETATM   14  C2  UNL     1      -3.503  -0.041  10.750  1.00  0.00     0.055 C
HETATM   15  C1  UNL     1      -4.821   0.572  11.172  1.00  0.00     0.022 C
HETATM   16 BR1  UNL     1      -3.332  -1.794  11.566  1.00  0.00    -0.091 Br
ENDBRANCH  13  14
ENDBRANCH  12  13
ENDBRANCH  10  12
ENDBRANCH   1  10
BRANCH   7  17
HETATM   17  N4  UNL     1      -4.771   2.809  16.095  1.00  0.00    -0.221 N
ATOM     18  H4  UNL     1      -4.177   2.894  16.919  1.00  0.00     0.178 HD
BRANCH  17  19
HETATM   19  C8  UNL     1      -5.948   2.011  16.177  1.00  0.00     0.099 C
HETATM   20  C9  UNL     1      -7.022   2.522  17.124  1.00  0.00     0.026 C
HETATM   21  C10 UNL     1      -7.279   1.071  17.486  1.00  0.00     0.004 C
HETATM   22  C11 UNL     1      -5.845   0.793  17.083  1.00  0.00     0.026 C
ENDBRANCH  17  19
ENDBRANCH   7  17
TORSDOF 6
ENDMDL