MODEL 5
REMARK VINA RESULT: -5.684519606      1.767      6.687
REMARK  5 active torsions:
REMARK  status: ('A' for Active; 'I' for Inactive)
REMARK    1  A    between atoms: C3_3  and  C5_6
REMARK    2  A    between atoms: N4_12  and  C7_14
REMARK    3  A    between atoms: C7_14  and  C8_15
REMARK    4  A    between atoms: C8_15  and  C9_16
REMARK    5  A    between atoms: C9_16  and  N5_17
ROOT
HETATM    1  C1  UNL     1      -6.653   3.928  16.415  1.00  0.00     0.013 C
HETATM    2  C2  UNL     1      -5.981   3.166  15.769  1.00  0.00    -0.091 C
HETATM    3  C3  UNL     1      -5.159   2.242  14.952  1.00  0.00     0.223 C
HETATM    4  C4  UNL     1      -4.531   1.229  15.785  1.00  0.00     0.083 C
HETATM    5  N1  UNL     1      -4.040   0.426  16.447  1.00  0.00    -0.196 NA
ENDROOT
BRANCH   3   6
HETATM    6  C5  UNL     1      -4.198   3.047  14.214  1.00  0.00     0.076 A
HETATM    7  N2  UNL     1      -3.371   3.945  14.775  1.00  0.00    -0.299 N
HETATM    8  N3  UNL     1      -2.622   4.519  13.884  1.00  0.00    -0.284 N
ATOM      9  H2  UNL     1      -3.336   4.150  15.773  1.00  0.00     0.186 HD
HETATM   10  C6  UNL     1      -2.922   4.013  12.632  1.00  0.00     0.135 A
ATOM     11  H3  UNL     1      -1.920   5.233  14.077  1.00  0.00     0.188 HD
HETATM   12  N4  UNL     1      -2.379   4.362  11.573  1.00  0.00    -0.374 N
HETATM   13  C12 UNL     1      -3.908   3.096  12.860  1.00  0.00     0.082 A
ATOM     14  H4  UNL     1      -1.677   5.078  11.762  1.00  0.00     0.161 HD
HETATM   15 BR1  UNL     1      -4.821   2.002  11.629  1.00  0.00    -0.045 Br
BRANCH  12  16
HETATM   16  C7  UNL     1      -2.421   4.092  10.222  1.00  0.00     0.123 C
BRANCH  16  17
HETATM   17  C8  UNL     1      -1.168   3.352   9.733  1.00  0.00     0.050 C
BRANCH  17  18
HETATM   18  C9  UNL     1      -0.089   4.309   9.278  1.00  0.00     0.273 C
BRANCH  18  19
HETATM   19  N5  UNL     1       1.112   3.935   9.999  1.00  0.00     0.080 N
HETATM   20  C10 UNL     1       1.146   4.451  11.343  1.00  0.00     0.309 C
HETATM   21  C11 UNL     1       2.312   4.239   9.253  1.00  0.00     0.309 C
ENDBRANCH  18  19
ENDBRANCH  17  18
ENDBRANCH  16  17
ENDBRANCH  12  16
ENDBRANCH   3   6
TORSDOF 5
ENDMDL