MODEL 4
REMARK VINA RESULT: -5.119541717      2.350      5.079
REMARK  8 active torsions:
REMARK  status: ('A' for Active; 'I' for Inactive)
REMARK    1  A    between atoms: C2_2  and  N1_3
REMARK    2  A    between atoms: N1_3  and  C5_6
REMARK    3  A    between atoms: C5_6  and  C6_7
REMARK    4  A    between atoms: C8_12  and  N3_13
REMARK    5  A    between atoms: N4_16  and  C9_17
REMARK    6  A    between atoms: C9_17  and  C10_18
REMARK    7  A    between atoms: C10_18  and  C11_19
REMARK    8  A    between atoms: C11_19  and  C12_20
ROOT
HETATM    1  C6  UNL     1      -2.787   4.076  12.019  1.00  0.00     0.095 A
HETATM    2  C7  UNL     1      -1.377   4.083  12.063  1.00  0.00     0.144 A
HETATM    3 CL1  UNL     1      -0.235   5.405  12.355  1.00  0.00    -0.062 Cl
HETATM    4  N2  UNL     1      -1.004   2.775  11.934  1.00  0.00    -0.179 N
ATOM      5  H2  UNL     1      -0.044   2.432  11.924  1.00  0.00     0.185 HD
HETATM    6  C8  UNL     1      -2.123   2.000  11.820  1.00  0.00     0.680 A
HETATM    7  N4  UNL     1      -3.211   2.869  11.895  1.00  0.00    -0.171 N
ENDROOT
BRANCH   7   8
HETATM    8  C9  UNL     1      -4.529   2.254  12.110  1.00  0.00     0.241 C
BRANCH   8   9
HETATM    9  C10 UNL     1      -4.762   2.240  13.587  1.00  0.00    -0.084 C
BRANCH   9  10
HETATM   10  C11 UNL     1      -5.019   2.228  14.811  1.00  0.00    -0.069 C
BRANCH  10  11
HETATM   11  C12 UNL     1      -5.395   2.201  16.228  1.00  0.00     0.302 C
HETATM   12  C13 UNL     1      -6.395   3.323  16.552  1.00  0.00     0.079 C
HETATM   13  C14 UNL     1      -7.278   2.300  17.147  1.00  0.00     0.276 C
HETATM   14  N5  UNL     1      -6.373   1.252  16.619  1.00  0.00     0.100 N
HETATM   15  C15 UNL     1      -5.923   0.409  17.744  1.00  0.00     0.311 C
ENDBRANCH  10  11
ENDBRANCH   9  10
ENDBRANCH   8   9
ENDBRANCH   7   8
BRANCH   1  16
HETATM   16  C5  UNL     1      -3.501   5.374  12.015  1.00  0.00     0.297 C
BRANCH  16  17
HETATM   17  N1  UNL     1      -3.815   5.911  13.291  1.00  0.00    -0.070 N
HETATM   18  C3  UNL     1      -3.279   5.494  14.517  1.00  0.00     0.272 C
HETATM   19  C4  UNL     1      -3.488   7.365  13.213  1.00  0.00     0.272 C
BRANCH  17  20
HETATM   20  C2  UNL     1      -5.302   5.972  13.442  1.00  0.00     0.232 C
HETATM   21  C1  UNL     1      -5.768   6.490  14.752  1.00  0.00     0.035 C
ENDBRANCH  17  20
ENDBRANCH  16  17
ENDBRANCH   1  16
BRANCH   6  22
HETATM   22  N3  UNL     1      -2.091   0.785  11.495  1.00  0.00    -0.234 N
ATOM     23  H32 UNL     1      -1.354   0.095  11.639  1.00  0.00     0.174 HD
ATOM     24  H31 UNL     1      -2.914   0.266  11.188  1.00  0.00     0.174 HD
ENDBRANCH   6  22
TORSDOF 8
ENDMDL