MODEL 1
REMARK VINA RESULT: -6.359245711      0.000      0.000
REMARK  4 active torsions:
REMARK  status: ('A' for Active; 'I' for Inactive)
REMARK    1  A    between atoms: O1_2  and  C2_3
REMARK    2  A    between atoms: C2_3  and  C3_5
REMARK    3  A    between atoms: C3_5  and  N1_7
REMARK    4  A    between atoms: N1_7  and  C5_9
ROOT
HETATM    1  C5  UNL     1      -4.781   3.014  13.105  1.00  0.00     0.085 C
HETATM    2  C6  UNL     1      -4.061   4.291  12.628  1.00  0.00     0.010 C
HETATM    3  C7  UNL     1      -2.817   4.511  13.461  1.00  0.00     0.011 C
HETATM    4  C8  UNL     1      -3.158   4.687  14.924  1.00  0.00    -0.012 C
HETATM    5  C9  UNL     1      -3.857   3.428  15.370  1.00  0.00     0.011 C
HETATM    6  C10 UNL     1      -5.103   3.245  14.560  1.00  0.00     0.010 C
HETATM    7  C11 UNL     1      -5.984   4.449  14.736  1.00  0.00     0.027 C
HETATM    8  C12 UNL     1      -5.289   5.694  14.271  1.00  0.00     0.019 C
HETATM    9 BR1  UNL     1      -6.419   7.237  14.446  1.00  0.00    -0.086 Br
HETATM   10  C13 UNL     1      -4.041   5.905  15.081  1.00  0.00     0.025 C
HETATM   11  C14 UNL     1      -4.931   5.505  12.812  1.00  0.00     0.027 C
ENDROOT
BRANCH   1  12
HETATM   12  N1  UNL     1      -3.900   1.953  12.891  1.00  0.00    -0.404 N
ATOM     13  H1  UNL     1      -3.401   1.569  13.694  1.00  0.00     0.154 HD
BRANCH  12  14
HETATM   14  C3  UNL     1      -3.667   1.396  11.647  1.00  0.00     0.173 C
HETATM   15  C4  UNL     1      -2.161   1.163  11.376  1.00  0.00     0.042 C
BRANCH  14  16
HETATM   16  C2  UNL     1      -4.370   0.099  11.299  1.00  0.00     0.280 C
HETATM   17  O2  UNL     1      -5.152  -0.049  10.473  1.00  0.00    -0.263 OA
BRANCH  16  18
HETATM   18  O1  UNL     1      -4.023  -0.998  12.161  1.00  0.00    -0.325 OA
HETATM   19  C1  UNL     1      -3.344  -2.140  11.586  1.00  0.00     0.213 C
ENDBRANCH  16  18
ENDBRANCH  14  16
ENDBRANCH  12  14
ENDBRANCH   1  12
TORSDOF 4
ENDMDL