MODEL 2
REMARK VINA RESULT: -6.028766073      1.532      2.212
REMARK  4 active torsions:
REMARK  status: ('A' for Active; 'I' for Inactive)
REMARK    1  A    between atoms: N1_2  and  C3_4
REMARK    2  A    between atoms: C3_4  and  C5_7
REMARK    3  A    between atoms: C7_9  and  C8_10
REMARK    4  A    between atoms: C9_13  and  C10_14
ROOT
HETATM    1  C5  UNL     1      -5.133   4.160  14.572  1.00  0.00     0.173 C
HETATM    2  C6  UNL     1      -4.534   2.820  14.173  1.00  0.00     0.057 C
HETATM    3  C7  UNL     1      -5.401   1.858  14.993  1.00  0.00     0.129 C
HETATM    4  C9  UNL     1      -6.234   2.798  15.791  1.00  0.00     0.237 C
HETATM    5  O5  UNL     1      -5.386   3.924  15.917  1.00  0.00    -0.363 OA
ENDROOT
BRANCH   1   6
HETATM    6  C3  UNL     1      -4.259   5.278  14.312  1.00  0.00     0.042 C
HETATM    7  C4  UNL     1      -4.592   6.525  14.454  1.00  0.00     0.083 C
HETATM    8 BR1  UNL     1      -6.322   7.054  15.041  1.00  0.00    -0.061 Br
BRANCH   6   9
HETATM    9  N1  UNL     1      -2.925   4.976  13.861  1.00  0.00    -0.390 N
HETATM   10  C1  UNL     1      -1.889   4.580  14.783  1.00  0.00     0.149 C
HETATM   11  C2  UNL     1      -2.624   5.073  12.459  1.00  0.00     0.149 C
ENDBRANCH   6   9
ENDBRANCH   1   6
BRANCH   3  12
HETATM   12  C8  UNL     1      -4.586   0.923  15.767  1.00  0.00     0.180 C
HETATM   13  O1  UNL     1      -3.567   1.289  16.384  1.00  0.00    -0.648 OA
HETATM   14  O2  UNL     1      -4.938  -0.415  15.829  1.00  0.00    -0.648 OA
ENDBRANCH   3  12
BRANCH   4  15
HETATM   15  C10 UNL     1      -6.715   2.310  17.078  1.00  0.00     0.204 C
HETATM   16  O3  UNL     1      -6.286   2.778  18.161  1.00  0.00    -0.646 OA
HETATM   17  O4  UNL     1      -7.669   1.306  17.110  1.00  0.00    -0.646 OA
ENDBRANCH   4  15
TORSDOF 4
ENDMDL