MODEL 3
REMARK VINA RESULT: -7.404342923      1.052      1.486
REMARK  4 active torsions:
REMARK  status: ('A' for Active; 'I' for Inactive)
REMARK    1  A    between atoms: N1_4  and  C3_5
REMARK    2  A    between atoms: C3_5  and  C4_6
REMARK    3  A    between atoms: C4_6  and  C5_7
REMARK    4  A    between atoms: C8_10  and  C9_11
ROOT
HETATM    1  C5  UNL     1      -5.488   5.903  15.231  1.00  0.00    -0.010 C
HETATM    2  C6  UNL     1      -6.112   6.701  14.064  1.00  0.00     0.005 C
HETATM    3  C7  UNL     1      -5.802   8.137  14.401  1.00  0.00     0.008 C
HETATM    4  C8  UNL     1      -4.376   8.268  14.854  1.00  0.00     0.024 C
HETATM    5  C14 UNL     1      -3.477   7.136  14.424  1.00  0.00     0.175 C
HETATM    6  F1  UNL     1      -3.224   7.124  13.088  1.00  0.00    -0.249 F
HETATM    7  C15 UNL     1      -4.031   5.794  14.852  1.00  0.00     0.042 C
ENDROOT
BRANCH   1   8
HETATM    8  C4  UNL     1      -6.235   4.613  15.273  1.00  0.00     0.035 C
BRANCH   8   9
HETATM    9  C3  UNL     1      -6.727   4.199  16.596  1.00  0.00     0.273 C
BRANCH   9  10
HETATM   10  N1  UNL     1      -6.327   2.840  16.886  1.00  0.00     0.098 N
HETATM   11  C2  UNL     1      -5.452   2.334  15.813  1.00  0.00     0.374 C
HETATM   12  C1  UNL     1      -4.784   1.135  16.440  1.00  0.00     0.246 C
HETATM   13  O1  UNL     1      -3.557   0.941  16.417  1.00  0.00    -0.272 OA
HETATM   14  N3  UNL     1      -5.687   0.226  17.074  1.00  0.00    -0.358 N
HETATM   15  C17 UNL     1      -7.028   0.572  17.410  1.00  0.00     0.152 C
ATOM     16  H3  UNL     1      -5.356  -0.714  17.295  1.00  0.00     0.162 HD
HETATM   17  C16 UNL     1      -7.468   1.947  17.018  1.00  0.00     0.292 C
ENDBRANCH   9  10
ENDBRANCH   8   9
ENDBRANCH   1   8
BRANCH   4  18
HETATM   18  C9  UNL     1      -3.894   9.614  14.470  1.00  0.00    -0.005 C
HETATM   19  C10 UNL     1      -4.239  10.083  13.100  1.00  0.00     0.032 C
HETATM   20  C11 UNL     1      -4.342  11.616  13.162  1.00  0.00     0.232 C
HETATM   21  N2  UNL     1      -3.422  12.064  14.212  1.00  0.00    -0.075 N
HETATM   22  C12 UNL     1      -2.184  11.294  14.215  1.00  0.00     0.232 C
ATOM     23  H22 UNL     1      -3.236  13.064  14.140  1.00  0.00     0.277 HD
ATOM     24  H21 UNL     1      -3.870  12.049  15.129  1.00  0.00     0.277 HD
HETATM   25  C13 UNL     1      -2.420   9.861  14.698  1.00  0.00     0.032 C
ENDBRANCH   4  18
TORSDOF 4
ENDMDL