MODEL 2
REMARK VINA RESULT: -5.994591005      0.914      1.071
REMARK  6 active torsions:
REMARK  status: ('A' for Active; 'I' for Inactive)
REMARK    1  A    between atoms: O1_2  and  C2_3
REMARK    2  A    between atoms: C2_3  and  C3_5
REMARK    3  A    between atoms: C3_5  and  C4_6
REMARK    4  A    between atoms: C8_10  and  C9_11
REMARK    5  A    between atoms: C9_11  and  N1_12
REMARK    6  A    between atoms: C12_16  and  O3_17
ROOT
HETATM    1  C4  UNL     1      -5.006   3.106  14.916  1.00  0.00     0.024 C
HETATM    2  C5  UNL     1      -6.366   3.570  15.346  1.00  0.00     0.007 C
HETATM    3  C6  UNL     1      -6.205   5.064  15.667  1.00  0.00     0.001 C
HETATM    4  C7  UNL     1      -5.867   5.755  14.364  1.00  0.00     0.009 C
HETATM    5  C8  UNL     1      -4.588   5.302  13.747  1.00  0.00     0.042 C
HETATM    6  C12 UNL     1      -4.610   3.803  13.625  1.00  0.00     0.128 C
ENDROOT
BRANCH   1   7
HETATM    7  C3  UNL     1      -4.848   1.644  14.715  1.00  0.00     0.118 C
BRANCH   7   8
HETATM    8  C2  UNL     1      -4.673   0.819  15.894  1.00  0.00     0.258 C
HETATM    9  O2  UNL     1      -3.582   0.746  16.492  1.00  0.00    -0.265 OA
BRANCH   8  10
HETATM   10  O1  UNL     1      -5.741   0.086  16.385  1.00  0.00    -0.326 OA
HETATM   11  C1  UNL     1      -6.533   0.501  17.467  1.00  0.00     0.213 C
ENDBRANCH   8  10
ENDBRANCH   7   8
ENDBRANCH   1   7
BRANCH   6  12
HETATM   12  O3  UNL     1      -3.324   3.359  13.308  1.00  0.00    -0.395 OA
ATOM     13  H3  UNL     1      -3.026   2.840  14.046  1.00  0.00     0.210 HD
ENDBRANCH   6  12
BRANCH   5  14
HETATM   14  C9  UNL     1      -3.342   5.716  14.466  1.00  0.00     0.257 C
BRANCH  14  15
HETATM   15  N1  UNL     1      -2.590   6.760  13.856  1.00  0.00    -0.018 N
HETATM   16  C10 UNL     1      -1.337   6.155  13.365  1.00  0.00     0.287 C
HETATM   17  C11 UNL     1      -2.206   7.826  14.771  1.00  0.00     0.287 C
HETATM   18 BR1  UNL     1      -3.456   7.557  12.376  1.00  0.00     0.163 Br
ENDBRANCH  14  15
ENDBRANCH   5  14
TORSDOF 6
ENDMDL