MODEL 1
REMARK VINA RESULT: -7.767906989      0.000      0.000
REMARK  4 active torsions:
REMARK  status: ('A' for Active; 'I' for Inactive)
REMARK    1  A    between atoms: C2_2  and  C4_4
REMARK    2  A    between atoms: C4_4  and  C5_5
REMARK    3  A    between atoms: C8_11  and  N2_12
REMARK       I    between atoms: N2_12  and  C9_14
REMARK    4  A    between atoms: C9_14  and  C10_16
ROOT
HETATM    1  C5  UNL     1      -6.271   3.490  15.569  1.00  0.00     0.208 C
HETATM    2  N1  UNL     1      -6.536   4.754  14.954  1.00  0.00    -0.069 N
ATOM      3  H11 UNL     1      -7.453   5.123  15.207  1.00  0.00     0.277 HD
ATOM      4  H12 UNL     1      -6.686   4.672  13.948  1.00  0.00     0.277 HD
HETATM    5  C6  UNL     1      -5.478   5.666  15.272  1.00  0.00     0.235 C
HETATM    6  C7  UNL     1      -4.255   4.787  15.240  1.00  0.00     0.055 C
HETATM    7  C8  UNL     1      -4.749   3.412  15.568  1.00  0.00     0.116 C
ENDROOT
BRANCH   7   8
HETATM    8  N2  UNL     1      -4.263   2.435  14.607  1.00  0.00    -0.354 N
HETATM    9  C9  UNL     1      -4.679   2.374  13.273  1.00  0.00     0.223 C
HETATM   10  O1  UNL     1      -5.526   3.185  12.814  1.00  0.00    -0.273 OA
ATOM     11  H2  UNL     1      -3.575   1.753  14.926  1.00  0.00     0.162 HD
BRANCH   9  12
HETATM   12  C10 UNL     1      -4.145   1.362  12.361  1.00  0.00     0.100 C
HETATM   13  C11 UNL     1      -5.017   1.107  11.167  1.00  0.00     0.042 C
HETATM   14  C12 UNL     1      -4.378  -0.011  10.354  1.00  0.00     0.168 C
HETATM   15  O2  UNL     1      -3.066   0.269  10.028  1.00  0.00    -0.390 OA
HETATM   16  C13 UNL     1      -2.258   0.464  11.126  1.00  0.00     0.188 C
HETATM   17  C14 UNL     1      -2.757   1.722  11.833  1.00  0.00     0.119 C
HETATM   18 CL1  UNL     1      -2.982   2.972  10.578  1.00  0.00    -0.122 Cl
ENDBRANCH   9  12
ENDBRANCH   7   8
BRANCH   1  19
HETATM   19  C4  UNL     1      -6.728   3.446  16.983  1.00  0.00     0.039 C
BRANCH  19  20
HETATM   20  C2  UNL     1      -6.351   2.236  17.751  1.00  0.00    -0.021 C
HETATM   21  C1  UNL     1      -7.184   1.040  17.336  1.00  0.00     0.009 C
HETATM   22  C3  UNL     1      -6.381   2.358  19.225  1.00  0.00     0.009 C
ENDBRANCH  19  20
ENDBRANCH   1  19
TORSDOF 4
ENDMDL