MODEL 2
REMARK VINA RESULT: -7.654802073      4.578      6.601
REMARK  5 active torsions:
REMARK  status: ('A' for Active; 'I' for Inactive)
REMARK    1  A    between atoms: C1_2  and  C2_3
REMARK       I    between atoms: C1_2  and  N1_10
REMARK    2  A    between atoms: C2_3  and  C3_4
REMARK    3  A    between atoms: C9_12  and  C10_13
REMARK    4  A    between atoms: C10_13  and  C11_14
REMARK       I    between atoms: C11_14  and  N2_16
REMARK    5  A    between atoms: C14_22  and  C15_23
ROOT
HETATM    1  C10 UNL     1      -4.670   2.441  16.163  1.00  0.00     0.147 C
ENDROOT
BRANCH   1   2
HETATM    2  C9  UNL     1      -6.020   2.554  16.770  1.00  0.00     0.073 C
HETATM    3  N1  UNL     1      -6.827   3.431  16.314  1.00  0.00    -0.340 N
HETATM    4  C1  UNL     1      -6.512   4.304  15.263  1.00  0.00     0.221 C
ATOM      5  H1  UNL     1      -7.753   3.502  16.739  1.00  0.00     0.167 HD
HETATM    6  O1  UNL     1      -6.736   3.926  14.083  1.00  0.00    -0.273 OA
BRANCH   4   7
HETATM    7  C2  UNL     1      -5.928   5.659  15.471  1.00  0.00     0.107 C
BRANCH   7   8
HETATM    8  C3  UNL     1      -6.201   6.514  14.275  1.00  0.00    -0.006 C
HETATM    9  C4  UNL     1      -4.926   6.969  13.622  1.00  0.00     0.005 C
HETATM   10  C5  UNL     1      -5.134   7.806  12.411  1.00  0.00     0.000 C
HETATM   11  C6  UNL     1      -6.354   8.624  12.350  1.00  0.00     0.000 C
HETATM   12  C7  UNL     1      -7.399   8.402  13.376  1.00  0.00     0.000 C
HETATM   13  C8  UNL     1      -6.936   7.800  14.663  1.00  0.00     0.005 C
ENDBRANCH   7   8
ENDBRANCH   4   7
ENDBRANCH   1   2
BRANCH   1  14
HETATM   14  C11 UNL     1      -4.628   1.402  15.110  1.00  0.00     0.224 C
HETATM   15  O2  UNL     1      -5.059   0.241  15.422  1.00  0.00    -0.273 OA
HETATM   16  N2  UNL     1      -4.154   1.585  13.792  1.00  0.00    -0.348 N
HETATM   17  C12 UNL     1      -3.637   2.840  13.337  1.00  0.00     0.153 C
HETATM   18  C16 UNL     1      -4.193   0.459  12.853  1.00  0.00     0.164 C
HETATM   19  C13 UNL     1      -4.292   3.194  12.002  1.00  0.00     0.253 C
HETATM   20  N3  UNL     1      -4.133   2.068  11.102  1.00  0.00    -0.063 N
HETATM   21  C14 UNL     1      -4.911   0.945  11.615  1.00  0.00     0.268 C
ATOM     22  H32 UNL     1      -4.372   2.302  10.138  1.00  0.00     0.277 HD
ATOM     23  H31 UNL     1      -3.153   1.827  10.949  1.00  0.00     0.277 HD
BRANCH  21  24
HETATM   24  C15 UNL     1      -4.861  -0.155  10.565  1.00  0.00     0.385 C
HETATM   25  F1  UNL     1      -4.533  -1.372  11.135  1.00  0.00    -0.212 F
HETATM   26  F2  UNL     1      -3.887   0.191   9.640  1.00  0.00    -0.212 F
ENDBRANCH  21  24
ENDBRANCH   1  14
TORSDOF 5
ENDMDL