MODEL 1
REMARK VINA RESULT: -7.177262923      0.000      0.000
REMARK  5 active torsions:
REMARK  status: ('A' for Active; 'I' for Inactive)
REMARK    1  A    between atoms: C1_2  and  C2_3
REMARK       I    between atoms: C1_2  and  N2_18
REMARK    2  A    between atoms: C2_3  and  N1_4
REMARK    3  A    between atoms: C5_7  and  O2_8
REMARK    4  A    between atoms: C5_7  and  C6_10
REMARK    5  A    between atoms: N2_18  and  C12_20
ROOT
HETATM    1  N1  UNL     1      -4.730   1.288  12.898  1.00  0.00     0.100 N
HETATM    2  C3  UNL     1      -4.736   0.409  11.742  1.00  0.00     0.276 C
HETATM    3  C4  UNL     1      -3.513   0.941  10.965  1.00  0.00     0.070 C
HETATM    4  C5  UNL     1      -3.841   2.424  11.046  1.00  0.00     0.090 C
HETATM    5  C11 UNL     1      -4.244   2.562  12.487  1.00  0.00     0.311 C
ENDROOT
BRANCH   4   6
HETATM    6  O2  UNL     1      -4.951   2.645  10.251  1.00  0.00    -0.388 OA
ATOM      7  H2  UNL     1      -4.709   3.292   9.599  1.00  0.00     0.210 HD
ENDBRANCH   4   6
BRANCH   4   8
HETATM    8  C6  UNL     1      -2.718   3.299  10.635  1.00  0.00     0.030 C
HETATM    9  C7  UNL     1      -1.409   2.540  10.654  1.00  0.00     0.016 C
HETATM   10  C8  UNL     1      -0.957   3.445  11.781  1.00  0.00     0.033 A
HETATM   11  C9  UNL     1      -2.202   4.314  11.597  1.00  0.00     0.039 A
HETATM   12  C10 UNL     1      -0.810   4.864  11.434  1.00  0.00     0.122 A
HETATM   13 CL1  UNL     1      -0.253   5.193   9.766  1.00  0.00    -0.101 Cl
HETATM   14 CL2  UNL     1      -0.215   5.949  12.675  1.00  0.00    -0.101 Cl
ENDBRANCH   4   8
BRANCH   1  15
HETATM   15  C2  UNL     1      -3.976   0.707  13.974  1.00  0.00     0.374 C
BRANCH  15  16
HETATM   16  C1  UNL     1      -4.727   0.746  15.230  1.00  0.00     0.246 C
HETATM   17  O1  UNL     1      -5.025  -0.394  15.758  1.00  0.00    -0.272 OA
HETATM   18  N2  UNL     1      -5.107   1.947  15.845  1.00  0.00    -0.355 N
ATOM     19  H2  UNL     1      -4.866   2.847  15.430  1.00  0.00     0.162 HD
BRANCH  18  20
HETATM   20  C12 UNL     1      -5.859   1.877  17.099  1.00  0.00     0.084 A
HETATM   21  C13 UNL     1      -6.910   3.007  17.161  1.00  0.00     0.027 A
HETATM   22  C14 UNL     1      -7.300   1.560  17.067  1.00  0.00     0.027 A
ENDBRANCH  18  20
ENDBRANCH  15  16
ENDBRANCH   1  15
TORSDOF 5
ENDMDL