MODEL 1
REMARK VINA RESULT: -6.909838258      0.000      0.000
REMARK  4 active torsions:
REMARK  status: ('A' for Active; 'I' for Inactive)
REMARK    1  A    between atoms: C2_2  and  C3_3
REMARK    2  A    between atoms: C3_3  and  N1_4
REMARK       I    between atoms: N1_4  and  C4_6
REMARK    3  A    between atoms: C4_6  and  C5_8
REMARK    4  A    between atoms: C5_8  and  N2_9
ROOT
HETATM    1  N1  UNL     1      -3.812   2.092  13.109  1.00  0.00    -0.359 N
ATOM      2  H1  UNL     1      -2.897   2.503  13.294  1.00  0.00     0.162 HD
HETATM    3  C4  UNL     1      -4.409   2.252  11.814  1.00  0.00     0.246 C
HETATM    4  O1  UNL     1      -5.533   1.761  11.547  1.00  0.00    -0.272 OA
ENDROOT
BRANCH   1   5
HETATM    5  C3  UNL     1      -4.488   1.355  14.160  1.00  0.00     0.131 C
BRANCH   5   6
HETATM    6  C2  UNL     1      -4.985   2.309  15.221  1.00  0.00    -0.025 C
HETATM    7  C1  UNL     1      -3.814   3.216  15.569  1.00  0.00     0.017 C
HETATM    8  C10 UNL     1      -6.172   3.038  14.686  1.00  0.00     0.011 C
HETATM    9  C11 UNL     1      -6.661   4.094  15.648  1.00  0.00     0.004 C
HETATM   10  C12 UNL     1      -6.545   3.688  17.077  1.00  0.00     0.042 C
HETATM   11  C13 UNL     1      -6.392   2.222  17.304  1.00  0.00     0.114 C
HETATM   12 CL1  UNL     1      -7.968   1.408  17.018  1.00  0.00    -0.102 Cl
HETATM   13 CL2  UNL     1      -6.040   1.992  19.053  1.00  0.00    -0.102 Cl
HETATM   14  C14 UNL     1      -5.306   1.573  16.512  1.00  0.00     0.053 C
ENDBRANCH   5   6
ENDBRANCH   1   5
BRANCH   3  15
HETATM   15  C5  UNL     1      -3.668   3.015  10.787  1.00  0.00     0.374 C
BRANCH  15  16
HETATM   16  N2  UNL     1      -2.329   3.325  11.164  1.00  0.00     0.100 N
HETATM   17  C6  UNL     1      -2.137   4.755  11.014  1.00  0.00     0.300 C
HETATM   18  C7  UNL     1      -2.069   5.172   9.567  1.00  0.00     0.262 C
HETATM   19  N3  UNL     1      -1.101   4.410   8.814  1.00  0.00    -0.072 N
HETATM   20  C8  UNL     1      -0.399   3.447   9.649  1.00  0.00     0.262 C
ATOM     21  H32 UNL     1      -1.531   3.958   8.008  1.00  0.00     0.277 HD
ATOM     22  H31 UNL     1      -0.447   5.022   8.325  1.00  0.00     0.277 HD
HETATM   23  C9  UNL     1      -1.418   2.567  10.333  1.00  0.00     0.300 C
ENDBRANCH  15  16
ENDBRANCH   3  15
TORSDOF 4
ENDMDL