MODEL 4
REMARK VINA RESULT: -6.259654333      3.361      4.928
REMARK  8 active torsions:
REMARK  status: ('A' for Active; 'I' for Inactive)
REMARK    1  A    between atoms: C2_2  and  N1_5
REMARK       I    between atoms: N1_5  and  C5_7
REMARK    2  A    between atoms: C5_7  and  C6_9
REMARK    3  A    between atoms: C6_9  and  C7_10
REMARK    4  A    between atoms: N2_13  and  C10_14
REMARK    5  A    between atoms: C10_14  and  O2_15
REMARK    6  A    between atoms: C10_14  and  C11_17
REMARK    7  A    between atoms: C12_20  and  C13_21
REMARK    8  A    between atoms: C13_21  and  O3_22
ROOT
HETATM    1  C7  UNL     1      -4.820   1.259  13.079  1.00  0.00     0.021 C
HETATM    2  C8  UNL     1      -4.404   0.164  12.088  1.00  0.00     0.027 C
HETATM    3  C9  UNL     1      -3.953   0.915  10.825  1.00  0.00     0.125 C
HETATM    4  N2  UNL     1      -3.391   2.144  11.507  1.00  0.00    -0.356 N
HETATM    5  C12 UNL     1      -4.499   2.512  12.296  1.00  0.00     0.114 C
ENDROOT
BRANCH   1   6
HETATM    6  C6  UNL     1      -4.097   1.124  14.372  1.00  0.00     0.109 C
BRANCH   6   7
HETATM    7  C5  UNL     1      -5.046   1.118  15.536  1.00  0.00     0.218 C
HETATM    8  N1  UNL     1      -5.635   2.309  16.005  1.00  0.00    -0.353 N
ATOM      9  H1  UNL     1      -5.417   3.196  15.551  1.00  0.00     0.163 HD
HETATM   10  O1  UNL     1      -5.319   0.028  16.101  1.00  0.00    -0.274 OA
BRANCH   8  11
HETATM   11  C2  UNL     1      -6.546   2.278  17.128  1.00  0.00     0.022 C
HETATM   12  C1  UNL     1      -7.701   1.321  16.874  1.00  0.00     0.037 C
HETATM   13  C3  UNL     1      -7.096   3.683  17.319  1.00  0.00     0.037 C
HETATM   14  C4  UNL     1      -5.884   1.849  18.399  1.00  0.00     0.037 C
ENDBRANCH   8  11
ENDBRANCH   6   7
ENDBRANCH   1   6
BRANCH   5  15
HETATM   15  C13 UNL     1      -4.553   3.773  13.037  1.00  0.00     0.189 C
BRANCH  15  16
HETATM   16  O3  UNL     1      -5.821   4.060  13.539  1.00  0.00    -0.399 OA
ATOM     17  H3  UNL     1      -6.274   3.295  13.872  1.00  0.00     0.209 HD
ENDBRANCH  15  16
ENDBRANCH   5  15
BRANCH   4  18
HETATM   18  C10 UNL     1      -2.082   2.541  11.212  1.00  0.00     0.147 C
BRANCH  18  19
HETATM   19  O2  UNL     1      -1.108   2.171  11.994  1.00  0.00    -0.347 OA
ATOM     20  H2  UNL     1      -1.047   1.263  12.267  1.00  0.00     0.219 HD
ENDBRANCH  18  19
BRANCH  18  21
HETATM   21  C11 UNL     1      -1.611   3.361  10.086  1.00  0.00     0.252 C
HETATM   22 CL1  UNL     1       0.180   3.612  10.181  1.00  0.00    -0.099 Cl
HETATM   23 CL2  UNL     1      -2.303   5.027  10.190  1.00  0.00    -0.099 Cl
ENDBRANCH  18  21
ENDBRANCH   4  18
TORSDOF 8
ENDMDL