MODEL 5
REMARK VINA RESULT: -6.580794003      3.563      4.999
REMARK  4 active torsions:
REMARK  status: ('A' for Active; 'I' for Inactive)
REMARK    1  A    between atoms: N2_5  and  C4_6
REMARK    2  A    between atoms: C4_6  and  C5_7
REMARK    3  A    between atoms: C9_11  and  N3_12
REMARK       I    between atoms: N3_12  and  C10_14
REMARK       I    between atoms: C10_14  and  N4_16
REMARK    4  A    between atoms: N4_16  and  C11_18
ROOT
HETATM    1  N3  UNL     1      -3.645   4.094  13.214  1.00  0.00    -0.335 N
ATOM      2  H3  UNL     1      -3.353   4.916  13.741  1.00  0.00     0.164 HD
HETATM    3  C10 UNL     1      -4.593   3.244  13.806  1.00  0.00     0.317 C
HETATM    4  O1  UNL     1      -4.955   2.229  13.156  1.00  0.00    -0.247 OA
HETATM    5  N4  UNL     1      -5.166   3.450  15.076  1.00  0.00    -0.333 N
ATOM      6  H4  UNL     1      -4.866   4.276  15.595  1.00  0.00     0.164 HD
ENDROOT
BRANCH   1   7
HETATM    7  C9  UNL     1      -3.056   3.887  11.916  1.00  0.00     0.132 C
HETATM    8  C8  UNL     1      -1.701   3.208  12.185  1.00  0.00     0.154 C
HETATM    9  N2  UNL     1      -1.134   2.895  10.913  1.00  0.00    -0.370 N
HETATM   10  C3  UNL     1      -0.487   3.944  10.231  1.00  0.00     0.093 C
HETATM   11  C2  UNL     1      -1.445   4.562   9.246  1.00  0.00     0.316 C
HETATM   12  N1  UNL     1      -2.647   5.072   9.794  1.00  0.00     0.090 N
HETATM   13  C1  UNL     1      -3.030   6.270   9.079  1.00  0.00     0.310 C
HETATM   14  C16 UNL     1      -2.751   5.179  11.198  1.00  0.00     0.298 C
BRANCH   9  15
HETATM   15  C4  UNL     1      -1.716   1.848  10.197  1.00  0.00     0.068 C
BRANCH  15  16
HETATM   16  C5  UNL     1      -2.500   0.833  10.982  1.00  0.00     0.024 A
HETATM   17  C6  UNL     1      -3.895   0.589  10.382  1.00  0.00     0.010 A
HETATM   18  C7  UNL     1      -2.898  -0.481  10.346  1.00  0.00     0.010 A
ENDBRANCH  15  16
ENDBRANCH   9  15
ENDBRANCH   1   7
BRANCH   5  19
HETATM   19  C11 UNL     1      -6.130   2.605  15.698  1.00  0.00     0.158 C
HETATM   20  C12 UNL     1      -6.860   3.277  16.843  1.00  0.00     0.031 C
HETATM   21  C13 UNL     1      -7.514   2.085  17.536  1.00  0.00     0.008 C
HETATM   22  C14 UNL     1      -6.684   0.891  17.195  1.00  0.00     0.081 C
HETATM   23  C15 UNL     1      -5.502   1.433  16.424  1.00  0.00     0.263 C
HETATM   24  F1  UNL     1      -4.985   0.508  15.545  1.00  0.00    -0.204 F
HETATM   25  F2  UNL     1      -4.562   1.846  17.345  1.00  0.00    -0.204 F
ENDBRANCH   5  19
TORSDOF 4
ENDMDL