MODEL 4
REMARK VINA RESULT: -5.921938295      3.074      5.035
REMARK  5 active torsions:
REMARK  status: ('A' for Active; 'I' for Inactive)
REMARK    1  A    between atoms: C3_9  and  N3_10
REMARK    2  A    between atoms: N3_10  and  C4_12
REMARK    3  A    between atoms: C4_12  and  C5_13
REMARK    4  A    between atoms: C5_13  and  C6_14
REMARK    5  A    between atoms: C6_14  and  N4_15
ROOT
HETATM    1  N3  UNL     1      -4.527   4.236  13.965  1.00  0.00    -0.374 N
ATOM      2  H3  UNL     1      -5.283   4.921  13.971  1.00  0.00     0.161 HD
ENDROOT
BRANCH   1   3
HETATM    3  C3  UNL     1      -4.614   3.110  14.593  1.00  0.00     0.140 A
HETATM    4  C1  UNL     1      -5.473   2.870  15.637  1.00  0.00     0.114 A
HETATM    5 CL1  UNL     1      -6.627   3.993  16.361  1.00  0.00    -0.077 Cl
HETATM    6  C2  UNL     1      -5.248   1.543  16.021  1.00  0.00     0.120 A
HETATM    7 BR1  UNL     1      -6.172   0.658  17.440  1.00  0.00    -0.028 Br
HETATM    8  N1  UNL     1      -4.290   1.028  15.227  1.00  0.00    -0.290 N
HETATM    9  N2  UNL     1      -3.929   1.973  14.388  1.00  0.00    -0.283 N
ATOM     10  H1  UNL     1      -3.914   0.081  15.269  1.00  0.00     0.187 HD
ATOM     11  H2  UNL     1      -3.215   1.858  13.669  1.00  0.00     0.188 HD
ENDBRANCH   1   3
BRANCH   1  12
HETATM   12  C4  UNL     1      -3.280   4.467  13.246  1.00  0.00     0.123 C
BRANCH  12  13
HETATM   13  C5  UNL     1      -3.596   4.804  11.814  1.00  0.00     0.050 C
BRANCH  13  14
HETATM   14  C6  UNL     1      -3.026   3.745  10.920  1.00  0.00     0.274 C
BRANCH  14  15
HETATM   15  N4  UNL     1      -3.277   2.397  11.369  1.00  0.00     0.092 N
HETATM   16  C7  UNL     1      -2.100   1.558  11.239  1.00  0.00     0.298 C
HETATM   17  C8  UNL     1      -2.528   0.109  11.266  1.00  0.00     0.198 C
HETATM   18  O1  UNL     1      -3.655   0.021  12.084  1.00  0.00    -0.388 OA
HETATM   19  C9  UNL     1      -4.733   0.457  11.322  1.00  0.00     0.198 C
HETATM   20  C10 UNL     1      -4.434   1.808  10.728  1.00  0.00     0.298 C
ENDBRANCH  14  15
ENDBRANCH  13  14
ENDBRANCH  12  13
ENDBRANCH   1  12
TORSDOF 5
ENDMDL