MODEL 2
REMARK VINA RESULT: -6.448705186      3.597      7.098
REMARK  6 active torsions:
REMARK  status: ('A' for Active; 'I' for Inactive)
REMARK    1  A    between atoms: C3_4  and  C4_5
REMARK    2  A    between atoms: C4_5  and  N1_6
REMARK    3  A    between atoms: C8_10  and  N2_11
REMARK    4  A    between atoms: N2_11  and  C9_13
REMARK    5  A    between atoms: C9_13  and  N3_15
REMARK       I    between atoms: N3_15  and  C10_17
REMARK    6  A    between atoms: C10_17  and  C11_19
ROOT
HETATM    1  N1  UNL     1      -1.780   2.167  11.176  1.00  0.00    -0.348 N
HETATM    2  C5  UNL     1      -1.985   0.777  11.237  1.00  0.00     0.068 C
HETATM    3  C6  UNL     1      -3.403   0.414  11.600  1.00  0.00     0.047 C
HETATM    4  C7  UNL     1      -4.066   1.285  12.582  1.00  0.00     0.036 C
HETATM    5  C8  UNL     1      -3.645   2.702  12.692  1.00  0.00     0.123 C
HETATM    6  C12 UNL     1      -2.254   2.936  12.237  1.00  0.00     0.093 C
ENDROOT
BRANCH   5   7
HETATM    7  N2  UNL     1      -3.782   3.135  14.091  1.00  0.00    -0.358 N
ATOM      8  H2  UNL     1      -2.923   3.308  14.614  1.00  0.00     0.162 HD
BRANCH   7   9
HETATM    9  C9  UNL     1      -4.993   3.328  14.763  1.00  0.00     0.174 C
HETATM   10  S1  UNL     1      -5.808   4.754  14.475  1.00  0.00    -0.041 SA
BRANCH   9  11
HETATM   11  N3  UNL     1      -5.596   2.451  15.673  1.00  0.00    -0.303 N
HETATM   12  C10 UNL     1      -4.975   1.434  16.429  1.00  0.00     0.237 C
HETATM   13  O1  UNL     1      -3.765   1.209  16.358  1.00  0.00    -0.272 OA
ATOM     14  H3  UNL     1      -6.601   2.560  15.805  1.00  0.00     0.171 HD
BRANCH  12  15
HETATM   15  C11 UNL     1      -5.788   0.577  17.366  1.00  0.00     0.217 C
HETATM   16 CL2  UNL     1      -7.472   1.100  17.257  1.00  0.00    -0.121 Cl
ENDBRANCH  12  15
ENDBRANCH   9  11
ENDBRANCH   7   9
ENDBRANCH   5   7
BRANCH   1  17
HETATM   17  C4  UNL     1      -1.499   2.735   9.927  1.00  0.00     0.096 C
BRANCH  17  18
HETATM   18  C3  UNL     1      -0.169   3.448   9.997  1.00  0.00     0.036 C
HETATM   19  C2  UNL     1       0.463   3.938   8.955  1.00  0.00     0.009 C
HETATM   20  C1  UNL     1      -0.034   3.864   7.556  1.00  0.00     0.062 C
HETATM   21 CL1  UNL     1       2.001   4.740   9.205  1.00  0.00    -0.089 Cl
ENDBRANCH  17  18
ENDBRANCH   1  17
TORSDOF 6
ENDMDL