MODEL 3
REMARK VINA RESULT: -6.170757870      2.749      3.665
REMARK  6 active torsions:
REMARK  status: ('A' for Active; 'I' for Inactive)
REMARK    1  A    between atoms: C2_2  and  O1_3
REMARK    2  A    between atoms: C2_2  and  C3_5
REMARK    3  A    between atoms: C5_8  and  C6_9
REMARK    4  A    between atoms: C5_8  and  C7_11
REMARK    5  A    between atoms: N1_14  and  C10_15
REMARK    6  A    between atoms: C10_15  and  O2_16
ROOT
HETATM    1  C3  UNL     1      -4.626   2.497  12.814  1.00  0.00     0.054 C
HETATM    2  C4  UNL     1      -4.763   2.100  14.035  1.00  0.00     0.033 C
HETATM    3 BR1  UNL     1      -4.501   0.294  14.626  1.00  0.00    -0.052 Br
HETATM    4  C5  UNL     1      -5.099   3.260  14.926  1.00  0.00     0.088 C
HETATM    5  N1  UNL     1      -5.348   4.331  14.040  1.00  0.00    -0.311 N
HETATM    6  C11 UNL     1      -4.977   3.909  12.739  1.00  0.00     0.256 C
HETATM    7  O3  UNL     1      -4.965   4.668  11.703  1.00  0.00    -0.268 OA
ENDROOT
BRANCH   4   8
HETATM    8  C6  UNL     1      -3.813   3.452  15.729  1.00  0.00     0.152 C
HETATM    9 CL1  UNL     1      -2.668   4.456  14.882  1.00  0.00    -0.128 Cl
ENDBRANCH   4   8
BRANCH   4  10
HETATM   10  C7  UNL     1      -6.270   2.862  15.779  1.00  0.00     0.020 A
HETATM   11  C8  UNL     1      -6.813   3.610  16.901  1.00  0.00     0.008 A
HETATM   12  C9  UNL     1      -6.128   2.305  17.144  1.00  0.00     0.008 A
ENDBRANCH   4  10
BRANCH   5  13
HETATM   13  C10 UNL     1      -5.901   5.670  14.299  1.00  0.00     0.294 C
BRANCH  13  14
HETATM   14  O2  UNL     1      -6.999   5.924  13.474  1.00  0.00    -0.382 OA
ATOM     15  H2  UNL     1      -7.780   5.501  13.810  1.00  0.00     0.211 HD
ENDBRANCH  13  14
ENDBRANCH   5  13
BRANCH   1  16
HETATM   16  C2  UNL     1      -4.251   1.772  11.568  1.00  0.00     0.153 C
HETATM   17  C1  UNL     1      -2.892   2.023  11.051  1.00  0.00     0.044 C
BRANCH  16  18
HETATM   18  O1  UNL     1      -5.164   2.215  10.584  1.00  0.00    -0.391 OA
ATOM     19  H1  UNL     1      -5.515   3.047  10.878  1.00  0.00     0.210 HD
ENDBRANCH  16  18
ENDBRANCH   1  16
TORSDOF 6
ENDMDL