MODEL 3
REMARK VINA RESULT: -6.508363471      3.723      5.302
REMARK  5 active torsions:
REMARK  status: ('A' for Active; 'I' for Inactive)
REMARK    1  A    between atoms: C3_3  and  N1_4
REMARK    2  A    between atoms: C6_7  and  C8_9
REMARK       I    between atoms: C8_9  and  N2_11
REMARK    3  A    between atoms: N2_11  and  C9_12
REMARK    4  A    between atoms: C9_12  and  C10_13
REMARK    5  A    between atoms: C10_13  and  O2_14
ROOT
HETATM    1  C1  UNL     1      -7.555   8.268  13.152  1.00  0.00     0.013 C
HETATM    2  C2  UNL     1      -7.268   7.131  13.422  1.00  0.00    -0.087 C
HETATM    3  C3  UNL     1      -6.949   5.767  13.782  1.00  0.00     0.366 C
ENDROOT
BRANCH   3   4
HETATM    4  N1  UNL     1      -5.828   5.500  14.587  1.00  0.00     0.110 N
HETATM    5  C4  UNL     1      -6.218   4.251  15.313  1.00  0.00     0.276 C
HETATM    6  C5  UNL     1      -5.695   3.229  14.387  1.00  0.00     0.053 C
HETATM    7  C6  UNL     1      -4.253   3.738  14.223  1.00  0.00     0.088 C
HETATM    8  C7  UNL     1      -3.571   3.330  15.467  1.00  0.00     0.029 C
HETATM    9  C11 UNL     1      -4.558   5.212  14.038  1.00  0.00     0.180 C
HETATM   10  C12 UNL     1      -4.228   5.746  12.694  1.00  0.00     0.046 C
HETATM   11  C15 UNL     1      -3.436   5.913  14.848  1.00  0.00     0.085 C
HETATM   12  C13 UNL     1      -3.558   7.110  12.857  1.00  0.00     0.045 C
HETATM   13  C14 UNL     1      -3.256   7.294  14.293  1.00  0.00     0.116 C
HETATM   14 CL1  UNL     1      -1.513   7.717  14.453  1.00  0.00    -0.102 Cl
HETATM   15 CL2  UNL     1      -4.150   8.531  15.133  1.00  0.00    -0.102 Cl
BRANCH   7  16
HETATM   16  C8  UNL     1      -3.674   3.073  13.000  1.00  0.00     0.302 C
HETATM   17  O1  UNL     1      -2.417   3.252  12.936  1.00  0.00    -0.256 OA
HETATM   18  N2  UNL     1      -4.412   2.364  12.085  1.00  0.00    -0.385 NA
BRANCH  18  19
HETATM   19  C9  UNL     1      -5.149   1.657  11.174  1.00  0.00     0.184 C
BRANCH  19  20
HETATM   20  C10 UNL     1      -4.589   0.279  10.759  1.00  0.00     0.223 C
BRANCH  20  21
HETATM   21  O2  UNL     1      -4.438   0.334   9.390  1.00  0.00    -0.395 OA
ATOM     22  H2  UNL     1      -3.854  -0.382   9.167  1.00  0.00     0.209 HD
ENDBRANCH  20  21
ENDBRANCH  19  20
ENDBRANCH  18  19
ENDBRANCH   7  16
ENDBRANCH   3   4
TORSDOF 5
ENDMDL