MODEL 4
REMARK VINA RESULT: -7.526483069      3.246      5.359
REMARK  5 active torsions:
REMARK  status: ('A' for Active; 'I' for Inactive)
REMARK    1  A    between atoms: N1_2  and  C2_4
REMARK    2  A    between atoms: N3_7  and  C4_9
REMARK    3  A    between atoms: C9_14  and  C10_15
REMARK    4  A    between atoms: C10_15  and  N4_16
REMARK       I    between atoms: N4_16  and  C11_18
REMARK    5  A    between atoms: C11_18  and  C12_20
ROOT
HETATM    1  C2  UNL     1      -3.773   1.473  12.394  1.00  0.00     0.180 C
HETATM    2  C3  UNL     1      -4.968   1.714  11.632  1.00  0.00     0.136 C
HETATM    3  N2  UNL     1      -5.927   1.891  11.018  1.00  0.00    -0.188 NA
HETATM    4  N3  UNL     1      -2.934   2.377  12.700  1.00  0.00    -0.363 N
ATOM      5  H3  UNL     1      -2.117   2.102  13.245  1.00  0.00     0.162 HD
ENDROOT
BRANCH   1   6
HETATM    6  N1  UNL     1      -3.513   0.144  12.831  1.00  0.00    -0.372 N
HETATM    7  C1  UNL     1      -3.833  -0.960  11.955  1.00  0.00     0.148 C
ATOM      8  H1  UNL     1      -3.107  -0.027  13.751  1.00  0.00     0.161 HD
ENDBRANCH   1   6
BRANCH   4   9
HETATM    9  C4  UNL     1      -3.062   3.774  12.326  1.00  0.00     0.089 C
HETATM   10  C5  UNL     1      -1.707   4.234  11.859  1.00  0.00     0.026 C
HETATM   11  C6  UNL     1      -1.640   5.720  11.626  1.00  0.00     0.002 C
HETATM   12  C7  UNL     1      -2.902   6.424  12.071  1.00  0.00     0.001 C
HETATM   13  C8  UNL     1      -3.149   6.006  13.506  1.00  0.00     0.008 C
HETATM   14  C9  UNL     1      -3.609   4.568  13.477  1.00  0.00     0.026 C
BRANCH  14  15
HETATM   15  C10 UNL     1      -3.291   3.943  14.813  1.00  0.00     0.129 C
BRANCH  15  16
HETATM   16  N4  UNL     1      -4.454   3.310  15.400  1.00  0.00    -0.360 N
HETATM   17  C11 UNL     1      -4.349   2.187  16.258  1.00  0.00     0.225 C
HETATM   18  O1  UNL     1      -3.159   1.771  16.482  1.00  0.00    -0.273 OA
ATOM     19  H4  UNL     1      -5.379   3.686  15.190  1.00  0.00     0.162 HD
BRANCH  17  20
HETATM   20  C12 UNL     1      -5.475   1.495  16.885  1.00  0.00     0.119 A
HETATM   21  C13 UNL     1      -5.829   1.731  18.320  1.00  0.00     0.060 A
HETATM   22  C14 UNL     1      -6.765   2.149  17.219  1.00  0.00     0.126 A
HETATM   23 CL1  UNL     1      -7.031   3.877  17.025  1.00  0.00    -0.101 Cl
HETATM   24 CL2  UNL     1      -8.272   1.174  17.092  1.00  0.00    -0.101 Cl
ENDBRANCH  17  20
ENDBRANCH  15  16
ENDBRANCH  14  15
ENDBRANCH   4   9
TORSDOF 5
ENDMDL