MODEL 2
REMARK VINA RESULT: -6.158497028      0.705      1.015
REMARK  6 active torsions:
REMARK  status: ('A' for Active; 'I' for Inactive)
REMARK    1  A    between atoms: C2_2  and  C4_4
REMARK    2  A    between atoms: C4_4  and  C5_5
REMARK    3  A    between atoms: C5_5  and  N1_6
REMARK    4  A    between atoms: C5_5  and  C6_10
REMARK       I    between atoms: C6_10  and  N2_12
REMARK    5  A    between atoms: C10_18  and  C11_19
REMARK    6  A    between atoms: C11_19  and  O2_20
ROOT
HETATM    1  C6  UNL     1      -4.534   1.656  14.285  1.00  0.00     0.251 C
HETATM    2  O1  UNL     1      -4.906   0.458  14.035  1.00  0.00    -0.271 OA
HETATM    3  N2  UNL     1      -3.953   2.416  13.254  1.00  0.00    -0.341 N
HETATM    4  C7  UNL     1      -3.455   3.775  13.345  1.00  0.00     0.129 C
HETATM    5  C8  UNL     1      -2.313   3.774  12.348  1.00  0.00     0.059 C
HETATM    6  C9  UNL     1      -2.891   2.951  11.224  1.00  0.00     0.118 C
HETATM    7 CL1  UNL     1      -3.795   4.037  10.154  1.00  0.00    -0.104 Cl
HETATM    8 BR1  UNL     1      -1.423   2.117  10.286  1.00  0.00    -0.066 Br
HETATM    9  C10 UNL     1      -3.754   1.940  11.895  1.00  0.00     0.145 C
ENDROOT
BRANCH   1  10
HETATM   10  C5  UNL     1      -4.749   2.148  15.665  1.00  0.00     0.275 C
BRANCH  10  11
HETATM   11  C4  UNL     1      -5.980   1.517  16.220  1.00  0.00     0.046 C
BRANCH  11  12
HETATM   12  C2  UNL     1      -6.751   2.370  17.188  1.00  0.00    -0.020 C
HETATM   13  C1  UNL     1      -6.794   3.814  16.809  1.00  0.00     0.009 C
HETATM   14  C3  UNL     1      -6.419   2.117  18.618  1.00  0.00     0.009 C
ENDBRANCH  11  12
ENDBRANCH  10  11
BRANCH  10  15
HETATM   15  N1  UNL     1      -3.558   1.847  16.433  1.00  0.00    -0.066 N
ATOM     16  H13 UNL     1      -3.783   1.730  17.421  1.00  0.00     0.275 HD
ATOM     17  H12 UNL     1      -3.221   0.907  16.226  1.00  0.00     0.275 HD
ATOM     18  H11 UNL     1      -2.816   2.535  16.309  1.00  0.00     0.275 HD
ENDBRANCH  10  15
ENDBRANCH   1  10
BRANCH   9  19
HETATM   19  C11 UNL     1      -5.084   1.742  11.200  1.00  0.00     0.192 C
BRANCH  19  20
HETATM   20  O2  UNL     1      -5.293   0.443  10.809  1.00  0.00    -0.399 OA
ATOM     21  H2  UNL     1      -5.636   0.373   9.926  1.00  0.00     0.209 HD
ENDBRANCH  19  20
ENDBRANCH   9  19
TORSDOF 6
ENDMDL