MODEL 1
REMARK VINA RESULT: -6.063754883      0.000      0.000
REMARK  6 active torsions:
REMARK  status: ('A' for Active; 'I' for Inactive)
REMARK    1  A    between atoms: C4_6  and  O2_7
REMARK    2  A    between atoms: C4_6  and  C5_9
REMARK    3  A    between atoms: C5_9  and  C6_10
REMARK    4  A    between atoms: C6_10  and  C7_11
REMARK    5  A    between atoms: C7_11  and  C8_12
REMARK    6  A    between atoms: C8_12  and  O3_13
ROOT
HETATM    1  O1  UNL     1      -3.397  -0.072   9.296  1.00  0.00    -0.295 OA
HETATM    2  C1  UNL     1      -3.768   0.335  10.376  1.00  0.00     0.158 C
HETATM    3  C2  UNL     1      -4.361  -0.525  11.434  1.00  0.00     0.131 C
HETATM    4 BR1  UNL     1      -3.355  -2.153  11.674  1.00  0.00    -0.083 Br
HETATM    5  C3  UNL     1      -4.211   0.394  12.653  1.00  0.00     0.063 C
HETATM    6  C4  UNL     1      -4.597   1.722  12.038  1.00  0.00     0.079 C
HETATM    7  C9  UNL     1      -3.694   1.752  10.823  1.00  0.00     0.162 C
HETATM    8 BR2  UNL     1      -1.860   2.105  11.341  1.00  0.00    -0.080 Br
ENDROOT
BRANCH   6   9
HETATM    9  O2  UNL     1      -5.905   1.665  11.590  1.00  0.00    -0.388 OA
ATOM     10  H2  UNL     1      -6.043   2.324  10.920  1.00  0.00     0.210 HD
ENDBRANCH   6   9
BRANCH   6  11
HETATM   11  C5  UNL     1      -4.353   2.874  12.969  1.00  0.00     0.039 C
BRANCH  11  12
HETATM   12  C6  UNL     1      -5.142   2.794  14.232  1.00  0.00     0.005 C
BRANCH  12  13
HETATM   13  C7  UNL     1      -4.253   2.897  15.452  1.00  0.00     0.026 C
BRANCH  13  14
HETATM   14  C8  UNL     1      -4.610   1.746  16.369  1.00  0.00     0.164 C
BRANCH  14  15
HETATM   15  O3  UNL     1      -3.599   0.784  16.368  1.00  0.00    -0.401 OA
ATOM     16  H3  UNL     1      -3.647   0.247  17.151  1.00  0.00     0.209 HD
ENDBRANCH  14  15
ENDBRANCH  13  14
ENDBRANCH  12  13
ENDBRANCH  11  12
ENDBRANCH   6  11
TORSDOF 6
ENDMDL