MODEL 2
REMARK VINA RESULT: -6.077557966      1.054      1.521
REMARK  5 active torsions:
REMARK  status: ('A' for Active; 'I' for Inactive)
REMARK    1  A    between atoms: C2_2  and  C3_3
REMARK    2  A    between atoms: C3_3  and  N1_4
REMARK    3  A    between atoms: N1_4  and  C4_6
REMARK    4  A    between atoms: C5_11  and  C6_12
REMARK    5  A    between atoms: C6_12  and  N4_13
ROOT
HETATM    1  C4  UNL     1      -4.689   0.890  15.420  1.00  0.00     0.139 A
HETATM    2  N2  UNL     1      -4.241  -0.068  14.588  1.00  0.00    -0.284 N
ATOM      3  H2  UNL     1      -4.037  -1.031  14.856  1.00  0.00     0.188 HD
HETATM    4  N3  UNL     1      -4.104   0.431  13.371  1.00  0.00    -0.300 N
ATOM      5  H3  UNL     1      -3.778  -0.104  12.566  1.00  0.00     0.186 HD
HETATM    6  C5  UNL     1      -4.447   1.730  13.324  1.00  0.00     0.075 A
HETATM    7  C11 UNL     1      -4.823   2.013  14.653  1.00  0.00     0.082 A
HETATM    8 BR1  UNL     1      -5.414   3.759  15.161  1.00  0.00    -0.045 Br
ENDROOT
BRANCH   6   9
HETATM    9  C6  UNL     1      -4.467   2.679  12.191  1.00  0.00     0.332 C
BRANCH   9  10
HETATM   10  N4  UNL     1      -3.148   2.949  11.723  1.00  0.00     0.098 N
HETATM   11  C7  UNL     1      -2.901   4.343  11.471  1.00  0.00     0.299 C
HETATM   12  C8  UNL     1      -2.842   4.598   9.988  1.00  0.00     0.198 C
HETATM   13  O1  UNL     1      -1.796   3.920   9.411  1.00  0.00    -0.388 OA
HETATM   14  C9  UNL     1      -1.479   2.722   9.992  1.00  0.00     0.198 C
HETATM   15  C10 UNL     1      -2.686   2.075  10.683  1.00  0.00     0.299 C
ENDBRANCH   9  10
ENDBRANCH   6   9
BRANCH   1  16
HETATM   16  N1  UNL     1      -4.920   0.738  16.633  1.00  0.00    -0.354 N
ATOM     17  H1  UNL     1      -4.116   0.979  17.213  1.00  0.00     0.166 HD
BRANCH  16  18
HETATM   18  C3  UNL     1      -6.014   0.318  17.394  1.00  0.00     0.062 C
BRANCH  18  19
HETATM   19  C2  UNL     1      -7.051   1.370  17.684  1.00  0.00     0.040 C
HETATM   20  C1  UNL     1      -6.492   2.426  18.611  1.00  0.00     0.010 C
ENDBRANCH  18  19
ENDBRANCH  16  18
ENDBRANCH   1  16
TORSDOF 5
ENDMDL