MODEL 5
REMARK VINA RESULT: -6.487974929      2.854      4.546
REMARK  6 active torsions:
REMARK  status: ('A' for Active; 'I' for Inactive)
REMARK    1  A    between atoms: O1_1  and  C1_3
REMARK    2  A    between atoms: C1_3  and  C2_4
REMARK    3  A    between atoms: C5_8  and  C6_9
REMARK    4  A    between atoms: C6_9  and  O2_10
REMARK    5  A    between atoms: C8_13  and  C9_14
REMARK    6  A    between atoms: C9_14  and  C10_15
ROOT
HETATM    1  C1  UNL     1      -4.585   2.666  11.361  1.00  0.00     0.118 C
HETATM    2  N1  UNL     1      -4.147   3.867  11.832  1.00  0.00    -0.348 N
HETATM    3  C5  UNL     1      -3.672   4.886  10.841  1.00  0.00     0.111 C
HETATM    4  C7  UNL     1      -2.305   5.092  11.456  1.00  0.00     0.035 C
HETATM    5  C8  UNL     1      -2.409   4.627  12.920  1.00  0.00     0.022 C
HETATM    6  C11 UNL     1      -3.916   4.634  13.018  1.00  0.00     0.049 C
HETATM    7  C12 UNL     1      -4.174   6.137  12.846  1.00  0.00     0.059 C
HETATM    8  C13 UNL     1      -5.608   6.455  13.139  1.00  0.00     0.235 C
HETATM    9  N2  UNL     1      -5.711   6.417  14.602  1.00  0.00    -0.074 N
ATOM     10  H21 UNL     1      -6.631   6.088  14.896  1.00  0.00     0.277 HD
ATOM     11  H22 UNL     1      -5.742   7.358  14.993  1.00  0.00     0.277 HD
HETATM   12  C14 UNL     1      -4.679   5.649  15.200  1.00  0.00     0.244 C
HETATM   13  C15 UNL     1      -4.505   4.372  14.320  1.00  0.00     0.009 A
HETATM   14  C16 UNL     1      -4.512   3.108  15.079  1.00  0.00     0.014 A
HETATM   15  C17 UNL     1      -5.782   3.545  14.551  1.00  0.00     0.014 A
ENDROOT
BRANCH   5  16
HETATM   16  C9  UNL     1      -1.598   5.529  13.727  1.00  0.00     0.078 C
BRANCH  16  17
HETATM   17  C10 UNL     1      -0.687   6.268  12.695  1.00  0.00     0.353 C
HETATM   18  F1  UNL     1      -0.598   7.588  13.024  1.00  0.00    -0.214 F
HETATM   19  F2  UNL     1       0.513   5.619  12.696  1.00  0.00    -0.214 F
ENDBRANCH  16  17
ENDBRANCH   5  16
BRANCH   1  20
HETATM   20  O1  UNL     1      -4.718   2.504  10.032  1.00  0.00    -0.349 OA
ATOM     21  H1  UNL     1      -5.034   3.347   9.730  1.00  0.00     0.219 HD
ENDBRANCH   1  20
BRANCH   1  22
HETATM   22  C2  UNL     1      -4.990   1.354  11.922  1.00  0.00     0.060 A
HETATM   23  C3  UNL     1      -4.626   0.080  11.269  1.00  0.00     0.013 A
HETATM   24  C4  UNL     1      -3.758   0.477  12.370  1.00  0.00     0.013 A
ENDBRANCH   1  22
BRANCH   3  25
HETATM   25  C6  UNL     1      -3.476   4.495   9.440  1.00  0.00     0.189 C
BRANCH  25  26
HETATM   26  O2  UNL     1      -4.505   5.109   8.623  1.00  0.00    -0.399 OA
ATOM     27  H2  UNL     1      -4.544   4.667   7.784  1.00  0.00     0.209 HD
ENDBRANCH  25  26
ENDBRANCH   3  25
TORSDOF 6
ENDMDL