MODEL 2
REMARK VINA RESULT: -5.630393620      2.576      3.787
REMARK  6 active torsions:
REMARK  status: ('A' for Active; 'I' for Inactive)
REMARK    1  A    between atoms: C2_2  and  C4_4
REMARK    2  A    between atoms: C4_4  and  C5_5
REMARK    3  A    between atoms: C5_5  and  C6_8
REMARK    4  A    between atoms: N2_19  and  C14_20
REMARK    5  A    between atoms: C14_20  and  C15_21
REMARK    6  A    between atoms: C15_21  and  O2_22
ROOT
HETATM    1  C4  UNL     1      -3.436   4.693  11.882  1.00  0.00     0.118 C
HETATM    2  C10 UNL     1      -4.446   4.360  10.852  1.00  0.00     0.100 C
HETATM    3  N1  UNL     1      -4.756   3.047  10.475  1.00  0.00    -0.338 N
ATOM      4  H1  UNL     1      -5.612   3.028   9.921  1.00  0.00     0.167 HD
HETATM    5  C11 UNL     1      -4.246   1.755  10.630  1.00  0.00     0.226 C
HETATM    6  O1  UNL     1      -4.679   0.842   9.875  1.00  0.00    -0.273 OA
HETATM    7  C12 UNL     1      -3.240   1.431  11.626  1.00  0.00     0.147 C
HETATM    8  C13 UNL     1      -2.242   2.502  11.747  1.00  0.00     0.069 C
HETATM    9  N2  UNL     1      -2.370   3.784  12.125  1.00  0.00    -0.373 N
ENDROOT
BRANCH   1  10
HETATM   10  C2  UNL     1      -2.841   5.947  11.244  1.00  0.00     0.015 C
HETATM   11  C1  UNL     1      -2.485   5.632   9.770  1.00  0.00     0.012 C
HETATM   12  C3  UNL     1      -3.782   7.117  11.079  1.00  0.00     0.012 C
ENDBRANCH   1  10
BRANCH   1  13
HETATM   13  C5  UNL     1      -4.057   5.113  13.204  1.00  0.00     0.215 C
HETATM   14  F1  UNL     1      -3.086   5.865  13.829  1.00  0.00    -0.222 F
HETATM   15 CL1  UNL     1      -5.446   6.209  13.038  1.00  0.00    -0.079 Cl
BRANCH  13  16
HETATM   16  C6  UNL     1      -4.438   4.194  14.257  1.00  0.00     0.002 C
HETATM   17  C7  UNL     1      -5.267   3.004  14.024  1.00  0.00     0.019 C
HETATM   18  C8  UNL     1      -3.391   3.812  15.271  1.00  0.00     0.019 C
HETATM   19  C9  UNL     1      -5.376   5.067  15.153  1.00  0.00     0.019 C
ENDBRANCH  13  16
ENDBRANCH   1  13
BRANCH   9  20
HETATM   20  C14 UNL     1      -1.057   4.278  12.378  1.00  0.00     0.149 C
BRANCH  20  21
HETATM   21  C15 UNL     1       0.103   3.776  11.611  1.00  0.00     0.183 C
BRANCH  21  22
HETATM   22  O2  UNL     1       1.377   4.146  11.988  1.00  0.00    -0.399 OA
ATOM     23  H2  UNL     1       2.105   3.982  11.400  1.00  0.00     0.209 HD
ENDBRANCH  21  22
ENDBRANCH  20  21
ENDBRANCH   9  20
TORSDOF 6
ENDMDL