MODEL 3
REMARK VINA RESULT: -6.868967755      2.815      4.687
REMARK  7 active torsions:
REMARK  status: ('A' for Active; 'I' for Inactive)
REMARK    1  A    between atoms: C2_2  and  C3_3
REMARK    2  A    between atoms: C3_3  and  C4_4
REMARK    3  A    between atoms: C3_3  and  N2_15
REMARK       I    between atoms: C4_4  and  N1_6
REMARK    4  A    between atoms: C7_9  and  C8_10
REMARK    5  A    between atoms: C8_10  and  O2_11
REMARK    6  A    between atoms: C14_19  and  O3_20
REMARK    7  A    between atoms: C14_19  and  C15_22
ROOT
HETATM    1  C3  UNL     1      -4.665   2.804  14.152  1.00  0.00     0.314 C
ENDROOT
BRANCH   1   2
HETATM    2  C2  UNL     1      -4.992   1.988  15.374  1.00  0.00     0.041 C
HETATM    3  C1  UNL     1      -6.125   2.586  16.179  1.00  0.00     0.007 C
ENDBRANCH   1   2
BRANCH   1   4
HETATM    4  C4  UNL     1      -4.006   4.075  14.532  1.00  0.00     0.253 C
HETATM    5  O1  UNL     1      -2.913   3.905  15.195  1.00  0.00    -0.271 OA
HETATM    6  N1  UNL     1      -4.384   5.384  14.279  1.00  0.00    -0.350 N
HETATM    7  C5  UNL     1      -5.516   5.875  13.538  1.00  0.00     0.126 C
HETATM    8  C10 UNL     1      -3.529   6.461  14.821  1.00  0.00     0.126 C
HETATM    9  C6  UNL     1      -6.353   6.857  14.372  1.00  0.00     0.027 C
HETATM   10  C7  UNL     1      -5.528   7.961  14.956  1.00  0.00     0.012 C
HETATM   11  C9  UNL     1      -4.294   7.447  15.638  1.00  0.00     0.027 C
BRANCH  10  12
HETATM   12  C8  UNL     1      -5.201   9.034  13.952  1.00  0.00     0.168 C
BRANCH  12  13
HETATM   13  O2  UNL     1      -4.176   9.865  14.399  1.00  0.00    -0.400 OA
ATOM     14  H2  UNL     1      -3.319   9.504  14.205  1.00  0.00     0.209 HD
ENDBRANCH  12  13
ENDBRANCH  10  12
ENDBRANCH   1   4
BRANCH   1  15
HETATM   15  N2  UNL     1      -3.899   1.995  13.232  1.00  0.00     0.105 N
HETATM   16  C11 UNL     1      -4.711   0.910  12.741  1.00  0.00     0.273 C
HETATM   17  C12 UNL     1      -3.861  -0.166  12.071  1.00  0.00     0.033 C
HETATM   18  C13 UNL     1      -2.634   0.479  11.531  1.00  0.00     0.047 C
HETATM   19  C14 UNL     1      -2.992   1.856  11.016  1.00  0.00     0.143 C
HETATM   20  C16 UNL     1      -3.574   2.771  12.025  1.00  0.00     0.316 C
BRANCH  19  21
HETATM   21  O3  UNL     1      -3.948   1.650  10.013  1.00  0.00    -0.382 OA
ATOM     22  H3  UNL     1      -4.375   2.490   9.888  1.00  0.00     0.210 HD
ENDBRANCH  19  21
BRANCH  19  23
HETATM   23  C15 UNL     1      -1.765   2.387  10.305  1.00  0.00     0.388 C
HETATM   24  F1  UNL     1      -0.698   2.423  11.217  1.00  0.00    -0.211 F
HETATM   25  F2  UNL     1      -1.353   1.575   9.268  1.00  0.00    -0.211 F
ENDBRANCH  19  23
ENDBRANCH   1  15
TORSDOF 7
ENDMDL