MODEL 5
REMARK VINA RESULT: -6.446972190      2.596      4.841
REMARK  4 active torsions:
REMARK  status: ('A' for Active; 'I' for Inactive)
REMARK    1  A    between atoms: C2_2  and  N1_3
REMARK       I    between atoms: N1_3  and  C3_5
REMARK       I    between atoms: C3_5  and  N4_21
REMARK    2  A    between atoms: N2_6  and  C4_8
REMARK    3  A    between atoms: C4_8  and  C5_9
REMARK       I    between atoms: N3_16  and  C12_17
REMARK    4  A    between atoms: C12_17  and  C13_19
ROOT
HETATM    1  N1  UNL     1      -2.009   6.297   9.790  1.00  0.00    -0.226 N
ATOM      2  H1  UNL     1      -2.209   7.125  10.351  1.00  0.00     0.177 HD
HETATM    3  C3  UNL     1      -1.785   5.055  10.439  1.00  0.00     0.682 C
HETATM    4  N2  UNL     1      -2.611   4.520  11.248  1.00  0.00    -0.223 N
ATOM      5  H2  UNL     1      -3.484   5.011  11.443  1.00  0.00     0.177 HD
HETATM    6  N4  UNL     1      -0.567   4.377  10.164  1.00  0.00    -0.126 N
ATOM      7  H4  UNL     1       0.239   4.464  10.782  1.00  0.00     0.197 HD
HETATM    8  C14 UNL     1      -0.518   3.584   9.007  1.00  0.00     0.196 C
HETATM    9  N5  UNL     1      -0.487   2.941   8.042  1.00  0.00    -0.171 NA
ENDROOT
BRANCH   1  10
HETATM   10  C2  UNL     1      -1.959   6.413   8.331  1.00  0.00     0.133 C
HETATM   11  C1  UNL     1      -3.234   5.873   7.752  1.00  0.00     0.027 C
ENDBRANCH   1  10
BRANCH   4  12
HETATM   12  C4  UNL     1      -2.374   3.251  11.904  1.00  0.00     0.169 C
BRANCH  12  13
HETATM   13  C5  UNL     1      -3.622   2.425  11.753  1.00  0.00     0.051 C
HETATM   14  C6  UNL     1      -4.568   3.200  10.842  1.00  0.00     0.041 C
HETATM   15  C7  UNL     1      -3.380   1.094  11.106  1.00  0.00     0.016 C
HETATM   16  C8  UNL     1      -1.999   0.553  11.332  1.00  0.00     0.013 C
HETATM   17  C9  UNL     1      -4.397   0.220  11.813  1.00  0.00     0.006 C
HETATM   18  C10 UNL     1      -4.120  -1.238  11.682  1.00  0.00     0.012 C
HETATM   19  C11 UNL     1      -4.224   0.722  13.252  1.00  0.00     0.131 C
HETATM   20  N3  UNL     1      -4.254   2.152  13.038  1.00  0.00    -0.340 N
HETATM   21  C12 UNL     1      -4.797   3.099  13.921  1.00  0.00     0.234 C
HETATM   22  O1  UNL     1      -4.769   4.311  13.636  1.00  0.00    -0.272 OA
BRANCH  21  23
HETATM   23  C13 UNL     1      -5.404   2.668  15.189  1.00  0.00     0.217 C
HETATM   24 CL1  UNL     1      -6.432   3.889  15.923  1.00  0.00    -0.121 Cl
ENDBRANCH  21  23
ENDBRANCH  12  13
ENDBRANCH   4  12
TORSDOF 4
ENDMDL