MODEL 2
REMARK VINA RESULT: -7.290322877      1.075      1.452
REMARK  6 active torsions:
REMARK  status: ('A' for Active; 'I' for Inactive)
REMARK    1  A    between atoms: C3_3  and  N1_5
REMARK    2  A    between atoms: N1_5  and  C5_7
REMARK    3  A    between atoms: C8_13  and  N3_14
REMARK    4  A    between atoms: N3_14  and  C9_16
REMARK    5  A    between atoms: C9_16  and  C10_17
REMARK    6  A    between atoms: C10_17  and  C11_18
ROOT
HETATM    1  C1  UNL     1      -0.346   3.660   7.828  1.00  0.00     0.014 C
HETATM    2  C2  UNL     1      -0.656   3.577   8.992  1.00  0.00    -0.092 C
HETATM    3  C3  UNL     1      -1.061   3.484  10.413  1.00  0.00     0.174 C
HETATM    4  C4  UNL     1      -0.007   4.266  11.202  1.00  0.00     0.046 C
ENDROOT
BRANCH   3   5
HETATM    5  N1  UNL     1      -1.048   2.098  10.760  1.00  0.00    -0.211 N
ATOM      6  H1  UNL     1      -0.176   1.589  10.620  1.00  0.00     0.179 HD
BRANCH   5   7
HETATM    7  C5  UNL     1      -2.046   1.436  11.235  1.00  0.00     0.681 A
HETATM    8  N2  UNL     1      -2.048   0.092  11.183  1.00  0.00    -0.181 N
HETATM    9  C6  UNL     1      -3.096  -0.579  11.683  1.00  0.00     0.122 A
ATOM     10  H2  UNL     1      -1.263  -0.411  10.768  1.00  0.00     0.185 HD
HETATM   11 CL1  UNL     1      -3.080  -2.330  11.605  1.00  0.00    -0.064 Cl
HETATM   12  C7  UNL     1      -4.140   0.129  12.236  1.00  0.00     0.091 A
HETATM   13  C8  UNL     1      -4.140   1.504  12.290  1.00  0.00     0.119 A
HETATM   14  N5  UNL     1      -3.057   2.143  11.771  1.00  0.00    -0.177 N
ATOM     15  H5  UNL     1      -3.011   3.162  11.789  1.00  0.00     0.185 HD
BRANCH  13  16
HETATM   16  N3  UNL     1      -5.101   2.185  12.801  1.00  0.00    -0.376 N
ATOM     17  H3  UNL     1      -6.072   1.904  12.670  1.00  0.00     0.161 HD
BRANCH  16  18
HETATM   18  C9  UNL     1      -4.763   3.363  13.568  1.00  0.00     0.123 C
BRANCH  18  19
HETATM   19  C10 UNL     1      -4.072   3.054  14.870  1.00  0.00     0.055 C
BRANCH  19  20
HETATM   20  C11 UNL     1      -4.982   2.977  16.043  1.00  0.00     0.227 C
HETATM   21  C12 UNL     1      -6.440   2.985  15.758  1.00  0.00     0.074 C
HETATM   22  C13 UNL     1      -7.028   2.457  17.078  1.00  0.00     0.200 C
HETATM   23  F1  UNL     1      -7.968   1.477  16.812  1.00  0.00    -0.248 F
HETATM   24  C14 UNL     1      -5.837   1.875  17.805  1.00  0.00     0.309 C
HETATM   25  N4  UNL     1      -4.791   1.755  16.809  1.00  0.00     0.091 N
HETATM   26  C15 UNL     1      -4.946   0.580  16.010  1.00  0.00     0.310 C
ENDBRANCH  19  20
ENDBRANCH  18  19
ENDBRANCH  16  18
ENDBRANCH  13  16
ENDBRANCH   5   7
ENDBRANCH   3   5
TORSDOF 6
ENDMDL