MODEL 1
REMARK VINA RESULT: -6.962768391      0.000      0.000
REMARK  7 active torsions:
REMARK  status: ('A' for Active; 'I' for Inactive)
REMARK    1  A    between atoms: C2_2  and  N1_3
REMARK    2  A    between atoms: N1_3  and  C3_4
REMARK    3  A    between atoms: N1_3  and  C6_13
REMARK    4  A    between atoms: C3_4  and  N2_6
REMARK       I    between atoms: N2_6  and  C4_8
REMARK    5  A    between atoms: C4_8  and  C5_10
REMARK    6  A    between atoms: C5_10  and  O2_11
REMARK    7  A    between atoms: C9_16  and  C10_17
ROOT
HETATM    1  N1  UNL     1      -4.201   4.216  13.530  1.00  0.00    -0.332 N
ENDROOT
BRANCH   1   2
HETATM    2  C2  UNL     1      -3.316   5.350  13.984  1.00  0.00     0.123 C
HETATM    3  C1  UNL     1      -1.884   4.942  14.003  1.00  0.00     0.026 C
ENDBRANCH   1   2
BRANCH   1   4
HETATM    4  C3  UNL     1      -4.044   3.871  12.180  1.00  0.00     0.178 C
HETATM    5  S1  UNL     1      -4.213   5.085  11.029  1.00  0.00    -0.041 SA
BRANCH   4   6
HETATM    6  N2  UNL     1      -3.759   2.606  11.630  1.00  0.00    -0.302 N
HETATM    7  C4  UNL     1      -4.775   1.706  11.229  1.00  0.00     0.247 C
HETATM    8  O1  UNL     1      -5.981   1.991  11.342  1.00  0.00    -0.271 OA
ATOM      9  H2  UNL     1      -2.784   2.328  11.517  1.00  0.00     0.171 HD
BRANCH   7  10
HETATM   10  C5  UNL     1      -4.455   0.366  10.647  1.00  0.00     0.267 C
BRANCH  10  11
HETATM   11  O2  UNL     1      -4.466   0.356   9.276  1.00  0.00    -0.392 OA
ATOM     12  H2  UNL     1      -4.211  -0.481   8.906  1.00  0.00     0.210 HD
ENDBRANCH  10  11
ENDBRANCH   7  10
ENDBRANCH   4   6
ENDBRANCH   1   4
BRANCH   1  13
HETATM   13  C6  UNL     1      -5.007   3.726  14.570  1.00  0.00     0.225 C
HETATM   14  C7  UNL     1      -6.005   4.559  15.251  1.00  0.00     0.054 C
HETATM   15  C8  UNL     1      -6.601   3.768  16.435  1.00  0.00     0.013 C
HETATM   16  C9  UNL     1      -6.219   2.305  16.324  1.00  0.00     0.043 C
HETATM   17  C11 UNL     1      -4.742   2.143  16.219  1.00  0.00     0.177 C
HETATM   18  O3  UNL     1      -4.152   3.220  15.599  1.00  0.00    -0.366 OA
BRANCH  16  19
HETATM   19  C10 UNL     1      -6.786   1.630  17.566  1.00  0.00     0.184 C
HETATM   20 CL1  UNL     1      -6.429   2.565  19.034  1.00  0.00    -0.108 Cl
HETATM   21 CL2  UNL     1      -6.147  -0.012  17.773  1.00  0.00    -0.108 Cl
ENDBRANCH  16  19
ENDBRANCH   1  13
TORSDOF 7
ENDMDL