MODEL 3
REMARK VINA RESULT: -6.634166044      4.164      5.880
REMARK  5 active torsions:
REMARK  status: ('A' for Active; 'I' for Inactive)
REMARK    1  A    between atoms: C12_14  and  O3_15
REMARK    2  A    between atoms: C12_14  and  C13_17
REMARK    3  A    between atoms: C13_17  and  C14_18
REMARK    4  A    between atoms: C14_18  and  C15_19
REMARK    5  A    between atoms: N1_20  and  N2_22
ROOT
HETATM    1  C1  UNL     1      -1.745   4.599  14.314  1.00  0.00     0.047 C
HETATM    2  C2  UNL     1      -3.073   4.960  13.626  1.00  0.00     0.068 C
HETATM    3  C3  UNL     1      -3.994   5.399  14.782  1.00  0.00     0.047 C
HETATM    4  O1  UNL     1      -2.831   6.110  12.884  1.00  0.00    -0.310 OA
HETATM    5  C4  UNL     1      -2.086   6.248  11.740  1.00  0.00     0.259 C
HETATM    6  O2  UNL     1      -1.698   7.435  11.530  1.00  0.00    -0.265 OA
HETATM    7  C5  UNL     1      -1.643   5.308  10.704  1.00  0.00     0.112 C
HETATM    8  C6  UNL     1      -1.965   3.865  11.045  1.00  0.00     0.022 C
HETATM    9  C7  UNL     1      -3.353   3.644  11.466  1.00  0.00    -0.006 C
HETATM   10  C8  UNL     1      -4.261   4.616  10.688  1.00  0.00     0.019 C
HETATM   11  C9  UNL     1      -3.601   3.782  12.949  1.00  0.00     0.031 C
HETATM   12  C10 UNL     1      -5.080   3.573  13.018  1.00  0.00     0.011 C
HETATM   13  C11 UNL     1      -5.284   2.416  12.067  1.00  0.00     0.039 C
HETATM   14  C12 UNL     1      -3.959   2.301  11.253  1.00  0.00     0.066 C
ENDROOT
BRANCH  14  15
HETATM   15  O3  UNL     1      -4.417   2.164   9.917  1.00  0.00    -0.389 OA
ATOM     16  H3  UNL     1      -5.350   2.337   9.863  1.00  0.00     0.210 HD
ENDBRANCH  14  15
BRANCH  14  17
HETATM   17  C13 UNL     1      -3.305   1.071  11.675  1.00  0.00     0.043 C
BRANCH  17  18
HETATM   18  C14 UNL     1      -4.035   0.038  12.445  1.00  0.00     0.049 C
BRANCH  18  19
HETATM   19  C15 UNL     1      -3.902  -1.321  11.835  1.00  0.00     0.081 C
HETATM   20  N1  UNL     1      -2.748  -1.850  11.758  1.00  0.00    -0.302 N
ATOM     21  H1  UNL     1      -1.962  -1.311  12.123  1.00  0.00     0.187 HD
BRANCH  20  22
HETATM   22  N2  UNL     1      -2.469  -3.094  11.222  1.00  0.00    -0.250 N
HETATM   23  N3  UNL     1      -3.227  -4.061  11.521  1.00  0.00    -0.331 N
ATOM     24  H32 UNL     1      -4.021  -3.911  12.142  1.00  0.00     0.178 HD
ATOM     25  H31 UNL     1      -3.021  -4.979  11.125  1.00  0.00     0.178 HD
ATOM     26  H2  UNL     1      -1.671  -3.228  10.602  1.00  0.00     0.207 HD
ENDBRANCH  20  22
ENDBRANCH  18  19
ENDBRANCH  17  18
ENDBRANCH  14  17
TORSDOF 5
ENDMDL