MODEL 5
REMARK VINA RESULT: -6.274399690      3.202      6.139
REMARK  5 active torsions:
REMARK  status: ('A' for Active; 'I' for Inactive)
REMARK    1  A    between atoms: C2_2  and  C3_3
REMARK    2  A    between atoms: C3_3  and  C4_4
REMARK    3  A    between atoms: C4_4  and  N1_5
REMARK    4  A    between atoms: C8_9  and  N2_10
REMARK    5  A    between atoms: C16_21  and  O1_22
ROOT
HETATM    1  N1  UNL     1      -3.513   2.421  12.787  1.00  0.00     0.091 N
HETATM    2  C5  UNL     1      -3.409   3.687  12.142  1.00  0.00     0.273 C
HETATM    3  C6  UNL     1      -4.335   4.750  12.675  1.00  0.00     0.040 C
HETATM    4  C7  UNL     1      -4.310   4.781  14.178  1.00  0.00     0.057 C
HETATM    5  C8  UNL     1      -5.513   5.485  14.787  1.00  0.00     0.234 C
HETATM    6  C13 UNL     1      -6.451   4.334  14.854  1.00  0.00     0.027 A
HETATM    7  C14 UNL     1      -6.852   3.405  15.819  1.00  0.00     0.015 A
HETATM    8  C15 UNL     1      -5.451   3.507  15.766  1.00  0.00     0.029 A
HETATM    9  C16 UNL     1      -4.433   3.342  14.726  1.00  0.00     0.094 C
HETATM   10  C17 UNL     1      -4.651   2.327  13.682  1.00  0.00     0.310 C
ENDROOT
BRANCH   5  11
HETATM   11  N2  UNL     1      -5.899   6.574  13.987  1.00  0.00     0.097 N
HETATM   12  C9  UNL     1      -5.580   7.824  14.630  1.00  0.00     0.300 C
HETATM   13  C10 UNL     1      -6.845   8.263  15.375  1.00  0.00     0.262 C
HETATM   14  N3  UNL     1      -7.756   8.801  14.402  1.00  0.00    -0.072 N
HETATM   15  C11 UNL     1      -7.639   8.036  13.181  1.00  0.00     0.262 C
ATOM     16  H32 UNL     1      -8.716   8.841  14.746  1.00  0.00     0.277 HD
ATOM     17  H31 UNL     1      -7.619   9.800  14.250  1.00  0.00     0.277 HD
HETATM   18  C12 UNL     1      -7.231   6.585  13.475  1.00  0.00     0.300 C
ENDBRANCH   5  11
BRANCH   9  19
HETATM   19  O1  UNL     1      -3.178   3.060  15.305  1.00  0.00    -0.387 OA
ATOM     20  H1  UNL     1      -2.543   3.473  14.732  1.00  0.00     0.210 HD
ENDBRANCH   9  19
BRANCH   1  21
HETATM   21  C4  UNL     1      -3.397   1.289  11.920  1.00  0.00     0.272 C
BRANCH  21  22
HETATM   22  C3  UNL     1      -4.073   0.107  12.583  1.00  0.00     0.030 C
BRANCH  22  23
HETATM   23  C2  UNL     1      -4.346  -0.912  11.489  1.00  0.00    -0.003 C
HETATM   24  C1  UNL     1      -3.209  -1.933  11.523  1.00  0.00     0.005 C
ENDBRANCH  22  23
ENDBRANCH  21  22
ENDBRANCH   1  21
TORSDOF 5
ENDMDL