MODEL 3
REMARK VINA RESULT: -6.251327794      2.330      6.164
REMARK  4 active torsions:
REMARK  status: ('A' for Active; 'I' for Inactive)
REMARK    1  A    between atoms: N1_5  and  C5_6
REMARK    2  A    between atoms: C5_6  and  C6_7
REMARK    3  A    between atoms: C6_7  and  C7_8
REMARK    4  A    between atoms: C7_8  and  N2_9
REMARK       I    between atoms: C8_11  and  N4_13
ROOT
HETATM    1  C6  UNL     1      -6.171   3.163  15.849  1.00  0.00     0.050 C
ENDROOT
BRANCH   1   2
HETATM    2  C5  UNL     1      -6.173   4.160  14.742  1.00  0.00     0.274 C
BRANCH   2   3
HETATM    3  N1  UNL     1      -5.349   5.284  15.032  1.00  0.00     0.092 N
HETATM    4  C4  UNL     1      -6.104   6.488  15.292  1.00  0.00     0.310 C
HETATM    5  C2  UNL     1      -6.267   7.481  14.237  1.00  0.00     0.144 C
HETATM    6  C1  UNL     1      -6.412   8.856  14.926  1.00  0.00     0.048 C
HETATM    7  C3  UNL     1      -7.545   7.317  13.437  1.00  0.00     0.048 C
HETATM    8  N5  UNL     1      -5.146   7.609  13.332  1.00  0.00    -0.064 N
HETATM    9  C15 UNL     1      -4.878   6.242  12.864  1.00  0.00     0.263 C
ATOM     10  H52 UNL     1      -5.297   8.282  12.580  1.00  0.00     0.278 HD
ATOM     11  H51 UNL     1      -4.335   8.072  13.742  1.00  0.00     0.278 HD
HETATM   12  C14 UNL     1      -4.307   5.499  14.045  1.00  0.00     0.300 C
ENDBRANCH   2   3
ENDBRANCH   1   2
BRANCH   1  13
HETATM   13  C7  UNL     1      -4.828   2.427  15.773  1.00  0.00     0.124 C
BRANCH  13  14
HETATM   14  N2  UNL     1      -4.548   1.983  14.488  1.00  0.00    -0.364 N
HETATM   15  C8  UNL     1      -4.463   0.827  13.999  1.00  0.00     0.186 C
HETATM   16  N3  UNL     1      -4.661  -0.336  14.782  1.00  0.00    -0.064 NA
HETATM   17  N4  UNL     1      -4.172   0.671  12.615  1.00  0.00    -0.356 N
HETATM   18  C9  UNL     1      -4.813   1.556  11.673  1.00  0.00     0.125 C
HETATM   19  C13 UNL     1      -3.265  -0.342  12.156  1.00  0.00     0.125 C
HETATM   20  C10 UNL     1      -4.311   1.428  10.278  1.00  0.00     0.020 C
HETATM   21  C11 UNL     1      -3.914   0.067   9.835  1.00  0.00     0.003 C
HETATM   22  C12 UNL     1      -3.952  -0.971  10.930  1.00  0.00     0.020 C
ATOM     23  H2  UNL     1      -4.380   2.732  13.817  1.00  0.00     0.162 HD
ENDBRANCH  13  14
ENDBRANCH   1  13
TORSDOF 4
ENDMDL