MODEL 1
REMARK VINA RESULT: -7.117842114      0.000      0.000
REMARK  6 active torsions:
REMARK  status: ('A' for Active; 'I' for Inactive)
REMARK       I    between atoms: C1_2  and  N1_3
REMARK    1  A    between atoms: C1_2  and  C5_7
REMARK    2  A    between atoms: C5_7  and  C6_8
REMARK    3  A    between atoms: C6_8  and  C7_9
REMARK    4  A    between atoms: C7_9  and  C8_10
REMARK    5  A    between atoms: C8_10  and  O2_11
REMARK    6  A    between atoms: C17_21  and  O3_22
ROOT
HETATM    1  C5  UNL     1      -4.960   2.817  15.127  1.00  0.00     0.045 C
HETATM    2  C9  UNL     1      -6.073   3.537  14.339  1.00  0.00     0.020 C
HETATM    3  C10 UNL     1      -5.905   4.957  14.798  1.00  0.00     0.007 C
HETATM    4  C11 UNL     1      -4.479   5.192  15.075  1.00  0.00     0.002 C
HETATM    5  C12 UNL     1      -3.853   3.795  15.198  1.00  0.00     0.009 C
HETATM    6  C13 UNL     1      -3.112   4.062  13.904  1.00  0.00     0.018 C
HETATM    7  C14 UNL     1      -3.537   5.493  14.001  1.00  0.00    -0.010 C
HETATM    8  C15 UNL     1      -2.461   6.501  14.226  1.00  0.00     0.015 C
HETATM    9  C16 UNL     1      -2.550   6.821  12.729  1.00  0.00     0.033 C
HETATM   10  C17 UNL     1      -3.947   6.185  12.774  1.00  0.00     0.127 C
ENDROOT
BRANCH   1  11
HETATM   11  C1  UNL     1      -4.600   1.546  14.456  1.00  0.00     0.229 C
HETATM   12  O1  UNL     1      -4.185   0.538  15.129  1.00  0.00    -0.272 OA
HETATM   13  N1  UNL     1      -4.701   1.400  13.068  1.00  0.00    -0.351 N
HETATM   14  C2  UNL     1      -4.410   0.261  12.167  1.00  0.00     0.127 C
HETATM   15  C4  UNL     1      -5.082   2.112  11.859  1.00  0.00     0.127 C
HETATM   16  C3  UNL     1      -4.020   1.274  11.131  1.00  0.00     0.040 C
ENDBRANCH   1  11
BRANCH   1  17
HETATM   17  C6  UNL     1      -5.463   2.494  16.505  1.00  0.00     0.022 C
BRANCH  17  18
HETATM   18  C7  UNL     1      -6.957   2.402  16.489  1.00  0.00     0.027 C
BRANCH  18  19
HETATM   19  C8  UNL     1      -7.403   1.166  17.296  1.00  0.00     0.164 C
BRANCH  19  20
HETATM   20  O2  UNL     1      -6.610   0.120  16.849  1.00  0.00    -0.401 OA
ATOM     21  H2  UNL     1      -7.170  -0.646  16.853  1.00  0.00     0.209 HD
ENDBRANCH  19  20
ENDBRANCH  18  19
ENDBRANCH  17  18
ENDBRANCH   1  17
BRANCH  10  22
HETATM   22  O3  UNL     1      -4.889   7.188  12.857  1.00  0.00    -0.395 OA
ATOM     23  H3  UNL     1      -4.678   8.047  12.510  1.00  0.00     0.210 HD
ENDBRANCH  10  22
TORSDOF 6
ENDMDL