MODEL 2
REMARK VINA RESULT: -6.271846962      2.039      3.012
REMARK  7 active torsions:
REMARK  status: ('A' for Active; 'I' for Inactive)
REMARK    1  A    between atoms: C2_2  and  N1_3
REMARK    2  A    between atoms: N1_3  and  C3_4
REMARK    3  A    between atoms: N1_3  and  C9_16
REMARK    4  A    between atoms: C3_4  and  C4_5
REMARK    5  A    between atoms: C4_5  and  O1_6
REMARK    6  A    between atoms: C4_5  and  C5_8
REMARK    7  A    between atoms: C9_16  and  N4_18
ROOT
HETATM    1  C3  UNL     1      -4.692   2.446  13.574  1.00  0.00     0.164 C
ENDROOT
BRANCH   1   2
HETATM    2  N1  UNL     1      -3.648   3.206  12.934  1.00  0.00    -0.356 N
BRANCH   2   3
HETATM    3  C2  UNL     1      -3.116   4.409  13.503  1.00  0.00     0.120 C
HETATM    4  C1  UNL     1      -3.944   5.098  14.543  1.00  0.00     0.026 C
ENDBRANCH   2   3
BRANCH   2   5
HETATM    5  C9  UNL     1      -3.219   2.754  11.669  1.00  0.00     0.172 C
HETATM    6  S1  UNL     1      -2.530   3.977  10.716  1.00  0.00    -0.041 SA
BRANCH   5   7
HETATM    7  N4  UNL     1      -3.254   1.502  11.058  1.00  0.00    -0.358 N
HETATM    8  C10 UNL     1      -2.180   0.546  11.518  1.00  0.00     0.125 C
HETATM    9  C11 UNL     1      -2.414  -0.818  10.963  1.00  0.00     0.020 C
HETATM   10  C12 UNL     1      -3.820  -1.327  11.107  1.00  0.00     0.003 C
HETATM   11  C13 UNL     1      -4.833  -0.247  10.850  1.00  0.00     0.020 C
HETATM   12  C14 UNL     1      -4.101   0.892  10.114  1.00  0.00     0.125 C
ENDBRANCH   5   7
ENDBRANCH   2   5
ENDBRANCH   1   2
BRANCH   1  13
HETATM   13  C4  UNL     1      -4.393   1.450  14.599  1.00  0.00     0.203 C
BRANCH  13  14
HETATM   14  O1  UNL     1      -4.470   0.157  14.149  1.00  0.00    -0.386 OA
ATOM     15  H1  UNL     1      -4.011  -0.467  14.700  1.00  0.00     0.210 HD
ENDBRANCH  13  14
BRANCH  13  16
HETATM   16  C5  UNL     1      -5.352   1.528  15.762  1.00  0.00     0.103 C
HETATM   17  N2  UNL     1      -6.147   2.520  15.927  1.00  0.00    -0.378 N
HETATM   18  C6  UNL     1      -7.077   2.625  17.031  1.00  0.00     0.122 C
ATOM     19  H2  UNL     1      -6.122   3.277  15.245  1.00  0.00     0.160 HD
HETATM   20  C7  UNL     1      -7.435   1.271  17.598  1.00  0.00     0.039 C
HETATM   21  C8  UNL     1      -6.179   0.474  17.878  1.00  0.00     0.122 C
HETATM   22  N3  UNL     1      -5.373   0.469  16.699  1.00  0.00    -0.378 N
ATOM     23  H3  UNL     1      -4.780  -0.342  16.523  1.00  0.00     0.160 HD
ENDBRANCH  13  16
ENDBRANCH   1  13
TORSDOF 7
ENDMDL