MODEL 4
REMARK VINA RESULT: -5.895427219      3.104      4.581
REMARK  7 active torsions:
REMARK  status: ('A' for Active; 'I' for Inactive)
REMARK    1  A    between atoms: C2_2  and  C4_4
REMARK    2  A    between atoms: N2_12  and  C11_13
REMARK    3  A    between atoms: C11_13  and  N3_15
REMARK    4  A    between atoms: N3_15  and  C12_17
REMARK    5  A    between atoms: C12_17  and  C13_18
REMARK    6  A    between atoms: C13_18  and  C14_19
REMARK    7  A    between atoms: C14_19  and  O1_20
ROOT
HETATM    1  C4  UNL     1      -5.348   2.120  16.558  1.00  0.00     0.025 C
HETATM    2  C5  UNL     1      -5.951   3.330  15.827  1.00  0.00     0.280 C
HETATM    3  N1  UNL     1      -5.104   3.446  14.608  1.00  0.00     0.108 N
HETATM    4  C6  UNL     1      -3.876   4.032  15.032  1.00  0.00     0.312 C
HETATM    5  C7  UNL     1      -5.101   2.095  14.245  1.00  0.00     0.330 C
HETATM    6  C8  UNL     1      -4.555   1.470  15.549  1.00  0.00     0.046 C
HETATM    7  C9  UNL     1      -4.688   0.061  15.163  1.00  0.00     0.029 C
HETATM    8  C10 UNL     1      -4.012   0.150  13.769  1.00  0.00     0.128 C
HETATM    9  N2  UNL     1      -4.251   1.510  13.331  1.00  0.00    -0.328 N
ENDROOT
BRANCH   9  10
HETATM   10  C11 UNL     1      -3.681   2.059  12.157  1.00  0.00     0.171 C
HETATM   11  S1  UNL     1      -4.612   2.355  10.820  1.00  0.00    -0.041 SA
BRANCH  10  12
HETATM   12  N3  UNL     1      -2.302   2.378  12.056  1.00  0.00    -0.367 N
ATOM     13  H3  UNL     1      -1.880   3.005  12.741  1.00  0.00     0.161 HD
BRANCH  12  14
HETATM   14  C12 UNL     1      -1.498   1.835  11.014  1.00  0.00     0.124 C
BRANCH  14  15
HETATM   15  C13 UNL     1      -0.824   2.978  10.249  1.00  0.00     0.046 C
BRANCH  15  16
HETATM   16  C14 UNL     1      -0.706   4.133  11.222  1.00  0.00     0.165 C
BRANCH  16  17
HETATM   17  O1  UNL     1       0.347   3.892  12.113  1.00  0.00    -0.401 OA
ATOM     18  H1  UNL     1       1.175   3.951  11.651  1.00  0.00     0.209 HD
ENDBRANCH  16  17
ENDBRANCH  15  16
ENDBRANCH  14  15
ENDBRANCH  12  14
ENDBRANCH  10  12
ENDBRANCH   9  10
BRANCH   1  19
HETATM   19  C2  UNL     1      -6.305   1.391  17.392  1.00  0.00    -0.016 C
HETATM   20  C1  UNL     1      -6.270   1.989  18.810  1.00  0.00     0.010 C
HETATM   21  C3  UNL     1      -7.719   1.314  16.980  1.00  0.00     0.010 C
ENDBRANCH   1  19
TORSDOF 7
ENDMDL