MODEL 4
REMARK VINA RESULT: -6.880753710      2.624      5.279
REMARK  5 active torsions:
REMARK  status: ('A' for Active; 'I' for Inactive)
REMARK    1  A    between atoms: C2_2  and  N1_4
REMARK    2  A    between atoms: N1_4  and  C4_6
REMARK    3  A    between atoms: C4_6  and  C5_7
REMARK    4  A    between atoms: C5_7  and  N2_8
REMARK    5  A    between atoms: N2_8  and  C6_10
REMARK       I    between atoms: N3_16  and  C12_18
REMARK       I    between atoms: C12_18  and  N6_23
ROOT
HETATM    1  C4  UNL     1      -5.328   2.708  15.077  1.00  0.00     0.111 C
HETATM    2  N3  UNL     1      -4.420   2.077  14.449  1.00  0.00    -0.178 N
ATOM      3  H3  UNL     1      -3.931   1.383  15.015  1.00  0.00     0.185 HD
HETATM    4  C12 UNL     1      -3.971   2.154  13.150  1.00  0.00     0.690 C
HETATM    5  N4  UNL     1      -3.223   3.106  12.740  1.00  0.00    -0.126 N
ATOM      6  H4  UNL     1      -2.915   3.121  11.767  1.00  0.00     0.197 HD
HETATM    7  C13 UNL     1      -2.824   4.117  13.602  1.00  0.00     0.196 C
HETATM    8  N5  UNL     1      -2.488   4.960  14.293  1.00  0.00    -0.171 NA
HETATM    9  N6  UNL     1      -4.312   1.168  12.198  1.00  0.00    -0.226 N
HETATM   10  C14 UNL     1      -4.243  -0.221  12.558  1.00  0.00     0.168 C
HETATM   11  C15 UNL     1      -4.719   1.546  10.880  1.00  0.00     0.168 C
ENDROOT
BRANCH   1  12
HETATM   12  N1  UNL     1      -5.556   2.396  16.432  1.00  0.00    -0.374 N
ATOM     13  H1  UNL     1      -5.172   2.995  17.162  1.00  0.00     0.161 HD
BRANCH  12  14
HETATM   14  C2  UNL     1      -6.325   1.239  16.790  1.00  0.00     0.074 C
HETATM   15  C1  UNL     1      -7.791   1.483  16.924  1.00  0.00     0.031 C
HETATM   16  C3  UNL     1      -5.828   0.693  18.137  1.00  0.00     0.031 C
ENDBRANCH  12  14
ENDBRANCH   1  12
BRANCH   1  17
HETATM   17  C5  UNL     1      -6.109   3.750  14.392  1.00  0.00     0.191 C
BRANCH  17  18
HETATM   18  N2  UNL     1      -6.314   4.936  15.135  1.00  0.00    -0.410 N
ATOM     19  H2  UNL     1      -6.760   4.905  16.052  1.00  0.00     0.154 HD
BRANCH  18  20
HETATM   20  C6  UNL     1      -5.888   6.167  14.581  1.00  0.00     0.077 C
HETATM   21  C7  UNL     1      -5.441   7.144  15.620  1.00  0.00     0.024 C
HETATM   22  C8  UNL     1      -6.178   8.475  15.460  1.00  0.00     0.002 C
HETATM   23  C9  UNL     1      -5.911   8.916  14.015  1.00  0.00     0.000 C
HETATM   24  C10 UNL     1      -6.765   8.022  13.124  1.00  0.00     0.002 C
HETATM   25  C11 UNL     1      -7.075   6.719  13.780  1.00  0.00     0.024 C
ENDBRANCH  18  20
ENDBRANCH  17  18
ENDBRANCH   1  17
TORSDOF 5
ENDMDL