MODEL 2
REMARK VINA RESULT: -6.203034232      1.770      1.864
REMARK  5 active torsions:
REMARK  status: ('A' for Active; 'I' for Inactive)
REMARK    1  A    between atoms: N1_2  and  C2_4
REMARK    2  A    between atoms: C2_4  and  N2_6
REMARK    3  A    between atoms: C5_9  and  N3_10
REMARK       I    between atoms: N3_10  and  C6_12
REMARK    4  A    between atoms: C6_12  and  C7_14
REMARK    5  A    between atoms: C11_18  and  O2_19
ROOT
HETATM    1  N2  UNL     1      -3.926   3.704  10.690  1.00  0.00    -0.356 N
HETATM    2  C3  UNL     1      -2.780   2.779  10.892  1.00  0.00     0.127 C
HETATM    3  C4  UNL     1      -2.691   2.399  12.327  1.00  0.00     0.047 C
HETATM    4  C5  UNL     1      -3.920   1.698  12.801  1.00  0.00     0.116 C
HETATM    5  C11 UNL     1      -5.052   1.924  11.862  1.00  0.00     0.161 C
HETATM    6  C13 UNL     1      -5.127   3.379  11.382  1.00  0.00     0.159 C
ENDROOT
BRANCH   4   7
HETATM    7  N3  UNL     1      -4.312   2.073  14.131  1.00  0.00    -0.354 N
HETATM    8  C6  UNL     1      -4.752   1.140  15.099  1.00  0.00     0.222 C
HETATM    9  O1  UNL     1      -4.803  -0.074  14.780  1.00  0.00    -0.273 OA
ATOM     10  H3  UNL     1      -4.271   3.059  14.390  1.00  0.00     0.163 HD
BRANCH   8  11
HETATM   11  C7  UNL     1      -5.152   1.544  16.464  1.00  0.00     0.078 C
HETATM   12  C8  UNL     1      -5.900   0.419  17.155  1.00  0.00     0.014 C
HETATM   13  C9  UNL     1      -7.006   1.388  17.559  1.00  0.00     0.002 C
HETATM   14  C10 UNL     1      -6.404   2.368  16.555  1.00  0.00     0.014 C
ENDBRANCH   8  11
ENDBRANCH   4   7
BRANCH   5  15
HETATM   15  O2  UNL     1      -5.073   1.114  10.757  1.00  0.00    -0.387 OA
HETATM   16  C12 UNL     1      -4.823  -0.225  11.027  1.00  0.00     0.202 C
ENDBRANCH   5  15
BRANCH   1  17
HETATM   17  C2  UNL     1      -3.745   4.819   9.846  1.00  0.00     0.169 C
HETATM   18  S1  UNL     1      -2.173   5.437   9.718  1.00  0.00    -0.041 SA
BRANCH  17  19
HETATM   19  N1  UNL     1      -4.688   5.492   9.092  1.00  0.00    -0.371 N
HETATM   20  C1  UNL     1      -5.483   6.624   9.467  1.00  0.00     0.148 C
ATOM     21  H1  UNL     1      -4.835   5.138   8.147  1.00  0.00     0.161 HD
ENDBRANCH  17  19
ENDBRANCH   1  17
TORSDOF 5
ENDMDL