MODEL 5
REMARK VINA RESULT: -6.016933554      3.438      7.433
REMARK  4 active torsions:
REMARK  status: ('A' for Active; 'I' for Inactive)
REMARK    1  A    between atoms: C2_2  and  C3_3
REMARK    2  A    between atoms: C3_3  and  C4_4
REMARK    3  A    between atoms: C4_4  and  N1_5
REMARK    4  A    between atoms: N4_14  and  C9_16
ROOT
HETATM    1  N1  UNL     1      -4.057   1.207  11.509  1.00  0.00     0.093 N
HETATM    2  C5  UNL     1      -5.015   2.028  12.174  1.00  0.00     0.279 C
HETATM    3  C6  UNL     1      -4.313   2.522  13.452  1.00  0.00     0.089 C
HETATM    4  C7  UNL     1      -2.998   3.127  13.036  1.00  0.00     0.039 A
HETATM    5  N2  UNL     1      -2.230   3.980  13.762  1.00  0.00    -0.303 N
ATOM      6  H2  UNL     1      -2.431   4.335  14.697  1.00  0.00     0.186 HD
HETATM    7  N3  UNL     1      -1.169   4.262  13.018  1.00  0.00    -0.285 N
ATOM      8  H3  UNL     1      -0.407   4.881  13.296  1.00  0.00     0.188 HD
HETATM    9  C8  UNL     1      -1.247   3.601  11.829  1.00  0.00     0.126 A
HETATM   10  N4  UNL     1      -0.404   3.628  10.854  1.00  0.00    -0.369 N
ATOM     11  H4  UNL     1      -0.566   3.089  10.004  1.00  0.00     0.161 HD
HETATM   12  C15 UNL     1      -2.411   2.871  11.826  1.00  0.00     0.039 A
HETATM   13  C16 UNL     1      -3.052   1.975  10.853  1.00  0.00     0.317 C
ENDROOT
BRANCH  10  14
HETATM   14  C9  UNL     1       0.767   4.440  11.004  1.00  0.00     0.092 C
HETATM   15  C10 UNL     1       1.850   4.185  10.007  1.00  0.00     0.070 C
HETATM   16  C11 UNL     1       3.033   5.031  10.358  1.00  0.00     0.064 C
HETATM   17  N5  UNL     1       2.853   6.000  11.359  1.00  0.00    -0.378 N
HETATM   18  C12 UNL     1       3.533   5.788  12.588  1.00  0.00     0.154 C
HETATM   19  C13 UNL     1       1.632   6.695  11.427  1.00  0.00     0.064 C
HETATM   20  C14 UNL     1       0.433   5.914  10.953  1.00  0.00     0.070 C
ENDBRANCH  10  14
BRANCH   1  21
HETATM   21  C4  UNL     1      -4.616   0.160  10.712  1.00  0.00     0.272 C
BRANCH  21  22
HETATM   22  C3  UNL     1      -4.546  -1.139  11.478  1.00  0.00     0.030 C
BRANCH  22  23
HETATM   23  C2  UNL     1      -3.141  -1.717  11.461  1.00  0.00    -0.003 C
HETATM   24  C1  UNL     1      -3.140  -3.222  11.495  1.00  0.00     0.005 C
ENDBRANCH  22  23
ENDBRANCH  21  22
ENDBRANCH   1  21
TORSDOF 4
ENDMDL