MODEL 4
REMARK VINA RESULT: -6.818470204      1.920      2.702
REMARK  5 active torsions:
REMARK  status: ('A' for Active; 'I' for Inactive)
REMARK       I    between atoms: N1_5  and  C5_6
REMARK    1  A    between atoms: C5_6  and  C6_8
REMARK    2  A    between atoms: C6_8  and  C7_9
REMARK    3  A    between atoms: C7_9  and  C8_10
REMARK    4  A    between atoms: C8_10  and  O2_11
REMARK    5  A    between atoms: C8_10  and  C9_13
ROOT
HETATM    1  C1  UNL     1      -4.734   5.644  10.441  1.00  0.00     0.016 C
HETATM    2  C2  UNL     1      -3.661   5.486  11.500  1.00  0.00    -0.031 C
HETATM    3  C3  UNL     1      -3.709   6.727  12.366  1.00  0.00     0.016 C
HETATM    4  C4  UNL     1      -4.017   4.306  12.367  1.00  0.00     0.134 C
HETATM    5  N1  UNL     1      -2.976   4.150  13.349  1.00  0.00    -0.351 N
HETATM    6  C5  UNL     1      -3.335   3.817  14.673  1.00  0.00     0.219 C
HETATM    7  O1  UNL     1      -2.433   3.686  15.521  1.00  0.00    -0.273 OA
HETATM    8  C12 UNL     1      -1.621   4.328  12.994  1.00  0.00     0.137 C
HETATM    9  C13 UNL     1      -1.326   4.552  11.566  1.00  0.00     0.002 C
HETATM   10  C14 UNL     1       0.023   5.234  11.349  1.00  0.00     0.040 C
HETATM   11  C15 UNL     1       0.346   4.774   9.936  1.00  0.00     0.233 C
HETATM   12  N2  UNL     1      -0.211   3.460   9.786  1.00  0.00    -0.074 N
ATOM     13  H21 UNL     1       0.504   2.741   9.670  1.00  0.00     0.277 HD
ATOM     14  H22 UNL     1      -0.681   3.332   8.890  1.00  0.00     0.277 HD
HETATM   15  C16 UNL     1      -1.076   3.208  10.908  1.00  0.00     0.243 C
HETATM   16  C17 UNL     1      -2.348   5.319  10.796  1.00  0.00     0.023 C
ENDROOT
BRANCH   6  17
HETATM   17  C6  UNL     1      -4.754   3.635  15.039  1.00  0.00     0.105 C
BRANCH  17  18
HETATM   18  C7  UNL     1      -5.085   2.179  15.200  1.00  0.00     0.041 C
BRANCH  18  19
HETATM   19  C8  UNL     1      -4.711   1.711  16.559  1.00  0.00     0.122 C
BRANCH  19  20
HETATM   20  O2  UNL     1      -3.632   0.824  16.396  1.00  0.00    -0.395 OA
ATOM     21  H2  UNL     1      -3.167   1.102  15.616  1.00  0.00     0.210 HD
ENDBRANCH  19  20
BRANCH  19  22
HETATM   22  C9  UNL     1      -5.830   1.051  17.330  1.00  0.00     0.014 A
HETATM   23  C10 UNL     1      -7.249   1.368  17.049  1.00  0.00     0.007 A
HETATM   24  C11 UNL     1      -6.560   1.844  18.309  1.00  0.00     0.007 A
ENDBRANCH  19  22
ENDBRANCH  18  19
ENDBRANCH  17  18
ENDBRANCH   6  17
TORSDOF 5
ENDMDL