MODEL 1
REMARK VINA RESULT: -6.877373452      0.000      0.000
REMARK  6 active torsions:
REMARK  status: ('A' for Active; 'I' for Inactive)
REMARK       I    between atoms: N1_2  and  C2_4
REMARK    1  A    between atoms: C2_4  and  C3_6
REMARK    2  A    between atoms: N2_10  and  C7_11
REMARK    3  A    between atoms: C7_11  and  C8_15
REMARK    4  A    between atoms: C8_15  and  O2_16
REMARK    5  A    between atoms: C8_15  and  C9_18
REMARK    6  A    between atoms: C8_15  and  C10_20
ROOT
HETATM    1  C7  UNL     1      -4.232   3.693  12.223  1.00  0.00     0.141 C
HETATM    2  N3  UNL     1      -4.289   4.686  11.409  1.00  0.00    -0.209 N
ATOM      3  H3  UNL     1      -4.479   5.585  11.853  1.00  0.00     0.201 HD
HETATM    4  F1  UNL     1      -4.147   4.743  10.112  1.00  0.00    -0.100 F
ENDROOT
BRANCH   1   5
HETATM    5  N2  UNL     1      -3.977   2.380  11.746  1.00  0.00    -0.353 N
HETATM    6  C3  UNL     1      -2.736   1.664  11.684  1.00  0.00     0.177 C
HETATM    7  C4  UNL     1      -3.052   0.248  11.302  1.00  0.00     0.037 C
HETATM    8  C5  UNL     1      -4.473   0.096  11.758  1.00  0.00     0.022 C
HETATM    9  C6  UNL     1      -5.003   1.450  11.225  1.00  0.00     0.125 C
BRANCH   6  10
HETATM   10  C2  UNL     1      -1.713   2.247  10.783  1.00  0.00     0.240 C
HETATM   11  N1  UNL     1      -0.817   3.189  11.343  1.00  0.00    -0.364 N
HETATM   12  C1  UNL     1       0.219   3.815  10.551  1.00  0.00     0.149 C
ATOM     13  H1  UNL     1      -0.903   3.432  12.330  1.00  0.00     0.161 HD
HETATM   14  O1  UNL     1      -1.640   1.927   9.592  1.00  0.00    -0.271 OA
ENDBRANCH   6  10
ENDBRANCH   1   5
BRANCH   1  15
HETATM   15  C8  UNL     1      -4.395   4.020  13.651  1.00  0.00     0.134 C
BRANCH  15  16
HETATM   16  O2  UNL     1      -4.909   5.327  13.737  1.00  0.00    -0.380 OA
ATOM     17  H2  UNL     1      -5.550   5.342  14.437  1.00  0.00     0.211 HD
ENDBRANCH  15  16
BRANCH  15  18
HETATM   18  C9  UNL     1      -3.116   4.074  14.451  1.00  0.00     0.161 C
HETATM   19 CL1  UNL     1      -2.028   5.378  14.013  1.00  0.00    -0.127 Cl
ENDBRANCH  15  18
BRANCH  15  20
HETATM   20  C10 UNL     1      -5.334   3.141  14.404  1.00  0.00     0.029 C
HETATM   21  C11 UNL     1      -6.318   3.787  15.298  1.00  0.00     0.008 C
HETATM   22  C12 UNL     1      -6.621   2.753  16.340  1.00  0.00     0.001 C
HETATM   23  C13 UNL     1      -5.355   1.973  16.486  1.00  0.00     0.001 C
HETATM   24  C14 UNL     1      -4.676   2.010  15.136  1.00  0.00     0.008 C
ENDBRANCH  15  20
ENDBRANCH   1  15
TORSDOF 6
ENDMDL