MODEL 2
REMARK VINA RESULT: -5.934700239      3.609      5.553
REMARK  6 active torsions:
REMARK  status: ('A' for Active; 'I' for Inactive)
REMARK    1  A    between atoms: O1_1  and  C1_3
REMARK    2  A    between atoms: C1_3  and  C2_4
REMARK    3  A    between atoms: C2_4  and  C3_5
REMARK    4  A    between atoms: C3_5  and  C4_6
REMARK    5  A    between atoms: C4_6  and  N1_7
REMARK    6  A    between atoms: N1_7  and  C5_9
ROOT
HETATM    1  C5  UNL     1      -4.317   2.717  14.298  1.00  0.00     0.678 A
HETATM    2  N2  UNL     1      -4.507   1.482  13.788  1.00  0.00    -0.184 N
ATOM      3  H2  UNL     1      -5.107   0.837  14.303  1.00  0.00     0.185 HD
HETATM    4  C6  UNL     1      -3.955   1.055  12.648  1.00  0.00     0.114 A
HETATM    5 BR1  UNL     1      -4.220  -0.685  11.928  1.00  0.00    -0.029 Br
HETATM    6  C7  UNL     1      -3.148   1.936  11.963  1.00  0.00     0.061 A
HETATM    7 BR2  UNL     1      -2.300   1.467  10.333  1.00  0.00    -0.047 Br
HETATM    8  C8  UNL     1      -2.922   3.228  12.452  1.00  0.00     0.128 A
HETATM    9  N3  UNL     1      -3.524   3.553  13.604  1.00  0.00    -0.201 N
ATOM     10  H3  UNL     1      -3.372   4.490  13.978  1.00  0.00     0.183 HD
ENDROOT
BRANCH   1  11
HETATM   11  N1  UNL     1      -4.882   3.082  15.417  1.00  0.00    -0.226 N
ATOM     12  H1  UNL     1      -4.323   3.303  16.241  1.00  0.00     0.177 HD
BRANCH  11  13
HETATM   13  C4  UNL     1      -6.326   3.161  15.451  1.00  0.00     0.138 C
BRANCH  13  14
HETATM   14  C3  UNL     1      -6.867   2.818  16.798  1.00  0.00     0.022 C
BRANCH  14  15
HETATM   15  C2  UNL     1      -7.300   1.356  16.852  1.00  0.00     0.028 C
BRANCH  15  16
HETATM   16  C1  UNL     1      -6.158   0.479  17.323  1.00  0.00     0.164 C
BRANCH  16  17
HETATM   17  O1  UNL     1      -5.518  -0.064  16.220  1.00  0.00    -0.401 OA
ATOM     18  H1  UNL     1      -4.600   0.177  16.243  1.00  0.00     0.209 HD
ENDBRANCH  16  17
ENDBRANCH  15  16
ENDBRANCH  14  15
ENDBRANCH  13  14
ENDBRANCH  11  13
ENDBRANCH   1  11
TORSDOF 6
ENDMDL