MODEL 4
REMARK VINA RESULT: -6.041928780      3.236      6.549
REMARK  5 active torsions:
REMARK  status: ('A' for Active; 'I' for Inactive)
REMARK    1  A    between atoms: N2_10  and  C6_11
REMARK    2  A    between atoms: C6_11  and  C7_12
REMARK    3  A    between atoms: C7_12  and  C8_13
REMARK    4  A    between atoms: C8_13  and  C9_14
REMARK    5  A    between atoms: C12_18  and  O2_19
ROOT
HETATM    1  C6  UNL     1      -6.432   3.929  15.244  1.00  0.00     0.275 C
ENDROOT
BRANCH   1   2
HETATM    2  N2  UNL     1      -5.548   3.220  16.086  1.00  0.00     0.122 N
HETATM    3  C2  UNL     1      -4.510   2.467  15.490  1.00  0.00     0.247 C
HETATM    4  C1  UNL     1      -3.203   3.174  15.279  1.00  0.00     0.069 C
HETATM    5 CL1  UNL     1      -5.012   1.853  13.869  1.00  0.00    -0.084 Cl
HETATM    6  C3  UNL     1      -4.144   1.230  16.339  1.00  0.00     0.180 C
HETATM    7  N1  UNL     1      -5.328   0.407  16.346  1.00  0.00    -0.356 N
HETATM    8  C4  UNL     1      -6.529   1.072  16.703  1.00  0.00     0.246 C
ATOM      9  H1  UNL     1      -5.303  -0.586  16.110  1.00  0.00     0.162 HD
HETATM   10  O1  UNL     1      -7.638   0.528  16.692  1.00  0.00    -0.272 OA
HETATM   11  C5  UNL     1      -6.296   2.512  17.092  1.00  0.00     0.377 C
ENDBRANCH   1   2
BRANCH   1  12
HETATM   12  C7  UNL     1      -6.179   5.409  15.088  1.00  0.00     0.032 C
BRANCH  12  13
HETATM   13  C8  UNL     1      -6.209   5.853  13.667  1.00  0.00     0.027 C
BRANCH  13  14
HETATM   14  C9  UNL     1      -4.838   6.127  13.150  1.00  0.00     0.037 C
HETATM   15 CL2  UNL     1      -4.788   7.510  12.030  1.00  0.00    -0.119 Cl
HETATM   16  C10 UNL     1      -4.230   4.955  12.442  1.00  0.00     0.028 C
HETATM   17  C11 UNL     1      -2.871   5.309  11.875  1.00  0.00     0.033 C
HETATM   18  C12 UNL     1      -1.988   6.087  12.778  1.00  0.00     0.118 C
HETATM   19  C13 UNL     1      -2.666   7.033  13.717  1.00  0.00     0.033 C
HETATM   20  C14 UNL     1      -3.886   6.418  14.332  1.00  0.00     0.028 C
BRANCH  18  21
HETATM   21  O2  UNL     1      -1.083   5.296  13.484  1.00  0.00    -0.396 OA
ATOM     22  H2  UNL     1      -0.800   4.527  13.004  1.00  0.00     0.210 HD
ENDBRANCH  18  21
ENDBRANCH  13  14
ENDBRANCH  12  13
ENDBRANCH   1  12
TORSDOF 5
ENDMDL