MODEL 5
REMARK VINA RESULT: -5.254753636      1.197      1.366
REMARK  4 active torsions:
REMARK  status: ('A' for Active; 'I' for Inactive)
REMARK    1  A    between atoms: C4_8  and  C5_9
REMARK    2  A    between atoms: C6_12  and  C7_13
REMARK    3  A    between atoms: C7_13  and  C8_14
REMARK    4  A    between atoms: C8_14  and  O2_15
ROOT
HETATM    1  O1  UNL     1      -2.160   0.937   9.791  1.00  0.00    -0.296 OA
HETATM    2  C1  UNL     1      -2.340   1.450  10.833  1.00  0.00     0.153 C
HETATM    3  C2  UNL     1      -1.319   2.444  11.276  1.00  0.00     0.101 C
HETATM    4  C3  UNL     1      -2.082   3.772  11.329  1.00  0.00     0.147 C
HETATM    5  N1  UNL     1      -3.477   3.520  11.159  1.00  0.00    -0.334 N
ATOM      6  H1  UNL     1      -4.042   4.050  10.496  1.00  0.00     0.180 HD
HETATM    7  N2  UNL     1      -4.019   2.521  11.942  1.00  0.00    -0.297 N
HETATM    8  C4  UNL     1      -4.965   2.840  12.872  1.00  0.00     0.110 C
HETATM    9  C6  UNL     1      -3.456   1.232  11.753  1.00  0.00     0.178 C
ENDROOT
BRANCH   8  10
HETATM   10  C5  UNL     1      -4.633   2.888  14.337  1.00  0.00     0.169 C
HETATM   11 BR1  UNL     1      -3.559   4.518  14.631  1.00  0.00    -0.073 Br
HETATM   12 BR2  UNL     1      -6.115   3.044  15.525  1.00  0.00    -0.073 Br
ENDBRANCH   8  10
BRANCH   9  13
HETATM   13  C7  UNL     1      -4.404   0.142  11.500  1.00  0.00     0.061 C
BRANCH  13  14
HETATM   14  C8  UNL     1      -4.089  -1.247  11.878  1.00  0.00     0.166 C
BRANCH  14  15
HETATM   15  O2  UNL     1      -3.078  -1.826  11.150  1.00  0.00    -0.401 OA
ATOM     16  H2  UNL     1      -2.222  -1.789  11.559  1.00  0.00     0.209 HD
ENDBRANCH  14  15
ENDBRANCH  13  14
ENDBRANCH   9  13
TORSDOF 4
ENDMDL