MODEL 3
REMARK VINA RESULT: -6.261657991      3.606      5.140
REMARK  6 active torsions:
REMARK  status: ('A' for Active; 'I' for Inactive)
REMARK    1  A    between atoms: C2_4  and  C3_5
REMARK    2  A    between atoms: C2_4  and  N3_16
REMARK    3  A    between atoms: C3_5  and  N2_6
REMARK    4  A    between atoms: N2_6  and  C4_9
REMARK    5  A    between atoms: C12_19  and  O1_20
REMARK    6  A    between atoms: C12_19  and  C13_22
ROOT
HETATM    1  C1  UNL     1      -1.273   2.736  11.355  1.00  0.00     0.147 C
HETATM    2  N1  UNL     1      -2.511   2.346  11.888  1.00  0.00    -0.383 N
ATOM      3  H1  UNL     1      -2.531   1.366  12.168  1.00  0.00     0.160 HD
HETATM    4  C2  UNL     1      -3.600   2.936  12.099  1.00  0.00     0.100 C
ENDROOT
BRANCH   4   5
HETATM    5  C3  UNL     1      -4.772   2.201  12.703  1.00  0.00     0.308 C
BRANCH   5   6
HETATM    6  N2  UNL     1      -4.310   1.519  13.866  1.00  0.00    -0.060 N
ATOM      7  H22 UNL     1      -4.517   0.522  13.808  1.00  0.00     0.278 HD
ATOM      8  H21 UNL     1      -3.291   1.480  13.883  1.00  0.00     0.278 HD
BRANCH   6   9
HETATM    9  C4  UNL     1      -4.821   2.075  15.092  1.00  0.00     0.125 C
HETATM   10  C5  UNL     1      -3.791   3.046  15.625  1.00  0.00     0.046 C
HETATM   11  C6  UNL     1      -5.039   1.030  16.162  1.00  0.00     0.041 C
HETATM   12  C7  UNL     1      -5.932   1.787  17.158  1.00  0.00     0.040 C
HETATM   13  C8  UNL     1      -6.805   2.670  16.287  1.00  0.00     0.172 C
HETATM   14  F1  UNL     1      -6.970   3.922  16.841  1.00  0.00    -0.249 F
HETATM   15  C9  UNL     1      -6.150   2.701  14.924  1.00  0.00     0.075 C
ENDBRANCH   6   9
ENDBRANCH   5   6
ENDBRANCH   4   5
BRANCH   4  16
HETATM   16  N3  UNL     1      -3.792   4.289  11.763  1.00  0.00    -0.369 N
HETATM   17  C10 UNL     1      -3.476   5.277  12.770  1.00  0.00     0.127 C
HETATM   18  C11 UNL     1      -3.629   6.682  12.259  1.00  0.00     0.059 C
HETATM   19  C12 UNL     1      -4.955   6.773  11.547  1.00  0.00     0.073 C
HETATM   20  C14 UNL     1      -4.850   5.978  10.294  1.00  0.00     0.059 C
HETATM   21  C15 UNL     1      -4.263   4.616  10.447  1.00  0.00     0.127 C
BRANCH  19  22
HETATM   22  O1  UNL     1      -5.974   6.350  12.404  1.00  0.00    -0.389 OA
ATOM     23  H1  UNL     1      -6.763   6.850  12.230  1.00  0.00     0.210 HD
ENDBRANCH  19  22
BRANCH  19  24
HETATM   24  C13 UNL     1      -5.272   8.209  11.196  1.00  0.00     0.152 C
HETATM   25 CL1  UNL     1      -7.012   8.522  11.280  1.00  0.00    -0.127 Cl
ENDBRANCH  19  24
ENDBRANCH   4  16
TORSDOF 6
ENDMDL