MODEL 1
REMARK VINA RESULT: -6.222125475      0.000      0.000
REMARK  5 active torsions:
REMARK  status: ('A' for Active; 'I' for Inactive)
REMARK    1  A    between atoms: C2_2  and  N1_4
REMARK    2  A    between atoms: N1_4  and  C4_6
REMARK    3  A    between atoms: N3_14  and  C8_16
REMARK    4  A    between atoms: C8_16  and  C9_17
REMARK    5  A    between atoms: C9_17  and  N4_18
ROOT
HETATM    1  C4  UNL     1      -5.098   2.595  15.466  1.00  0.00     0.681 A
HETATM    2  N2  UNL     1      -5.613   3.806  15.215  1.00  0.00    -0.180 N
ATOM      3  H2  UNL     1      -6.226   4.228  15.913  1.00  0.00     0.185 HD
HETATM    4  C5  UNL     1      -5.358   4.496  14.083  1.00  0.00     0.140 A
HETATM    5 CL1  UNL     1      -6.061   6.060  13.830  1.00  0.00    -0.062 Cl
HETATM    6  C6  UNL     1      -4.512   3.879  13.157  1.00  0.00     0.094 A
HETATM    7 BR1  UNL     1      -4.186   4.890  11.580  1.00  0.00    -0.044 Br
HETATM    8  C7  UNL     1      -3.967   2.644  13.374  1.00  0.00     0.137 A
HETATM    9  N3  UNL     1      -3.224   2.045  12.615  1.00  0.00    -0.373 N
ATOM     10  H3  UNL     1      -2.984   1.154  13.049  1.00  0.00     0.161 HD
HETATM   11  N5  UNL     1      -4.286   2.027  14.551  1.00  0.00    -0.176 N
ATOM     12  H5  UNL     1      -3.896   1.105  14.745  1.00  0.00     0.186 HD
ENDROOT
BRANCH   9  13
HETATM   13  C8  UNL     1      -2.581   2.110  11.391  1.00  0.00     0.151 C
BRANCH  13  14
HETATM   14  C9  UNL     1      -2.458   0.670  10.861  1.00  0.00     0.290 C
BRANCH  14  15
HETATM   15  N4  UNL     1      -3.512  -0.172  11.308  1.00  0.00     0.081 N
HETATM   16  C10 UNL     1      -4.636   0.017  10.412  1.00  0.00     0.309 C
HETATM   17  C11 UNL     1      -3.188  -1.571  11.337  1.00  0.00     0.309 C
ENDBRANCH  14  15
ENDBRANCH  13  14
ENDBRANCH   9  13
BRANCH   1  18
HETATM   18  N1  UNL     1      -5.352   1.951  16.551  1.00  0.00    -0.222 N
ATOM     19  H1  UNL     1      -4.670   1.286  16.915  1.00  0.00     0.178 HD
BRANCH  18  20
HETATM   20  C2  UNL     1      -6.583   2.161  17.253  1.00  0.00     0.091 C
HETATM   21  C1  UNL     1      -7.580   1.038  16.950  1.00  0.00     0.032 C
HETATM   22  C3  UNL     1      -6.261   2.090  18.751  1.00  0.00     0.032 C
ENDBRANCH  18  20
ENDBRANCH   1  18
TORSDOF 5
ENDMDL