MODEL 3
REMARK VINA RESULT: -6.511156645      2.923      4.009
REMARK  5 active torsions:
REMARK  status: ('A' for Active; 'I' for Inactive)
REMARK    1  A    between atoms: N2_8  and  C5_9
REMARK    2  A    between atoms: C5_9  and  C6_10
REMARK    3  A    between atoms: C6_10  and  C7_11
REMARK    4  A    between atoms: C7_11  and  N3_12
REMARK    5  A    between atoms: C10_15  and  O2_16
ROOT
HETATM    1  C6  UNL     1      -4.297   3.083  14.668  1.00  0.00     0.050 C
ENDROOT
BRANCH   1   2
HETATM    2  C5  UNL     1      -4.967   2.661  13.367  1.00  0.00     0.138 C
BRANCH   2   3
HETATM    3  N2  UNL     1      -4.203   1.624  12.704  1.00  0.00    -0.268 N
HETATM    4  C4  UNL     1      -3.162   1.849  11.732  1.00  0.00     0.326 C
HETATM    5  N1  UNL     1      -2.671   0.576  11.329  1.00  0.00    -0.325 N
HETATM    6  O1  UNL     1      -2.770   2.973  11.323  1.00  0.00    -0.247 OA
HETATM    7  C2  UNL     1      -3.800  -0.335  11.550  1.00  0.00     0.108 C
ATOM      8  H1  UNL     1      -1.745   0.348  10.968  1.00  0.00     0.165 HD
HETATM    9  C1  UNL     1      -4.858  -0.053  10.509  1.00  0.00     0.049 C
HETATM   10  C3  UNL     1      -3.349  -1.753  11.603  1.00  0.00     0.049 C
HETATM   11  C15 UNL     1      -4.297   0.197  12.849  1.00  0.00     0.255 C
HETATM   12  O3  UNL     1      -4.715  -0.371  13.875  1.00  0.00    -0.270 OA
ENDBRANCH   2   3
ENDBRANCH   1   2
BRANCH   1  13
HETATM   13  C7  UNL     1      -4.299   4.589  14.818  1.00  0.00     0.274 C
BRANCH  13  14
HETATM   14  N3  UNL     1      -3.338   5.133  13.924  1.00  0.00     0.096 N
HETATM   15  C8  UNL     1      -1.968   4.760  14.200  1.00  0.00     0.276 C
HETATM   16  C9  UNL     1      -1.263   5.550  13.085  1.00  0.00     0.073 C
HETATM   17  C10 UNL     1      -1.955   6.906  13.271  1.00  0.00     0.121 C
HETATM   18  C11 UNL     1      -1.265   7.671  14.361  1.00  0.00     0.206 C
HETATM   19  C14 UNL     1      -3.356   6.565  13.781  1.00  0.00     0.260 C
HETATM   20  F1  UNL     1      -0.357   8.604  13.867  1.00  0.00    -0.246 F
HETATM   21  C12 UNL     1      -2.383   8.326  15.098  1.00  0.00     0.042 C
HETATM   22  C13 UNL     1      -3.543   7.336  15.040  1.00  0.00     0.042 C
BRANCH  17  23
HETATM   23  O2  UNL     1      -2.066   7.604  12.092  1.00  0.00    -0.385 OA
ATOM     24  H2  UNL     1      -2.963   7.653  11.783  1.00  0.00     0.210 HD
ENDBRANCH  17  23
ENDBRANCH  13  14
ENDBRANCH   1  13
TORSDOF 5
ENDMDL