MODEL 2
REMARK VINA RESULT: -5.808400541      1.923      2.300
REMARK  5 active torsions:
REMARK  status: ('A' for Active; 'I' for Inactive)
REMARK    1  A    between atoms: C2_2  and  N1_3
REMARK    2  A    between atoms: N1_3  and  C3_5
REMARK    3  A    between atoms: N3_13  and  C7_15
REMARK    4  A    between atoms: C7_15  and  C8_16
REMARK    5  A    between atoms: C8_16  and  N4_17
ROOT
HETATM    1  C3  UNL     1      -4.703   2.416  15.586  1.00  0.00     0.680 A
HETATM    2  N2  UNL     1      -4.008   3.558  15.467  1.00  0.00    -0.180 N
ATOM      3  H2  UNL     1      -3.761   4.091  16.301  1.00  0.00     0.185 HD
HETATM    4  C4  UNL     1      -3.639   4.000  14.266  1.00  0.00     0.140 A
HETATM    5 CL1  UNL     1      -2.736   5.490  14.108  1.00  0.00    -0.062 Cl
HETATM    6  C5  UNL     1      -3.984   3.260  13.128  1.00  0.00     0.094 A
HETATM    7 BR1  UNL     1      -3.422   3.969  11.468  1.00  0.00    -0.044 Br
HETATM    8  C6  UNL     1      -4.693   2.093  13.218  1.00  0.00     0.137 A
HETATM    9  N3  UNL     1      -5.042   1.374  12.250  1.00  0.00    -0.373 N
ATOM     10  H3  UNL     1      -5.563   0.543  12.532  1.00  0.00     0.161 HD
HETATM   11  N5  UNL     1      -5.027   1.721  14.499  1.00  0.00    -0.176 N
ATOM     12  H5  UNL     1      -5.555   0.857  14.623  1.00  0.00     0.186 HD
ENDROOT
BRANCH   9  13
HETATM   13  C7  UNL     1      -4.867   1.473  10.871  1.00  0.00     0.151 C
BRANCH  13  14
HETATM   14  C8  UNL     1      -4.174   0.220  10.291  1.00  0.00     0.290 C
BRANCH  14  15
HETATM   15  N4  UNL     1      -3.155  -0.247  11.177  1.00  0.00     0.081 N
HETATM   16  C9  UNL     1      -1.894   0.427  11.041  1.00  0.00     0.309 C
HETATM   17  C10 UNL     1      -2.993  -1.670  11.168  1.00  0.00     0.309 C
ENDBRANCH  14  15
ENDBRANCH  13  14
ENDBRANCH   9  13
BRANCH   1  18
HETATM   18  N1  UNL     1      -5.076   1.970  16.759  1.00  0.00    -0.226 N
ATOM     19  H1  UNL     1      -4.785   2.498  17.581  1.00  0.00     0.177 HD
BRANCH  18  20
HETATM   20  C2  UNL     1      -5.860   0.797  16.969  1.00  0.00     0.133 C
HETATM   21  C1  UNL     1      -7.332   1.146  17.125  1.00  0.00     0.027 C
ENDBRANCH  18  20
ENDBRANCH   1  18
TORSDOF 5
ENDMDL