MODEL 1
REMARK VINA RESULT: -4.788885617      0.000      0.000
REMARK  3 active torsions:
REMARK  status: ('A' for Active; 'I' for Inactive)
REMARK    1  A    between atoms: N1_2  and  C3_4
REMARK    2  A    between atoms: C3_4  and  C4_5
REMARK    3  A    between atoms: C4_5  and  N2_6
ROOT
HETATM    1  N2  UNL     1      -4.845   1.889  14.665  1.00  0.00    -0.170 N
HETATM    2  C5  UNL     1      -5.577   2.620  15.522  1.00  0.00     0.133 A
HETATM    3 BR1  UNL     1      -6.166   4.431  15.319  1.00  0.00    -0.027 Br
HETATM    4  C6  UNL     1      -5.867   1.846  16.629  1.00  0.00     0.130 A
HETATM    5 BR2  UNL     1      -6.874   2.349  18.172  1.00  0.00    -0.028 Br
HETATM    6  N3  UNL     1      -5.302   0.649  16.430  1.00  0.00    -0.182 N
ATOM      7  H3  UNL     1      -5.336  -0.145  17.070  1.00  0.00     0.185 HD
HETATM    8  C7  UNL     1      -4.674   0.677  15.221  1.00  0.00     0.680 A
HETATM    9  N4  UNL     1      -4.029  -0.344  14.740  1.00  0.00    -0.234 N
ATOM     10  H41 UNL     1      -3.900  -1.263  15.162  1.00  0.00     0.174 HD
ATOM     11  H42 UNL     1      -3.559  -0.322  13.835  1.00  0.00     0.174 HD
ENDROOT
BRANCH   1  12
HETATM   12  C4  UNL     1      -4.365   2.370  13.406  1.00  0.00     0.192 C
BRANCH  12  13
HETATM   13  C3  UNL     1      -5.110   1.757  12.244  1.00  0.00     0.078 C
BRANCH  13  14
HETATM   14  N1  UNL     1      -4.278   0.967  11.454  1.00  0.00    -0.400 N
HETATM   15  C1  UNL     1      -4.754  -0.136  10.746  1.00  0.00     0.148 C
HETATM   16  C2  UNL     1      -2.897   1.176  11.409  1.00  0.00     0.148 C
ENDBRANCH  13  14
ENDBRANCH  12  13
ENDBRANCH   1  12
TORSDOF 3
ENDMDL