MODEL 2
REMARK VINA RESULT: -6.822403262      2.555      5.403
REMARK  6 active torsions:
REMARK  status: ('A' for Active; 'I' for Inactive)
REMARK    1  A    between atoms: N2_5  and  C4_6
REMARK    2  A    between atoms: C4_6  and  C5_7
REMARK    3  A    between atoms: C5_7  and  N3_8
REMARK    4  A    between atoms: N3_8  and  C6_10
REMARK    5  A    between atoms: C6_10  and  N4_12
REMARK    6  A    between atoms: N4_12  and  C7_14
ROOT
HETATM    1  C6  UNL     1      -3.818   4.427  14.095  1.00  0.00     0.167 C
HETATM    2  S1  UNL     1      -3.066   5.712  14.735  1.00  0.00    -0.041 SA
ENDROOT
BRANCH   1   3
HETATM    3  N3  UNL     1      -4.519   4.590  12.875  1.00  0.00    -0.366 N
ATOM      4  H3  UNL     1      -5.537   4.578  12.933  1.00  0.00     0.161 HD
BRANCH   3   5
HETATM    5  C5  UNL     1      -3.962   4.770  11.578  1.00  0.00     0.141 C
BRANCH   5   6
HETATM    6  C4  UNL     1      -4.162   3.597  10.686  1.00  0.00     0.141 C
BRANCH   6   7
HETATM    7  N2  UNL     1      -4.032   2.331  11.304  1.00  0.00    -0.389 N
HETATM    8  C3  UNL     1      -5.116   1.435  11.258  1.00  0.00     0.077 C
HETATM    9  C2  UNL     1      -4.830   0.147  10.521  1.00  0.00     0.160 C
HETATM   10  N1  UNL     1      -3.528  -0.385  10.740  1.00  0.00    -0.411 N
HETATM   11  C1  UNL     1      -3.464  -1.394  11.747  1.00  0.00     0.143 C
HETATM   12  C14 UNL     1      -2.448   0.546  10.734  1.00  0.00     0.136 C
HETATM   13  C13 UNL     1      -2.733   1.806  11.477  1.00  0.00     0.141 C
ENDBRANCH   6   7
ENDBRANCH   5   6
ENDBRANCH   3   5
ENDBRANCH   1   3
BRANCH   1  14
HETATM   14  N4  UNL     1      -3.733   3.186  14.773  1.00  0.00    -0.363 N
ATOM     15  H4  UNL     1      -2.994   2.553  14.465  1.00  0.00     0.162 HD
BRANCH  14  16
HETATM   16  C7  UNL     1      -4.555   2.723  15.833  1.00  0.00     0.084 C
HETATM   17  C8  UNL     1      -5.847   3.452  15.918  1.00  0.00     0.031 C
HETATM   18  C9  UNL     1      -7.002   2.568  16.336  1.00  0.00     0.081 C
HETATM   19  C10 UNL     1      -6.602   1.608  17.432  1.00  0.00     0.243 C
HETATM   20  F1  UNL     1      -7.719   0.873  17.779  1.00  0.00    -0.206 F
HETATM   21  F2  UNL     1      -6.195   2.272  18.572  1.00  0.00    -0.206 F
HETATM   22  C11 UNL     1      -5.558   0.680  16.915  1.00  0.00     0.081 C
HETATM   23  C12 UNL     1      -4.716   1.218  15.803  1.00  0.00     0.031 C
ENDBRANCH  14  16
ENDBRANCH   1  14
TORSDOF 6
ENDMDL