MODEL 1
REMARK VINA RESULT: -6.798401503      0.000      0.000
REMARK  5 active torsions:
REMARK  status: ('A' for Active; 'I' for Inactive)
REMARK    1  A    between atoms: C2_2  and  C3_3
REMARK       I    between atoms: C3_3  and  N1_5
REMARK    2  A    between atoms: N1_5  and  C4_7
REMARK    3  A    between atoms: C4_7  and  C8_13
REMARK    4  A    between atoms: N2_8  and  C5_10
REMARK    5  A    between atoms: C8_13  and  O2_14
ROOT
HETATM    1  C4  UNL     1      -4.377   2.821  14.313  1.00  0.00     0.118 C
HETATM    2  N2  UNL     1      -4.646   2.202  13.256  1.00  0.00    -0.373 N
ATOM      3  H2  UNL     1      -5.315   1.472  13.503  1.00  0.00     0.161 HD
ENDROOT
BRANCH   1   4
HETATM    4  N1  UNL     1      -5.060   2.326  15.468  1.00  0.00    -0.314 N
HETATM    5  C3  UNL     1      -4.788   1.339  16.380  1.00  0.00     0.222 C
HETATM    6  O1  UNL     1      -3.801   0.610  16.372  1.00  0.00    -0.273 OA
ATOM      7  H1  UNL     1      -5.938   2.812  15.652  1.00  0.00     0.170 HD
BRANCH   5   8
HETATM    8  C2  UNL     1      -5.761   1.090  17.515  1.00  0.00     0.098 C
HETATM    9  C1  UNL     1      -7.180   1.356  17.081  1.00  0.00     0.014 C
ENDBRANCH   5   8
ENDBRANCH   1   4
BRANCH   1  10
HETATM   10  C8  UNL     1      -3.480   3.947  14.484  1.00  0.00     0.152 A
HETATM   11  C9  UNL     1      -4.194   5.259  14.836  1.00  0.00     0.128 A
HETATM   12 BR1  UNL     1      -6.075   5.442  14.426  1.00  0.00    -0.085 Br
HETATM   13  C10 UNL     1      -3.241   5.103  13.654  1.00  0.00     0.089 A
HETATM   14  C11 UNL     1      -1.908   5.839  13.913  1.00  0.00     0.037 C
HETATM   15 CL1  UNL     1      -3.969   5.582  12.155  1.00  0.00    -0.115 Cl
BRANCH  10  16
HETATM   16  O2  UNL     1      -2.430   3.634  15.392  1.00  0.00    -0.379 OA
ATOM     17  H2  UNL     1      -1.726   4.270  15.333  1.00  0.00     0.211 HD
ENDBRANCH  10  16
ENDBRANCH   1  10
BRANCH   2  18
HETATM   18  C5  UNL     1      -4.420   2.094  11.920  1.00  0.00     0.074 C
HETATM   19  C6  UNL     1      -5.025   0.811  11.307  1.00  0.00     0.031 C
HETATM   20  C7  UNL     1      -2.916   1.902  11.556  1.00  0.00     0.031 C
ENDBRANCH   2  18
TORSDOF 5
ENDMDL