MODEL 2
REMARK VINA RESULT: -5.626267651      1.887      1.964
REMARK  6 active torsions:
REMARK  status: ('A' for Active; 'I' for Inactive)
REMARK    1  A    between atoms: O1_1  and  C1_3
REMARK    2  A    between atoms: C1_3  and  C2_4
REMARK    3  A    between atoms: C2_4  and  N1_5
REMARK    4  A    between atoms: N1_5  and  C3_7
REMARK    5  A    between atoms: C4_10  and  C5_11
REMARK    6  A    between atoms: C5_11  and  C6_12
ROOT
HETATM    1  C3  UNL     1      -4.354   0.688  12.861  1.00  0.00     0.146 A
HETATM    2  N2  UNL     1      -4.313   0.651  14.188  1.00  0.00    -0.339 N
ATOM      3  H2  UNL     1      -4.002  -0.191  14.673  1.00  0.00     0.168 HD
HETATM    4  C4  UNL     1      -4.678   1.708  14.862  1.00  0.00     0.036 A
HETATM    5  C7  UNL     1      -5.085   2.802  14.140  1.00  0.00     0.077 A
HETATM    6 BR2  UNL     1      -5.684   4.510  14.808  1.00  0.00    -0.041 Br
HETATM    7  S1  UNL     1      -4.926   2.261  12.529  1.00  0.00    -0.045 SA
ENDROOT
BRANCH   1   8
HETATM    8  N1  UNL     1      -4.022  -0.278  12.022  1.00  0.00    -0.368 N
ATOM      9  H1  UNL     1      -4.257  -1.246  12.241  1.00  0.00     0.161 HD
BRANCH   8  10
HETATM   10  C2  UNL     1      -3.327   0.037  10.796  1.00  0.00     0.147 C
BRANCH  10  11
HETATM   11  C1  UNL     1      -2.014   0.672  11.136  1.00  0.00     0.183 C
BRANCH  11  12
HETATM   12  O1  UNL     1      -1.607   1.571  10.147  1.00  0.00    -0.399 OA
ATOM     13  H1  UNL     1      -0.694   1.447   9.917  1.00  0.00     0.209 HD
ENDBRANCH  11  12
ENDBRANCH  10  11
ENDBRANCH   8  10
ENDBRANCH   1   8
BRANCH   4  14
HETATM   14  C5  UNL     1      -4.677   1.792  16.389  1.00  0.00     0.070 C
BRANCH  14  15
HETATM   15  C6  UNL     1      -5.553   0.739  16.979  1.00  0.00     0.091 C
HETATM   16 BR1  UNL     1      -7.372   1.306  17.210  1.00  0.00    -0.096 Br
ENDBRANCH  14  15
ENDBRANCH   4  14
TORSDOF 6
ENDMDL