MODEL 5
REMARK VINA RESULT: -6.558056141      1.196      1.459
REMARK  4 active torsions:
REMARK  status: ('A' for Active; 'I' for Inactive)
REMARK       I    between atoms: C1_2  and  N1_3
REMARK    1  A    between atoms: C1_2  and  C5_8
REMARK    2  A    between atoms: N1_3  and  C2_5
REMARK       I    between atoms: N2_11  and  C8_12
REMARK       I    between atoms: C8_12  and  N3_14
REMARK    3  A    between atoms: N3_14  and  N4_16
REMARK    4  A    between atoms: C9_18  and  C10_19
ROOT
HETATM    1  C5  UNL     1      -3.492   3.948  11.024  1.00  0.00     0.081 C
HETATM    2  C6  UNL     1      -3.310   4.302  12.451  1.00  0.00     0.034 C
HETATM    3  C7  UNL     1      -3.844   3.347  13.441  1.00  0.00     0.128 C
HETATM    4  N2  UNL     1      -4.081   2.023  12.990  1.00  0.00    -0.333 N
HETATM    5  C8  UNL     1      -4.372   1.004  13.927  1.00  0.00     0.336 C
HETATM    6  O2  UNL     1      -4.588  -0.182  13.570  1.00  0.00    -0.245 OA
HETATM    7  N3  UNL     1      -4.425   1.319  15.301  1.00  0.00    -0.252 N
ATOM      8  H3  UNL     1      -4.253   2.275  15.613  1.00  0.00     0.191 HD
HETATM    9  C11 UNL     1      -4.035   1.664  11.589  1.00  0.00     0.128 C
HETATM   10  C12 UNL     1      -4.565   2.897  10.842  1.00  0.00     0.034 C
ENDROOT
BRANCH   7  11
HETATM   11  N4  UNL     1      -4.709   0.327  16.222  1.00  0.00    -0.309 N
HETATM   12  C9  UNL     1      -5.568   0.449  17.157  1.00  0.00     0.116 C
ATOM     13  H4  UNL     1      -4.201  -0.554  16.150  1.00  0.00     0.185 HD
BRANCH  12  14
HETATM   14  C10 UNL     1      -6.349   1.687  17.338  1.00  0.00     0.218 C
HETATM   15 CL1  UNL     1      -6.286   2.207  19.056  1.00  0.00    -0.102 Cl
HETATM   16 CL2  UNL     1      -8.043   1.398  16.911  1.00  0.00    -0.102 Cl
ENDBRANCH  12  14
ENDBRANCH   7  11
BRANCH   1  17
HETATM   17  C1  UNL     1      -3.778   5.076  10.138  1.00  0.00     0.222 C
HETATM   18  O1  UNL     1      -3.648   6.282  10.499  1.00  0.00    -0.273 OA
HETATM   19  N1  UNL     1      -4.218   4.830   8.814  1.00  0.00    -0.356 N
ATOM     20  H1  UNL     1      -4.332   3.869   8.492  1.00  0.00     0.162 HD
BRANCH  19  21
HETATM   21  C2  UNL     1      -4.511   5.932   7.906  1.00  0.00     0.084 A
HETATM   22  C3  UNL     1      -3.664   6.129   6.707  1.00  0.00     0.027 A
HETATM   23  C4  UNL     1      -5.011   5.487   6.524  1.00  0.00     0.027 A
ENDBRANCH  19  21
ENDBRANCH   1  17
TORSDOF 4
ENDMDL