MODEL 5
REMARK VINA RESULT: -6.689979366      3.761      6.396
REMARK  4 active torsions:
REMARK  status: ('A' for Active; 'I' for Inactive)
REMARK       I    between atoms: N2_3  and  C2_5
REMARK       I    between atoms: C2_5  and  N4_9
REMARK    1  A    between atoms: N4_9  and  C3_11
REMARK    2  A    between atoms: C3_11  and  C4_12
REMARK    3  A    between atoms: C4_12  and  N5_13
REMARK    4  A    between atoms: N6_16  and  C7_17
ROOT
HETATM    1  N1  UNL     1      -1.732   5.467  13.812  1.00  0.00    -0.171 NA
HETATM    2  C1  UNL     1      -1.328   4.487  13.315  1.00  0.00     0.196 C
HETATM    3  N2  UNL     1      -0.846   3.339  12.709  1.00  0.00    -0.125 N
ATOM      4  H2  UNL     1      -0.537   2.554  13.282  1.00  0.00     0.197 HD
HETATM    5  C2  UNL     1      -0.781   3.249  11.309  1.00  0.00     0.701 C
HETATM    6  N3  UNL     1      -0.375   4.233  10.588  1.00  0.00    -0.130 N
ATOM      7  H3  UNL     1      -0.093   5.097  11.051  1.00  0.00     0.199 HD
HETATM    8 CL1  UNL     1      -0.287   4.147   8.866  1.00  0.00     0.026 Cl
HETATM    9  N4  UNL     1      -1.166   2.036  10.614  1.00  0.00    -0.202 N
ATOM     10  H4  UNL     1      -0.940   1.885   9.630  1.00  0.00     0.183 HD
ENDROOT
BRANCH   9  11
HETATM   11  C3  UNL     1      -1.867   1.078  11.367  1.00  0.00     0.109 C
BRANCH  11  12
HETATM   12  C4  UNL     1      -3.159   0.559  10.940  1.00  0.00     0.317 C
BRANCH  12  13
HETATM   13  N5  UNL     1      -4.351   0.931  11.677  1.00  0.00     0.096 N
HETATM   14  C5  UNL     1      -4.206   2.297  12.154  1.00  0.00     0.303 C
HETATM   15  C6  UNL     1      -5.112   2.692  13.236  1.00  0.00     0.303 C
HETATM   16  N6  UNL     1      -5.213   1.695  14.313  1.00  0.00     0.099 N
HETATM   17  C13 UNL     1      -4.140   0.766  14.076  1.00  0.00     0.303 C
HETATM   18  C14 UNL     1      -4.489   0.013  12.784  1.00  0.00     0.303 C
BRANCH  16  19
HETATM   19  C7  UNL     1      -5.109   2.364  15.604  1.00  0.00     0.256 C
HETATM   20  C8  UNL     1      -6.106   3.492  15.705  1.00  0.00     0.038 C
HETATM   21  C9  UNL     1      -6.914   3.530  16.948  1.00  0.00     0.002 C
HETATM   22  C10 UNL     1      -7.542   2.216  17.318  1.00  0.00     0.003 C
HETATM   23  C11 UNL     1      -6.857   1.042  16.652  1.00  0.00     0.039 C
HETATM   24  C12 UNL     1      -5.364   1.370  16.697  1.00  0.00     0.203 C
HETATM   25  F1  UNL     1      -5.093   1.939  17.961  1.00  0.00    -0.247 F
ENDBRANCH  16  19
ENDBRANCH  12  13
ENDBRANCH  11  12
ENDBRANCH   9  11
TORSDOF 4
ENDMDL