MODEL 5
REMARK VINA RESULT: -6.274177399      1.301      1.906
REMARK  4 active torsions:
REMARK  status: ('A' for Active; 'I' for Inactive)
REMARK    1  A    between atoms: C2_2  and  C3_3
REMARK    2  A    between atoms: C4_4  and  C5_5
REMARK       I    between atoms: C5_5  and  N1_7
REMARK    3  A    between atoms: N1_7  and  C6_9
REMARK    4  A    between atoms: N2_12  and  C9_13
ROOT
HETATM    1  C5  UNL     1      -2.835   3.950  12.612  1.00  0.00     0.249 C
HETATM    2  O1  UNL     1      -3.814   4.726  12.469  1.00  0.00    -0.271 OA
HETATM    3  N1  UNL     1      -3.070   2.604  12.929  1.00  0.00    -0.350 N
ATOM      4  H1  UNL     1      -2.264   1.989  13.041  1.00  0.00     0.163 HD
ENDROOT
BRANCH   1   5
HETATM    5  C4  UNL     1      -1.474   4.458  12.449  1.00  0.00     0.287 C
HETATM    6  C3  UNL     1      -1.320   5.319  11.168  1.00  0.00     0.088 C
HETATM    7  C15 UNL     1       0.174   5.464  11.215  1.00  0.00     0.146 C
HETATM    8  C14 UNL     1       0.675   4.123  11.688  1.00  0.00     0.276 C
HETATM    9 CL1  UNL     1       0.953   5.947   9.737  1.00  0.00    -0.099 Cl
HETATM   10 CL2  UNL     1       0.569   6.646  12.515  1.00  0.00    -0.099 Cl
HETATM   11  N3  UNL     1      -0.486   3.456  12.202  1.00  0.00    -0.059 N
ATOM     12  H32 UNL     1      -0.287   2.881  13.021  1.00  0.00     0.278 HD
ATOM     13  H31 UNL     1      -0.819   2.707  11.595  1.00  0.00     0.278 HD
BRANCH   6  14
HETATM   14  C2  UNL     1      -1.884   4.535  10.079  1.00  0.00    -0.027 C
HETATM   15  C1  UNL     1      -2.498   4.932   8.998  1.00  0.00     0.007 C
ENDBRANCH   6  14
ENDBRANCH   1   5
BRANCH   3  16
HETATM   16  C6  UNL     1      -4.396   2.035  13.105  1.00  0.00     0.128 C
HETATM   17  C7  UNL     1      -4.342   0.540  13.290  1.00  0.00     0.075 C
HETATM   18  C8  UNL     1      -4.577   0.308  14.766  1.00  0.00     0.066 C
HETATM   19  N2  UNL     1      -4.974   1.512  15.282  1.00  0.00    -0.367 N
HETATM   20  C13 UNL     1      -5.073   2.549  14.361  1.00  0.00     0.089 C
BRANCH  19  21
HETATM   21  C9  UNL     1      -5.294   1.705  16.620  1.00  0.00     0.088 C
HETATM   22  C10 UNL     1      -5.878   0.615  17.437  1.00  0.00     0.026 C
HETATM   23  C11 UNL     1      -7.239   1.240  17.272  1.00  0.00     0.004 C
HETATM   24  C12 UNL     1      -6.524   2.533  16.940  1.00  0.00     0.026 C
ENDBRANCH  19  21
ENDBRANCH   3  16
TORSDOF 4
ENDMDL