MODEL 2
REMARK VINA RESULT: -7.027677301      2.678      5.771
REMARK  4 active torsions:
REMARK  status: ('A' for Active; 'I' for Inactive)
REMARK    1  A    between atoms: C2_2  and  N1_3
REMARK    2  A    between atoms: C2_2  and  C10_17
REMARK       I    between atoms: N1_3  and  C3_5
REMARK    3  A    between atoms: C3_5  and  C4_7
REMARK       I    between atoms: N2_11  and  C8_12
REMARK    4  A    between atoms: C8_12  and  C9_14
ROOT
HETATM    1  N1  UNL     1      -4.826   3.910  13.674  1.00  0.00    -0.355 N
ATOM      2  H1  UNL     1      -5.545   3.882  12.951  1.00  0.00     0.162 HD
HETATM    3  C3  UNL     1      -3.473   3.693  13.305  1.00  0.00     0.241 C
HETATM    4  O1  UNL     1      -2.519   3.706  14.117  1.00  0.00    -0.271 OA
ENDROOT
BRANCH   3   5
HETATM    5  C4  UNL     1      -3.158   3.434  11.879  1.00  0.00     0.179 C
HETATM    6  C5  UNL     1      -1.705   3.714  11.599  1.00  0.00     0.037 C
HETATM    7  C6  UNL     1      -1.273   2.564  10.748  1.00  0.00     0.022 C
HETATM    8  C7  UNL     1      -2.115   1.414  11.292  1.00  0.00     0.127 C
HETATM    9  N2  UNL     1      -3.385   2.052  11.516  1.00  0.00    -0.336 N
HETATM   10  C8  UNL     1      -4.655   1.447  11.418  1.00  0.00     0.253 C
HETATM   11  O2  UNL     1      -5.682   2.148  11.671  1.00  0.00    -0.270 OA
BRANCH  10  12
HETATM   12  C9  UNL     1      -4.823   0.021  11.027  1.00  0.00     0.270 C
HETATM   13 CL1  UNL     1      -3.792  -0.356   9.643  1.00  0.00    -0.098 Cl
HETATM   14 CL2  UNL     1      -4.307  -0.945  12.455  1.00  0.00    -0.098 Cl
ENDBRANCH  10  12
ENDBRANCH   3   5
BRANCH   1  15
HETATM   15  C2  UNL     1      -5.223   4.171  15.054  1.00  0.00     0.086 C
HETATM   16  C1  UNL     1      -6.149   5.345  15.165  1.00  0.00     0.032 C
BRANCH  15  17
HETATM   17  C10 UNL     1      -5.874   2.933  15.575  1.00  0.00     0.035 C
HETATM   18  C11 UNL     1      -4.852   2.055  16.285  1.00  0.00     0.036 C
HETATM   19  C12 UNL     1      -5.777   1.187  17.127  1.00  0.00     0.232 C
HETATM   20  N3  UNL     1      -6.957   1.957  17.380  1.00  0.00    -0.075 N
HETATM   21  C13 UNL     1      -6.849   3.209  16.699  1.00  0.00     0.239 C
ATOM     22  H32 UNL     1      -7.810   1.454  17.135  1.00  0.00     0.277 HD
ATOM     23  H31 UNL     1      -7.141   2.071  18.377  1.00  0.00     0.277 HD
ENDBRANCH  15  17
ENDBRANCH   1  15
TORSDOF 4
ENDMDL