MODEL 3
REMARK VINA RESULT: -6.439603597      2.487      4.015
REMARK  6 active torsions:
REMARK  status: ('A' for Active; 'I' for Inactive)
REMARK    1  A    between atoms: C2_4  and  N2_5
REMARK    2  A    between atoms: C2_4  and  C7_11
REMARK    3  A    between atoms: N2_5  and  C3_7
REMARK    4  A    between atoms: C7_11  and  N3_12
REMARK    5  A    between atoms: C7_11  and  C13_21
REMARK       I    between atoms: N3_12  and  C8_14
REMARK    6  A    between atoms: C8_14  and  C9_16
ROOT
HETATM    1  C7  UNL     1      -3.679   2.434  12.676  1.00  0.00     0.184 C
ENDROOT
BRANCH   1   2
HETATM    2  C2  UNL     1      -4.099   3.700  12.035  1.00  0.00     0.099 C
HETATM    3  N1  UNL     1      -3.968   3.831  10.772  1.00  0.00    -0.383 N
HETATM    4  C1  UNL     1      -4.375   5.040  10.118  1.00  0.00     0.147 C
ATOM      5  H1  UNL     1      -3.572   3.068  10.222  1.00  0.00     0.160 HD
BRANCH   2   6
HETATM    6  N2  UNL     1      -4.649   4.767  12.777  1.00  0.00    -0.370 N
ATOM      7  H2  UNL     1      -5.666   4.836  12.777  1.00  0.00     0.161 HD
BRANCH   6   8
HETATM    8  C3  UNL     1      -3.959   5.755  13.522  1.00  0.00     0.020 C
HETATM    9  C4  UNL     1      -2.477   5.427  13.753  1.00  0.00     0.037 C
HETATM   10  C5  UNL     1      -4.566   5.859  14.906  1.00  0.00     0.037 C
HETATM   11  C6  UNL     1      -4.017   7.150  12.937  1.00  0.00     0.037 C
ENDBRANCH   6   8
ENDBRANCH   2   6
ENDBRANCH   1   2
BRANCH   1  12
HETATM   12  N3  UNL     1      -4.653   1.949  13.647  1.00  0.00    -0.345 N
HETATM   13  C8  UNL     1      -4.501   2.052  15.049  1.00  0.00     0.247 C
HETATM   14  O1  UNL     1      -3.455   2.598  15.535  1.00  0.00    -0.271 OA
ATOM     15  H3  UNL     1      -5.501   1.507  13.291  1.00  0.00     0.163 HD
BRANCH  13  16
HETATM   16  C9  UNL     1      -5.552   1.528  15.935  1.00  0.00     0.213 C
HETATM   17  C10 UNL     1      -6.202   2.589  16.779  1.00  0.00     0.043 C
HETATM   18  C11 UNL     1      -6.536   1.839  18.052  1.00  0.00     0.029 C
HETATM   19  C12 UNL     1      -6.095   0.414  17.709  1.00  0.00     0.168 C
HETATM   20  O2  UNL     1      -4.999   0.675  16.884  1.00  0.00    -0.376 OA
ENDBRANCH  13  16
ENDBRANCH   1  12
BRANCH   1  21
HETATM   21  C13 UNL     1      -3.432   1.348  11.640  1.00  0.00     0.208 C
HETATM   22 CL1  UNL     1      -4.170  -0.187  12.156  1.00  0.00    -0.106 Cl
HETATM   23 CL2  UNL     1      -1.717   1.112  11.323  1.00  0.00    -0.106 Cl
ENDBRANCH   1  21
TORSDOF 6
ENDMDL