MODEL 3
REMARK VINA RESULT: -5.809799972      0.821      1.110
REMARK  5 active torsions:
REMARK  status: ('A' for Active; 'I' for Inactive)
REMARK    1  A    between atoms: N1_2  and  C3_4
REMARK    2  A    between atoms: C3_4  and  C4_5
REMARK    3  A    between atoms: C4_5  and  N2_6
REMARK    4  A    between atoms: N2_6  and  C5_8
REMARK    5  A    between atoms: C8_14  and  C9_15
ROOT
HETATM    1  C5  UNL     1      -1.957   4.083  12.687  1.00  0.00     0.680 A
HETATM    2  N3  UNL     1      -2.049   3.710  11.416  1.00  0.00    -0.200 N
ATOM      3  H3  UNL     1      -1.352   3.995  10.729  1.00  0.00     0.183 HD
HETATM    4  C6  UNL     1      -3.092   2.945  11.072  1.00  0.00     0.132 A
HETATM    5  C7  UNL     1      -4.030   2.573  12.021  1.00  0.00     0.077 A
HETATM    6 CL1  UNL     1      -5.384   1.660  11.461  1.00  0.00    -0.080 Cl
HETATM    7  C8  UNL     1      -3.962   2.950  13.340  1.00  0.00     0.076 A
HETATM    8  N5  UNL     1      -2.889   3.716  13.639  1.00  0.00    -0.186 N
HETATM    9  C15 UNL     1      -2.650   4.096  15.013  1.00  0.00     0.175 C
ENDROOT
BRANCH   7  10
HETATM   10  C9  UNL     1      -4.945   2.473  14.311  1.00  0.00    -0.046 C
HETATM   11  C10 UNL     1      -4.663   1.062  14.773  1.00  0.00     0.064 C
HETATM   12  C11 UNL     1      -4.296   0.966  16.220  1.00  0.00     0.236 C
HETATM   13  N4  UNL     1      -5.415   0.703  17.089  1.00  0.00    -0.072 N
HETATM   14  C12 UNL     1      -6.545   1.424  16.523  1.00  0.00     0.269 C
ATOM     15  H42 UNL     1      -5.596  -0.291  17.227  1.00  0.00     0.277 HD
ATOM     16  H41 UNL     1      -5.234   0.934  18.065  1.00  0.00     0.277 HD
HETATM   17  C13 UNL     1      -6.164   2.879  16.477  1.00  0.00     0.199 C
HETATM   18  F1  UNL     1      -7.337   3.549  16.866  1.00  0.00    -0.247 F
HETATM   19  C14 UNL     1      -5.846   3.333  15.054  1.00  0.00     0.075 C
ENDBRANCH   7  10
BRANCH   1  20
HETATM   20  N2  UNL     1      -1.008   4.855  13.047  1.00  0.00    -0.224 N
ATOM     21  H2  UNL     1      -0.424   4.487  13.797  1.00  0.00     0.177 HD
BRANCH  20  22
HETATM   22  C4  UNL     1      -0.627   6.141  12.579  1.00  0.00     0.168 C
BRANCH  22  23
HETATM   23  C3  UNL     1      -1.446   7.151  13.346  1.00  0.00     0.291 C
BRANCH  23  24
HETATM   24  N1  UNL     1      -2.497   7.731  12.574  1.00  0.00     0.081 N
HETATM   25  C1  UNL     1      -2.317   7.540  11.127  1.00  0.00     0.309 C
HETATM   26  C2  UNL     1      -3.813   7.243  12.947  1.00  0.00     0.309 C
ENDBRANCH  23  24
ENDBRANCH  22  23
ENDBRANCH  20  22
ENDBRANCH   1  20
TORSDOF 5
ENDMDL