MODEL 4
REMARK VINA RESULT: -6.476874573      3.210      3.547
REMARK  4 active torsions:
REMARK  status: ('A' for Active; 'I' for Inactive)
REMARK    1  A    between atoms: N2_5  and  C4_6
REMARK    2  A    between atoms: C4_6  and  C5_7
REMARK    3  A    between atoms: C5_7  and  N3_8
REMARK       I    between atoms: N3_8  and  C6_10
REMARK       I    between atoms: C6_10  and  N4_12
REMARK    4  A    between atoms: N4_12  and  C7_14
ROOT
HETATM    1  N3  UNL     1      -2.969   2.920  12.470  1.00  0.00    -0.342 N
ATOM      2  H3  UNL     1      -2.100   3.097  12.975  1.00  0.00     0.164 HD
HETATM    3  C6  UNL     1      -4.118   2.576  13.207  1.00  0.00     0.316 C
HETATM    4  O1  UNL     1      -5.186   2.376  12.573  1.00  0.00    -0.247 OA
HETATM    5  N4  UNL     1      -4.062   2.460  14.633  1.00  0.00    -0.337 N
ATOM      6  H4  UNL     1      -3.174   2.633  15.103  1.00  0.00     0.164 HD
ENDROOT
BRANCH   1   7
HETATM    7  C5  UNL     1      -2.967   3.032  11.043  1.00  0.00     0.143 C
BRANCH   7   8
HETATM    8  C4  UNL     1      -2.838   4.429  10.531  1.00  0.00     0.136 C
BRANCH   8   9
HETATM    9  N2  UNL     1      -3.978   5.251  10.786  1.00  0.00    -0.408 N
HETATM   10  C3  UNL     1      -3.813   6.299  11.730  1.00  0.00     0.147 C
HETATM   11  C2  UNL     1      -5.225   6.737  12.149  1.00  0.00     0.291 C
HETATM   12  N1  UNL     1      -5.879   7.298  11.003  1.00  0.00     0.087 N
HETATM   13  C1  UNL     1      -6.165   8.694  11.179  1.00  0.00     0.310 C
HETATM   14  C14 UNL     1      -5.233   7.067   9.750  1.00  0.00     0.291 C
HETATM   15  C13 UNL     1      -4.737   5.624   9.636  1.00  0.00     0.147 C
ENDBRANCH   8   9
ENDBRANCH   7   8
ENDBRANCH   1   7
BRANCH   5  16
HETATM   16  C7  UNL     1      -5.200   2.112  15.422  1.00  0.00     0.104 C
HETATM   17  C8  UNL     1      -4.847   0.925  16.286  1.00  0.00     0.027 C
HETATM   18  C9  UNL     1      -5.997   0.507  17.174  1.00  0.00     0.002 C
HETATM   19  C10 UNL     1      -6.623   1.693  17.876  1.00  0.00     0.002 C
HETATM   20  C11 UNL     1      -7.034   2.769  16.905  1.00  0.00     0.022 C
HETATM   21  C12 UNL     1      -5.808   3.245  16.180  1.00  0.00     0.105 C
HETATM   22 CL1  UNL     1      -6.340   4.463  14.979  1.00  0.00    -0.123 Cl
ENDBRANCH   5  16
TORSDOF 4
ENDMDL