MODEL 2
REMARK VINA RESULT: -8.038682212      0.985      1.313
REMARK  5 active torsions:
REMARK  status: ('A' for Active; 'I' for Inactive)
REMARK    1  A    between atoms: C2_2  and  N1_3
REMARK    2  A    between atoms: C6_7  and  C7_8
REMARK       I    between atoms: C7_8  and  N2_10
REMARK    3  A    between atoms: N2_10  and  C8_12
REMARK    4  A    between atoms: C8_12  and  C9_13
REMARK    5  A    between atoms: C9_13  and  C10_14
ROOT
HETATM    1  C9  UNL     1      -3.392   1.675  11.671  1.00  0.00     0.140 C
HETATM    2  C11 UNL     1      -4.278   2.662  10.945  1.00  0.00     0.045 C
HETATM    3  C12 UNL     1      -3.563   3.773  10.265  1.00  0.00     0.046 C
HETATM    4  C13 UNL     1      -2.487   4.382  11.105  1.00  0.00     0.128 C
HETATM    5 CL1  UNL     1      -3.249   5.219  12.483  1.00  0.00    -0.100 Cl
HETATM    6 CL2  UNL     1      -1.568   5.573  10.160  1.00  0.00    -0.100 Cl
HETATM    7  C14 UNL     1      -1.578   3.301  11.593  1.00  0.00     0.157 C
HETATM    8  N3  UNL     1      -2.256   2.295  12.319  1.00  0.00    -0.401 N
ATOM      9  H3  UNL     1      -1.958   2.019  13.254  1.00  0.00     0.154 HD
ENDROOT
BRANCH   1  10
HETATM   10  C8  UNL     1      -4.232   1.122  12.791  1.00  0.00     0.162 C
BRANCH  10  11
HETATM   11  N2  UNL     1      -4.712   2.085  13.723  1.00  0.00    -0.357 N
HETATM   12  C7  UNL     1      -4.586   1.896  15.127  1.00  0.00     0.251 C
HETATM   13  O1  UNL     1      -4.036   0.851  15.563  1.00  0.00    -0.271 OA
ATOM     14  H2  UNL     1      -5.159   2.933  13.374  1.00  0.00     0.162 HD
BRANCH  12  15
HETATM   15  C6  UNL     1      -5.080   2.885  16.099  1.00  0.00     0.314 C
HETATM   16  N1  UNL     1      -6.504   2.799  16.284  1.00  0.00     0.101 N
HETATM   17  C3  UNL     1      -6.758   4.070  16.987  1.00  0.00     0.273 C
HETATM   18  C4  UNL     1      -6.125   5.034  15.980  1.00  0.00     0.033 C
HETATM   19  C5  UNL     1      -4.973   4.248  15.394  1.00  0.00     0.047 C
BRANCH  16  20
HETATM   20  C2  UNL     1      -6.924   1.681  17.076  1.00  0.00     0.269 C
HETATM   21  C1  UNL     1      -6.262   1.816  18.449  1.00  0.00     0.037 C
ENDBRANCH  16  20
ENDBRANCH  12  15
ENDBRANCH  10  11
ENDBRANCH   1  10
BRANCH   1  22
HETATM   22  C10 UNL     1      -2.898   0.640  10.708  1.00  0.00     0.413 C
HETATM   23  F1  UNL     1      -1.959   1.158   9.825  1.00  0.00    -0.168 F
HETATM   24  F2  UNL     1      -3.876   0.005  10.011  1.00  0.00    -0.168 F
HETATM   25  F3  UNL     1      -2.202  -0.374  11.389  1.00  0.00    -0.168 F
ENDBRANCH   1  22
TORSDOF 5
ENDMDL