MODEL 5
REMARK VINA RESULT: -7.194824456      1.231      2.052
REMARK  5 active torsions:
REMARK  status: ('A' for Active; 'I' for Inactive)
REMARK    1  A    between atoms: C2_2  and  N1_3
REMARK    2  A    between atoms: N1_3  and  C3_5
REMARK    3  A    between atoms: C3_5  and  C4_6
REMARK    4  A    between atoms: C3_5  and  C10_18
REMARK       I    between atoms: C4_6  and  N2_8
REMARK    5  A    between atoms: C8_14  and  C9_15
ROOT
HETATM    1  C4  UNL     1      -3.314   3.937  13.516  1.00  0.00     0.247 C
HETATM    2  O1  UNL     1      -2.505   4.082  14.462  1.00  0.00    -0.271 OA
HETATM    3  N2  UNL     1      -2.746   3.630  12.241  1.00  0.00    -0.330 N
HETATM    4  C5  UNL     1      -1.286   3.614  12.020  1.00  0.00     0.206 C
HETATM    5  C6  UNL     1      -1.067   2.731  10.823  1.00  0.00     0.262 C
HETATM    6  F1  UNL     1      -1.175   1.411  11.193  1.00  0.00    -0.204 F
HETATM    7  F2  UNL     1       0.115   3.000  10.188  1.00  0.00    -0.204 F
HETATM    8  C7  UNL     1      -2.276   3.085   9.962  1.00  0.00     0.117 C
HETATM    9  C8  UNL     1      -3.367   3.222  11.034  1.00  0.00     0.194 C
ENDROOT
BRANCH   1  10
HETATM   10  C3  UNL     1      -4.784   4.059  13.672  1.00  0.00     0.225 C
BRANCH  10  11
HETATM   11  N1  UNL     1      -5.393   3.122  14.455  1.00  0.00    -0.398 N
ATOM     12  H1  UNL     1      -5.974   2.500  13.893  1.00  0.00     0.155 HD
BRANCH  11  13
HETATM   13  C2  UNL     1      -5.447   2.777  15.779  1.00  0.00     0.023 A
HETATM   14  C1  UNL     1      -6.372   3.366  16.840  1.00  0.00     0.038 C
HETATM   15  C11 UNL     1      -4.232   2.033  16.410  1.00  0.00     0.032 A
HETATM   16  C12 UNL     1      -5.353   1.217  15.963  1.00  0.00     0.032 A
ENDBRANCH  11  13
ENDBRANCH  10  11
BRANCH  10  17
HETATM   17  C10 UNL     1      -5.146   5.484  14.094  1.00  0.00     0.216 C
HETATM   18 CL1  UNL     1      -6.906   5.708  14.061  1.00  0.00    -0.081 Cl
HETATM   19 CL2  UNL     1      -4.534   6.658  12.837  1.00  0.00    -0.081 Cl
HETATM   20 CL3  UNL     1      -4.467   6.045  15.583  1.00  0.00    -0.081 Cl
ENDBRANCH  10  17
ENDBRANCH   1  10
BRANCH   9  21
HETATM   21  C9  UNL     1      -3.981   1.869  11.123  1.00  0.00     0.197 C
HETATM   22  O2  UNL     1      -4.478   1.349  10.121  1.00  0.00    -0.646 OA
HETATM   23  O3  UNL     1      -3.979   1.226  12.332  1.00  0.00    -0.646 OA
ENDBRANCH   9  21
TORSDOF 5
ENDMDL