MODEL 1
REMARK VINA RESULT: -7.861441549      0.000      0.000
REMARK  10 active torsions:
REMARK  status: ('A' for Active; 'I' for Inactive)
REMARK    1  A    between atoms: C2_2  and  O1_4
REMARK    2  A    between atoms: C2_2  and  C4_6
REMARK    3  A    between atoms: C4_6  and  C5_7
REMARK    4  A    between atoms: C5_7  and  N1_8
REMARK    5  A    between atoms: N2_11  and  C7_12
REMARK    6  A    between atoms: C7_12  and  C8_13
REMARK    7  A    between atoms: C10_19  and  C11_20
REMARK    8  A    between atoms: C10_19  and  C16_25
REMARK    9  A    between atoms: C12_21  and  C13_22
REMARK   10  A    between atoms: C16_25  and  O4_26
ROOT
HETATM    1  N1  UNL     1      -3.230   3.490  12.384  1.00  0.00    -0.300 N
HETATM    2  C6  UNL     1      -2.555   2.322  11.893  1.00  0.00     0.329 C
HETATM    3  O2  UNL     1      -1.317   2.099  11.845  1.00  0.00    -0.246 OA
HETATM    4  N2  UNL     1      -3.547   1.394  11.439  1.00  0.00    -0.258 N
HETATM    5  C9  UNL     1      -4.823   1.986  11.650  1.00  0.00     0.275 C
HETATM    6  O3  UNL     1      -5.925   1.677  11.154  1.00  0.00    -0.269 OA
HETATM    7  C10 UNL     1      -4.586   3.101  12.623  1.00  0.00     0.236 C
ENDROOT
BRANCH   7   8
HETATM    8  C11 UNL     1      -4.614   2.552  14.009  1.00  0.00    -0.059 C
HETATM    9  C12 UNL     1      -4.643   2.122  15.128  1.00  0.00    -0.098 C
BRANCH   9  10
HETATM   10  C13 UNL     1      -4.680   1.621  16.506  1.00  0.00     0.065 A
HETATM   11  C14 UNL     1      -5.644   2.222  17.460  1.00  0.00     0.018 A
HETATM   12  C15 UNL     1      -5.897   0.853  16.871  1.00  0.00     0.018 A
ENDBRANCH   9  10
ENDBRANCH   7   8
BRANCH   7  13
HETATM   13  C16 UNL     1      -5.605   4.183  12.459  1.00  0.00     0.355 C
HETATM   14  F4  UNL     1      -5.723   4.563  11.156  1.00  0.00    -0.215 F
BRANCH  13  15
HETATM   15  O4  UNL     1      -6.781   3.817  13.085  1.00  0.00    -0.364 OA
ATOM     16  H4  UNL     1      -7.494   4.363  12.776  1.00  0.00     0.213 HD
ENDBRANCH  13  15
ENDBRANCH   7  13
BRANCH   1  17
HETATM   17  C5  UNL     1      -2.641   4.779  12.590  1.00  0.00     0.133 C
BRANCH  17  18
HETATM   18  C4  UNL     1      -2.493   5.136  14.048  1.00  0.00     0.057 C
BRANCH  18  19
HETATM   19  C2  UNL     1      -3.273   6.377  14.397  1.00  0.00     0.052 C
HETATM   20  C1  UNL     1      -2.409   7.441  15.039  1.00  0.00     0.045 C
HETATM   21  C3  UNL     1      -4.404   6.074  15.358  1.00  0.00     0.045 C
BRANCH  19  22
HETATM   22  O1  UNL     1      -3.846   6.952  13.266  1.00  0.00    -0.391 OA
ATOM     23  H1  UNL     1      -4.763   7.099  13.466  1.00  0.00     0.210 HD
ENDBRANCH  19  22
ENDBRANCH  18  19
ENDBRANCH  17  18
ENDBRANCH   1  17
BRANCH   4  24
HETATM   24  C7  UNL     1      -3.354   0.087  10.862  1.00  0.00     0.254 C
BRANCH  24  25
HETATM   25  C8  UNL     1      -3.882  -0.938  11.858  1.00  0.00     0.403 C
HETATM   26  F1  UNL     1      -5.107  -1.393  11.481  1.00  0.00    -0.169 F
HETATM   27  F2  UNL     1      -3.014  -2.020  11.859  1.00  0.00    -0.169 F
HETATM   28  F3  UNL     1      -3.990  -0.378  13.119  1.00  0.00    -0.169 F
ENDBRANCH  24  25
ENDBRANCH   4  24
TORSDOF 10
ENDMDL