MODEL 3
REMARK VINA RESULT: -7.214307452      2.346      4.577
REMARK  6 active torsions:
REMARK  status: ('A' for Active; 'I' for Inactive)
REMARK    1  A    between atoms: C3_4  and  O1_5
REMARK    2  A    between atoms: C3_4  and  C4_7
REMARK    3  A    between atoms: C4_7  and  N1_9
REMARK    4  A    between atoms: C6_10  and  C7_11
REMARK       I    between atoms: C7_11  and  N2_13
REMARK    5  A    between atoms: C14_24  and  C15_25
REMARK    6  A    between atoms: C15_25  and  O3_27
ROOT
HETATM    1  N1  UNL     1      -3.878   4.685  13.462  1.00  0.00    -0.258 NA
HETATM    2  C6  UNL     1      -4.279   3.561  12.585  1.00  0.00     0.161 C
HETATM    3  C12 UNL     1      -5.782   3.823  12.392  1.00  0.00     0.110 C
HETATM    4  C13 UNL     1      -6.124   4.204  13.841  1.00  0.00     0.264 C
HETATM    5  F4  UNL     1      -6.537   3.041  14.427  1.00  0.00    -0.204 F
HETATM    6  F5  UNL     1      -7.106   5.155  13.733  1.00  0.00    -0.204 F
HETATM    7  C14 UNL     1      -4.830   4.738  14.422  1.00  0.00     0.164 C
ENDROOT
BRANCH   2   8
HETATM    8  C7  UNL     1      -4.126   2.246  13.168  1.00  0.00     0.238 C
HETATM    9  O2  UNL     1      -3.857   2.006  14.389  1.00  0.00    -0.272 OA
HETATM   10  N2  UNL     1      -4.277   1.090  12.353  1.00  0.00    -0.345 N
HETATM   11  C8  UNL     1      -4.181  -0.315  12.710  1.00  0.00     0.132 C
HETATM   12  C11 UNL     1      -4.556   1.112  10.939  1.00  0.00     0.204 C
HETATM   13  C9  UNL     1      -3.493  -0.915  11.518  1.00  0.00     0.100 C
HETATM   14  C10 UNL     1      -3.601   0.071  10.387  1.00  0.00     0.261 C
HETATM   15  F2  UNL     1      -4.076  -0.504   9.227  1.00  0.00    -0.204 F
HETATM   16  F3  UNL     1      -2.354   0.636  10.200  1.00  0.00    -0.204 F
ENDBRANCH   2   8
BRANCH   1  17
HETATM   17  C4  UNL     1      -3.360   5.643  12.640  1.00  0.00     0.021 C
HETATM   18  C5  UNL     1      -3.984   6.926  12.281  1.00  0.00     0.065 C
BRANCH  17  19
HETATM   19  C3  UNL     1      -1.924   5.931  12.917  1.00  0.00     0.116 C
HETATM   20  C2  UNL     1      -0.903   5.454  12.245  1.00  0.00     0.124 C
HETATM   21  C1  UNL     1      -0.993   4.535  11.078  1.00  0.00     0.085 C
HETATM   22  F1  UNL     1       0.364   5.811  12.621  1.00  0.00    -0.208 F
BRANCH  19  23
HETATM   23  O1  UNL     1      -1.547   6.780  13.981  1.00  0.00    -0.357 OA
ATOM     24  H1  UNL     1      -0.643   7.068  13.930  1.00  0.00     0.218 HD
ENDBRANCH  19  23
ENDBRANCH  17  19
ENDBRANCH   1  17
BRANCH   7  25
HETATM   25  C15 UNL     1      -5.185   5.995  15.167  1.00  0.00     0.138 C
HETATM   26  C16 UNL     1      -6.021   5.658  16.415  1.00  0.00     0.041 C
BRANCH  25  27
HETATM   27  O3  UNL     1      -3.993   6.498  15.702  1.00  0.00    -0.394 OA
ATOM     28  H3  UNL     1      -3.989   7.432  15.529  1.00  0.00     0.210 HD
ENDBRANCH  25  27
ENDBRANCH   7  25
TORSDOF 6
ENDMDL