MODEL 2
REMARK VINA RESULT: -8.005414665      1.482      1.700
REMARK  5 active torsions:
REMARK  status: ('A' for Active; 'I' for Inactive)
REMARK    1  A    between atoms: C1_2  and  C2_4
REMARK    2  A    between atoms: N2_8  and  C5_9
REMARK    3  A    between atoms: C5_9  and  N3_10
REMARK    4  A    between atoms: C5_9  and  C12_20
REMARK       I    between atoms: N3_10  and  C6_12
REMARK    5  A    between atoms: C6_12  and  C7_14
ROOT
HETATM    1  C5  UNL     1      -4.926   3.646  14.410  1.00  0.00     0.239 C
ENDROOT
BRANCH   1   2
HETATM    2  N2  UNL     1      -5.094   3.022  15.601  1.00  0.00    -0.346 N
HETATM    3  C2  UNL     1      -4.696   1.913  16.249  1.00  0.00     0.256 C
HETATM    4  F1  UNL     1      -3.419   1.998  16.841  1.00  0.00    -0.209 F
HETATM    5  C3  UNL     1      -5.673   2.319  17.404  1.00  0.00     0.096 C
HETATM    6  C4  UNL     1      -6.314   3.220  16.363  1.00  0.00     0.128 C
BRANCH   3   7
HETATM    7  C1  UNL     1      -4.996   0.530  15.854  1.00  0.00     0.291 C
HETATM    8  N1  UNL     1      -4.740  -0.070  14.601  1.00  0.00    -0.057 NA
HETATM    9  O1  UNL     1      -5.544  -0.225  16.719  1.00  0.00    -0.271 OA
ENDBRANCH   3   7
ENDBRANCH   1   2
BRANCH   1  10
HETATM   10  N3  UNL     1      -4.326   2.948  13.300  1.00  0.00    -0.336 N
HETATM   11  C6  UNL     1      -5.044   2.635  12.124  1.00  0.00     0.223 C
HETATM   12  O2  UNL     1      -6.249   2.981  12.058  1.00  0.00    -0.273 OA
ATOM     13  H3  UNL     1      -3.347   2.670  13.367  1.00  0.00     0.164 HD
BRANCH  11  14
HETATM   14  C7  UNL     1      -4.461   1.922  10.969  1.00  0.00     0.080 C
HETATM   15  C8  UNL     1      -4.693   0.412  11.087  1.00  0.00     0.017 C
HETATM   16  C9  UNL     1      -3.633  -0.180  10.176  1.00  0.00     0.038 C
HETATM   17  C10 UNL     1      -2.445   0.683  10.467  1.00  0.00     0.171 C
HETATM   18  F2  UNL     1      -1.714   0.073  11.474  1.00  0.00    -0.249 F
HETATM   19  C11 UNL     1      -2.967   2.040  10.868  1.00  0.00     0.051 C
ENDBRANCH  11  14
ENDBRANCH   1  10
BRANCH   1  20
HETATM   20  C12 UNL     1      -4.244   4.990  14.520  1.00  0.00     0.225 C
HETATM   21 CL1  UNL     1      -4.937   5.977  15.786  1.00  0.00    -0.080 Cl
HETATM   22 CL2  UNL     1      -2.483   4.800  14.697  1.00  0.00    -0.080 Cl
HETATM   23 CL3  UNL     1      -4.492   5.857  12.960  1.00  0.00    -0.080 Cl
ENDBRANCH   1  20
TORSDOF 5
ENDMDL