MODEL 5
REMARK VINA RESULT: -6.985895904      4.352      5.711
REMARK  5 active torsions:
REMARK  status: ('A' for Active; 'I' for Inactive)
REMARK    1  A    between atoms: C3_6  and  O2_7
REMARK    2  A    between atoms: O2_7  and  C4_8
REMARK    3  A    between atoms: C4_8  and  C5_9
REMARK       I    between atoms: N2_13  and  C9_14
REMARK    4  A    between atoms: C9_14  and  C10_16
REMARK    5  A    between atoms: C10_16  and  C11_19
ROOT
HETATM    1  C5  UNL     1      -3.025   5.071  14.259  1.00  0.00     0.111 C
HETATM    2  C6  UNL     1      -4.101   6.162  14.159  1.00  0.00     0.029 C
HETATM    3  C7  UNL     1      -3.574   6.985  13.012  1.00  0.00     0.022 C
HETATM    4  C8  UNL     1      -2.855   5.977  12.144  1.00  0.00     0.126 C
HETATM    5  N2  UNL     1      -2.949   4.695  12.852  1.00  0.00    -0.342 N
HETATM    6  C9  UNL     1      -2.985   3.434  12.267  1.00  0.00     0.268 C
HETATM    7  O3  UNL     1      -3.119   2.435  13.087  1.00  0.00    -0.269 OA
ENDROOT
BRANCH   1   8
HETATM    8  C4  UNL     1      -3.418   4.010  15.205  1.00  0.00     0.193 C
BRANCH   8   9
HETATM    9  O2  UNL     1      -4.809   4.160  15.414  1.00  0.00    -0.381 OA
BRANCH   9  10
HETATM   10  C3  UNL     1      -5.320   2.925  15.751  1.00  0.00     0.157 C
HETATM   11  C2  UNL     1      -4.116   2.067  16.168  1.00  0.00     0.157 C
HETATM   12  N1  UNL     1      -4.659   0.742  16.403  1.00  0.00    -0.341 N
HETATM   13  C1  UNL     1      -5.769   0.660  17.286  1.00  0.00     0.316 C
ATOM     14  H1  UNL     1      -4.264  -0.088  15.958  1.00  0.00     0.164 HD
HETATM   15  O1  UNL     1      -6.204  -0.461  17.655  1.00  0.00    -0.247 OA
HETATM   16  N3  UNL     1      -6.356   1.877  17.726  1.00  0.00    -0.341 N
HETATM   17  C12 UNL     1      -6.280   3.059  16.898  1.00  0.00     0.157 C
ATOM     18  H3  UNL     1      -6.832   1.916  18.628  1.00  0.00     0.164 HD
ENDBRANCH   9  10
ENDBRANCH   8   9
ENDBRANCH   1   8
BRANCH   6  19
HETATM   19  C10 UNL     1      -2.898   3.035  10.866  1.00  0.00     0.290 C
HETATM   20 CL1  UNL     1      -3.884   1.529  10.578  1.00  0.00    -0.082 Cl
HETATM   21 CL2  UNL     1      -3.629   4.251   9.784  1.00  0.00    -0.082 Cl
BRANCH  19  22
HETATM   22  C11 UNL     1      -1.541   2.691  10.349  1.00  0.00     0.431 C
HETATM   23  F1  UNL     1      -0.529   3.286  11.085  1.00  0.00    -0.167 F
HETATM   24  F2  UNL     1      -1.326   2.942   9.024  1.00  0.00    -0.167 F
HETATM   25  F3  UNL     1      -1.300   1.305  10.492  1.00  0.00    -0.167 F
ENDBRANCH  19  22
ENDBRANCH   6  19
TORSDOF 5
ENDMDL