MODEL 3
REMARK VINA RESULT: -7.587109263      0.998      1.625
REMARK  7 active torsions:
REMARK  status: ('A' for Active; 'I' for Inactive)
REMARK       I    between atoms: N1_2  and  C2_4
REMARK    1  A    between atoms: C2_4  and  C3_6
REMARK    2  A    between atoms: N2_8  and  C5_9
REMARK    3  A    between atoms: C5_9  and  C7_11
REMARK    4  A    between atoms: N3_16  and  C12_17
REMARK    5  A    between atoms: C12_17  and  C13_19
REMARK    6  A    between atoms: C13_19  and  O2_20
REMARK    7  A    between atoms: C13_19  and  C14_23
ROOT
HETATM    1  C3  UNL     1      -4.744   3.135  12.940  1.00  0.00     0.344 C
HETATM    2  C4  UNL     1      -4.983   4.282  11.996  1.00  0.00     0.318 C
HETATM    3  N2  UNL     1      -4.934   5.493  12.767  1.00  0.00     0.097 N
HETATM    4  C10 UNL     1      -5.836   5.553  13.874  1.00  0.00     0.303 C
HETATM    5  C11 UNL     1      -6.557   4.221  13.942  1.00  0.00     0.306 C
HETATM    6  N3  UNL     1      -5.662   3.118  14.071  1.00  0.00     0.130 N
ENDROOT
BRANCH   6   7
HETATM    7  C12 UNL     1      -4.854   3.099  15.256  1.00  0.00     0.396 C
HETATM    8 CL1  UNL     1      -3.194   3.539  14.715  1.00  0.00    -0.086 Cl
BRANCH   7   9
HETATM    9  C13 UNL     1      -4.787   1.799  15.976  1.00  0.00     0.346 C
HETATM   10  F1  UNL     1      -5.133   0.703  15.196  1.00  0.00    -0.198 F
BRANCH   9  11
HETATM   11  O2  UNL     1      -3.524   1.590  16.558  1.00  0.00    -0.352 OA
ATOM     12  H2  UNL     1      -3.450   0.722  16.938  1.00  0.00     0.213 HD
ENDBRANCH   9  11
BRANCH   9  13
HETATM   13  C14 UNL     1      -5.779   1.816  17.117  1.00  0.00     0.453 C
HETATM   14  F2  UNL     1      -5.506   0.953  18.128  1.00  0.00    -0.165 F
HETATM   15  F3  UNL     1      -7.051   1.516  16.617  1.00  0.00    -0.165 F
HETATM   16  F4  UNL     1      -5.878   3.137  17.566  1.00  0.00    -0.165 F
ENDBRANCH   9  13
ENDBRANCH   7   9
ENDBRANCH   6   7
BRANCH   1  17
HETATM   17  C2  UNL     1      -4.797   1.879  12.169  1.00  0.00     0.252 C
HETATM   18  N1  UNL     1      -3.818   0.887  12.427  1.00  0.00    -0.364 N
HETATM   19  C1  UNL     1      -3.784  -0.385  11.720  1.00  0.00     0.149 C
ATOM     20  H1  UNL     1      -3.108   1.072  13.136  1.00  0.00     0.161 HD
HETATM   21  O1  UNL     1      -5.671   1.646  11.292  1.00  0.00    -0.271 OA
ENDBRANCH   1  17
BRANCH   3  22
HETATM   22  C5  UNL     1      -4.883   6.683  11.972  1.00  0.00     0.222 C
HETATM   23  C6  UNL     1      -6.178   7.412  11.845  1.00  0.00     0.043 C
BRANCH  22  24
HETATM   24  C7  UNL     1      -3.772   7.551  12.467  1.00  0.00     0.010 C
HETATM   25  C8  UNL     1      -2.496   6.776  12.676  1.00  0.00     0.011 C
HETATM   26  C9  UNL     1      -3.480   8.708  11.538  1.00  0.00     0.011 C
ENDBRANCH  22  24
ENDBRANCH   3  22
TORSDOF 7
ENDMDL