MODEL 2
REMARK VINA RESULT: -8.598400010      0.877      1.278
REMARK  5 active torsions:
REMARK  status: ('A' for Active; 'I' for Inactive)
REMARK    1  A    between atoms: C3_6  and  C4_7
REMARK    2  A    between atoms: C4_7  and  N2_8
REMARK    3  A    between atoms: C8_12  and  C9_13
REMARK    4  A    between atoms: N3_20  and  C13_21
REMARK    5  A    between atoms: C13_21  and  C14_22
ROOT
HETATM    1  O1  UNL     1      -2.313   5.188   8.728  1.00  0.00    -0.247 OA
HETATM    2  C1  UNL     1      -3.062   5.021   9.724  1.00  0.00     0.316 C
HETATM    3  N1  UNL     1      -4.439   4.693   9.610  1.00  0.00    -0.342 N
ATOM      4  H1  UNL     1      -4.884   4.489   8.714  1.00  0.00     0.164 HD
HETATM    5  C2  UNL     1      -5.169   4.668  10.882  1.00  0.00     0.143 C
HETATM    6  C3  UNL     1      -4.440   3.854  11.898  1.00  0.00     0.056 C
HETATM    7  C12 UNL     1      -4.188   2.486  11.208  1.00  0.00     0.291 C
HETATM    8  N3  UNL     1      -3.036   1.962  11.931  1.00  0.00     0.097 N
HETATM    9  C15 UNL     1      -2.167   3.070  12.121  1.00  0.00     0.298 C
HETATM   10  C16 UNL     1      -3.020   4.329  12.113  1.00  0.00     0.131 C
HETATM   11  N4  UNL     1      -2.547   5.158  11.042  1.00  0.00    -0.336 N
ATOM     12  H4  UNL     1      -1.829   5.858  11.229  1.00  0.00     0.164 HD
ENDROOT
BRANCH   6  13
HETATM   13  C4  UNL     1      -5.227   3.653  13.129  1.00  0.00     0.078 C
BRANCH  13  14
HETATM   14  N2  UNL     1      -4.946   4.372  14.300  1.00  0.00    -0.373 N
HETATM   15  C5  UNL     1      -5.874   5.263  14.852  1.00  0.00     0.063 C
HETATM   16  C6  UNL     1      -6.044   5.124  16.360  1.00  0.00     0.045 C
HETATM   17  C7  UNL     1      -6.799   3.863  16.727  1.00  0.00     0.019 C
HETATM   18  C8  UNL     1      -5.729   2.832  17.095  1.00  0.00     0.095 C
HETATM   19  C10 UNL     1      -5.070   2.420  15.808  1.00  0.00     0.033 C
HETATM   20  C11 UNL     1      -4.237   3.516  15.230  1.00  0.00     0.127 C
BRANCH  18  21
HETATM   21  C9  UNL     1      -6.371   1.681  17.817  1.00  0.00     0.391 C
HETATM   22  F1  UNL     1      -5.502   0.612  17.871  1.00  0.00    -0.171 F
HETATM   23  F2  UNL     1      -6.569   2.100  19.138  1.00  0.00    -0.171 F
HETATM   24  F3  UNL     1      -7.607   1.344  17.315  1.00  0.00    -0.171 F
ENDBRANCH  18  21
ENDBRANCH  13  14
ENDBRANCH   6  13
BRANCH   8  25
HETATM   25  C13 UNL     1      -2.387   0.942  11.151  1.00  0.00     0.343 C
BRANCH  25  26
HETATM   26  C14 UNL     1      -3.267  -0.260  10.927  1.00  0.00     0.381 C
HETATM   27  F4  UNL     1      -3.564  -0.403   9.569  1.00  0.00    -0.213 F
HETATM   28  F5  UNL     1      -2.672  -1.445  11.300  1.00  0.00    -0.213 F
ENDBRANCH  25  26
ENDBRANCH   8  25
TORSDOF 5
ENDMDL