MODEL 5
REMARK VINA RESULT: -7.073188783      3.363      4.581
REMARK  7 active torsions:
REMARK  status: ('A' for Active; 'I' for Inactive)
REMARK    1  A    between atoms: C3_4  and  C4_5
REMARK    2  A    between atoms: C4_5  and  C5_6
REMARK    3  A    between atoms: C5_6  and  N2_7
REMARK    4  A    between atoms: C8_10  and  O1_11
REMARK    5  A    between atoms: C8_10  and  C9_13
REMARK    6  A    between atoms: C10_17  and  C11_18
REMARK    7  A    between atoms: C11_18  and  O2_19
ROOT
HETATM    1  N2  UNL     1      -4.746   1.892  13.289  1.00  0.00     0.099 N
HETATM    2  C6  UNL     1      -4.293   0.561  13.615  1.00  0.00     0.276 C
HETATM    3  C7  UNL     1      -4.244  -0.143  12.320  1.00  0.00     0.079 C
HETATM    4  C8  UNL     1      -3.772   0.912  11.352  1.00  0.00     0.190 C
HETATM    5  C10 UNL     1      -4.174   2.182  12.020  1.00  0.00     0.289 C
ENDROOT
BRANCH   1   6
HETATM    6  C5  UNL     1      -4.345   2.718  14.384  1.00  0.00     0.277 C
BRANCH   6   7
HETATM    7  C4  UNL     1      -5.242   3.848  14.741  1.00  0.00     0.070 C
BRANCH   7   8
HETATM    8  C3  UNL     1      -4.675   5.104  14.125  1.00  0.00    -0.039 A
HETATM    9  C2  UNL     1      -5.347   5.771  13.115  1.00  0.00     0.098 A
HETATM   10  N1  UNL     1      -4.871   6.899  12.542  1.00  0.00    -0.350 N
HETATM   11  C1  UNL     1      -5.608   7.573  11.481  1.00  0.00     0.156 C
HETATM   12  C14 UNL     1      -3.696   7.421  12.949  1.00  0.00     0.127 A
HETATM   13  C13 UNL     1      -2.975   6.807  13.952  1.00  0.00     0.073 A
HETATM   14 CL2  UNL     1      -3.022   8.884  12.247  1.00  0.00    -0.062 Cl
HETATM   15  C12 UNL     1      -3.474   5.651  14.531  1.00  0.00     0.035 A
HETATM   16 CL1  UNL     1      -1.450   7.469  14.494  1.00  0.00    -0.081 Cl
ENDBRANCH   7   8
ENDBRANCH   6   7
ENDBRANCH   1   6
BRANCH   5  17
HETATM   17  C11 UNL     1      -5.116   3.015  11.182  1.00  0.00     0.203 C
BRANCH  17  18
HETATM   18  O2  UNL     1      -6.408   2.563  11.182  1.00  0.00    -0.399 OA
ATOM     19  H2  UNL     1      -6.627   2.021  10.433  1.00  0.00     0.209 HD
ENDBRANCH  17  18
ENDBRANCH   5  17
BRANCH   4  20
HETATM   20  O1  UNL     1      -4.467   0.670  10.164  1.00  0.00    -0.379 OA
ATOM     21  H1  UNL     1      -4.158   1.326   9.550  1.00  0.00     0.211 HD
ENDBRANCH   4  20
BRANCH   4  22
HETATM   22  C9  UNL     1      -2.290   0.770  11.135  1.00  0.00     0.420 C
HETATM   23  F1  UNL     1      -1.950   1.016   9.799  1.00  0.00    -0.168 F
HETATM   24  F2  UNL     1      -1.522   1.632  11.869  1.00  0.00    -0.168 F
HETATM   25  F3  UNL     1      -1.844  -0.508  11.407  1.00  0.00    -0.168 F
ENDBRANCH   4  22
TORSDOF 7
ENDMDL