MODEL 2
REMARK VINA RESULT: -7.527723980      1.004      1.408
REMARK  7 active torsions:
REMARK  status: ('A' for Active; 'I' for Inactive)
REMARK    1  A    between atoms: C3_3  and  C4_4
REMARK    2  A    between atoms: C3_3  and  C5_6
REMARK    3  A    between atoms: C6_7  and  C7_8
REMARK    4  A    between atoms: C6_7  and  O2_16
REMARK    5  A    between atoms: C7_8  and  C8_9
REMARK    6  A    between atoms: O2_16  and  C15_17
REMARK    7  A    between atoms: C15_17  and  C16_18
ROOT
HETATM    1  C5  UNL     1     -45.148  70.740  -7.886  1.00  0.00     0.046 C
HETATM    2  C6  UNL     1     -46.124  70.050  -7.454  1.00  0.00     0.047 C
ENDROOT
BRANCH   2   3
HETATM    3  C7  UNL     1     -46.742  68.786  -7.789  1.00  0.00     0.070 C
BRANCH   3   4
HETATM    4  C8  UNL     1     -47.344  68.766  -9.163  1.00  0.00     0.002 C
HETATM    5  C9  UNL     1     -46.428  68.153 -10.237  1.00  0.00     0.084 C
HETATM    6  C10 UNL     1     -47.281  67.506 -11.163  1.00  0.00    -0.183 C
HETATM    7  C11 UNL     1     -48.215  66.900 -12.010  1.00  0.00     0.080 C
HETATM    8  C12 UNL     1     -49.601  67.003 -11.279  1.00  0.00     0.011 C
HETATM    9  C13 UNL     1     -49.599  68.062 -10.198  1.00  0.00     0.001 C
HETATM   10  C14 UNL     1     -48.684  68.050  -9.075  1.00  0.00     0.006 C
ENDBRANCH   3   4
ENDBRANCH   2   3
BRANCH   2  11
HETATM   11  O2  UNL     1     -46.798  70.704  -6.323  1.00  0.00    -0.355 OA
BRANCH  11  12
HETATM   12  C15 UNL     1     -47.285  72.011  -6.567  1.00  0.00     0.179 C
BRANCH  12  13
HETATM   13  C16 UNL     1     -48.758  71.986  -6.225  1.00  0.00     0.002 C
HETATM   14  C17 UNL     1     -49.150  73.301  -5.613  1.00  0.00     0.011 C
HETATM   15  C18 UNL     1     -49.516  71.698  -7.508  1.00  0.00     0.011 C
ENDBRANCH  12  13
ENDBRANCH  11  12
ENDBRANCH   2  11
BRANCH   1  16
HETATM   16  C3  UNL     1     -44.148  70.645  -8.915  1.00  0.00    -0.000 C
HETATM   17  C2  UNL     1     -43.169  69.695  -8.734  1.00  0.00    -0.017 C
HETATM   18  C1  UNL     1     -42.096  69.469  -9.707  1.00  0.00     0.037 C
BRANCH  16  19
HETATM   19  C4  UNL     1     -43.993  71.368 -10.145  1.00  0.00     0.269 C
HETATM   20  O1  UNL     1     -44.462  72.444 -10.494  1.00  0.00    -0.301 OA
ENDBRANCH  16  19
ENDBRANCH   1  16
TORSDOF 7
ENDMDL