MODEL 1
REMARK VINA RESULT: -7.248850950      0.000      0.000
REMARK  9 active torsions:
REMARK  status: ('A' for Active; 'I' for Inactive)
REMARK    1  A    between atoms: C2_2  and  C3_3
REMARK    2  A    between atoms: C4_4  and  C5_5
REMARK    3  A    between atoms: C4_4  and  C8_8
REMARK    4  A    between atoms: C5_5  and  C6_6
REMARK    5  A    between atoms: C10_10  and  C11_11
REMARK    6  A    between atoms: C11_11  and  C12_12
REMARK    7  A    between atoms: C11_11  and  O2_15
REMARK    8  A    between atoms: C12_12  and  O1_13
REMARK    9  A    between atoms: O2_15  and  C13_16
ROOT
HETATM    1  C8  UNL     1     -46.130  70.672  -7.904  1.00  0.00    -0.024 A
HETATM    2  C9  UNL     1     -46.577  69.343  -8.129  1.00  0.00     0.022 A
HETATM    3  C10 UNL     1     -46.143  68.564  -9.189  1.00  0.00    -0.026 A
HETATM    4  C15 UNL     1     -45.231  69.153 -10.038  1.00  0.00     0.010 A
HETATM    5  C16 UNL     1     -44.769  70.447  -9.847  1.00  0.00     0.008 A
HETATM    6  C17 UNL     1     -45.235  71.223  -8.744  1.00  0.00    -0.051 A
HETATM    7  C18 UNL     1     -44.562  72.511  -8.543  1.00  0.00     0.049 C
ENDROOT
BRANCH   1   8
HETATM    8  C4  UNL     1     -46.834  71.478  -6.825  1.00  0.00    -0.051 C
HETATM    9  C3  UNL     1     -48.242  71.614  -7.120  1.00  0.00    -0.019 C
BRANCH   9  10
HETATM   10  C2  UNL     1     -49.192  72.689  -6.945  1.00  0.00     0.023 C
HETATM   11  C1  UNL     1     -49.295  73.239  -5.537  1.00  0.00     0.009 C
ENDBRANCH   9  10
BRANCH   8  12
HETATM   12  C5  UNL     1     -46.099  71.697  -5.593  1.00  0.00     0.039 C
BRANCH  12  13
HETATM   13  C6  UNL     1     -45.615  70.445  -4.858  1.00  0.00     0.000 C
HETATM   14  C7  UNL     1     -44.213  70.043  -5.206  1.00  0.00     0.005 C
ENDBRANCH  12  13
ENDBRANCH   8  12
ENDBRANCH   1   8
BRANCH   3  15
HETATM   15  C11 UNL     1     -46.687  67.203  -9.423  1.00  0.00     0.177 C
BRANCH  15  16
HETATM   16  C12 UNL     1     -45.817  66.100  -8.857  1.00  0.00     0.201 C
BRANCH  16  17
HETATM   17  O1  UNL     1     -46.307  65.729  -7.613  1.00  0.00    -0.398 OA
ATOM     18  H1  UNL     1     -46.744  64.889  -7.688  1.00  0.00     0.209 HD
ENDBRANCH  16  17
ENDBRANCH  15  16
BRANCH  15  19
HETATM   19  O2  UNL     1     -46.820  67.005 -10.786  1.00  0.00    -0.379 OA
BRANCH  19  20
HETATM   20  C13 UNL     1     -48.057  67.375 -11.280  1.00  0.00     0.164 C
HETATM   21  C14 UNL     1     -49.065  66.932 -10.215  1.00  0.00     0.033 C
ENDBRANCH  19  20
ENDBRANCH  15  19
ENDBRANCH   3  15
TORSDOF 9
ENDMDL