MODEL 3
REMARK VINA RESULT: -6.728973799      2.191      3.036
REMARK  10 active torsions:
REMARK  status: ('A' for Active; 'I' for Inactive)
REMARK    1  A    between atoms: C2_2  and  C3_3
REMARK    2  A    between atoms: C3_3  and  C4_4
REMARK    3  A    between atoms: C6_6  and  C7_7
REMARK    4  A    between atoms: C7_7  and  C8_8
REMARK    5  A    between atoms: C8_8  and  O1_9
REMARK    6  A    between atoms: O1_9  and  C9_10
REMARK    7  A    between atoms: C12_13  and  C13_14
REMARK    8  A    between atoms: C13_14  and  C14_15
REMARK    9  A    between atoms: C14_15  and  C15_16
REMARK   10  A    between atoms: C18_19  and  O2_20
ROOT
HETATM    1  C4  UNL     1     -45.282  67.627  -7.686  1.00  0.00    -0.024 A
HETATM    2  C5  UNL     1     -45.305  68.997  -7.532  1.00  0.00     0.017 A
HETATM    3  C6  UNL     1     -46.416  69.753  -7.800  1.00  0.00    -0.055 A
HETATM    4  C11 UNL     1     -47.548  69.113  -8.238  1.00  0.00     0.017 A
HETATM    5  C12 UNL     1     -47.584  67.747  -8.410  1.00  0.00    -0.024 A
HETATM    6  C18 UNL     1     -46.446  67.014  -8.131  1.00  0.00     0.078 A
ENDROOT
BRANCH   3   7
HETATM    7  C7  UNL     1     -46.441  71.260  -7.630  1.00  0.00     0.065 C
BRANCH   7   8
HETATM    8  C8  UNL     1     -46.984  71.631  -6.298  1.00  0.00     0.172 C
BRANCH   8   9
HETATM    9  O1  UNL     1     -47.613  72.812  -6.259  1.00  0.00    -0.391 OA
BRANCH   9  10
HETATM   10  C9  UNL     1     -48.939  72.976  -6.152  1.00  0.00     0.163 C
HETATM   11  C10 UNL     1     -49.831  72.531  -7.262  1.00  0.00     0.033 C
ENDBRANCH   9  10
ENDBRANCH   8   9
ENDBRANCH   7   8
ENDBRANCH   3   7
BRANCH   1  12
HETATM   12  C3  UNL     1     -44.080  66.823  -7.391  1.00  0.00     0.041 C
BRANCH  12  13
HETATM   13  C2  UNL     1     -43.606  66.989  -5.969  1.00  0.00     0.000 C
HETATM   14  C1  UNL     1     -44.391  65.965  -5.139  1.00  0.00     0.005 C
ENDBRANCH  12  13
ENDBRANCH   1  12
BRANCH   5  15
HETATM   15  C13 UNL     1     -48.833  67.115  -8.870  1.00  0.00     0.042 C
BRANCH  15  16
HETATM   16  C14 UNL     1     -49.325  67.752 -10.139  1.00  0.00     0.008 C
BRANCH  16  17
HETATM   17  C15 UNL     1     -49.185  66.850 -11.316  1.00  0.00    -0.023 C
HETATM   18  C16 UNL     1     -50.307  66.931 -12.302  1.00  0.00     0.009 C
HETATM   19  C17 UNL     1     -47.884  67.087 -12.039  1.00  0.00     0.009 C
ENDBRANCH  16  17
ENDBRANCH  15  16
ENDBRANCH   5  15
BRANCH   6  20
HETATM   20  O2  UNL     1     -46.496  65.650  -8.310  1.00  0.00    -0.360 OA
ATOM     21  H2  UNL     1     -47.219  65.250  -8.778  1.00  0.00     0.217 HD
ENDBRANCH   6  20
TORSDOF 10
ENDMDL