MODEL 5
REMARK VINA RESULT: -6.797756510      2.284      5.307
REMARK  10 active torsions:
REMARK  status: ('A' for Active; 'I' for Inactive)
REMARK    1  A    between atoms: C3_3  and  C4_4
REMARK    2  A    between atoms: C3_3  and  C9_11
REMARK    3  A    between atoms: C4_4  and  O2_6
REMARK    4  A    between atoms: O2_6  and  C5_7
REMARK    5  A    between atoms: C5_7  and  C6_8
REMARK    6  A    between atoms: C9_11  and  C15_17
REMARK    7  A    between atoms: C10_12  and  C11_13
REMARK    8  A    between atoms: C11_13  and  C12_14
REMARK    9  A    between atoms: C15_17  and  C16_18
REMARK   10  A    between atoms: C16_18  and  C17_19
ROOT
HETATM    1  C1  UNL     1     -43.553  71.566 -10.214  1.00  0.00     0.037 C
HETATM    2  C2  UNL     1     -44.492  70.440 -10.222  1.00  0.00    -0.013 C
HETATM    3  C3  UNL     1     -44.630  69.611  -9.183  1.00  0.00     0.041 C
ENDROOT
BRANCH   3   4
HETATM    4  C4  UNL     1     -43.834  69.825  -7.997  1.00  0.00     0.293 C
HETATM    5  O1  UNL     1     -42.656  69.313  -7.916  1.00  0.00    -0.259 OA
BRANCH   4   6
HETATM    6  O2  UNL     1     -44.160  70.536  -6.862  1.00  0.00    -0.317 OA
BRANCH   6   7
HETATM    7  C5  UNL     1     -44.883  71.752  -6.901  1.00  0.00     0.183 C
BRANCH   7   8
HETATM    8  C6  UNL     1     -46.174  71.682  -6.165  1.00  0.00     0.002 C
HETATM    9  C7  UNL     1     -46.041  70.810  -4.935  1.00  0.00     0.011 C
HETATM   10  C8  UNL     1     -47.213  71.109  -7.120  1.00  0.00     0.011 C
ENDBRANCH   7   8
ENDBRANCH   6   7
ENDBRANCH   4   6
ENDBRANCH   3   4
BRANCH   3  11
HETATM   11  C9  UNL     1     -45.547  68.459  -9.344  1.00  0.00    -0.046 C
HETATM   12  C10 UNL     1     -46.352  68.397 -10.361  1.00  0.00    -0.018 C
BRANCH  12  13
HETATM   13  C11 UNL     1     -47.294  67.270 -10.564  1.00  0.00     0.031 C
BRANCH  13  14
HETATM   14  C12 UNL     1     -48.718  67.763 -10.699  1.00  0.00    -0.019 C
HETATM   15  C13 UNL     1     -49.547  66.778 -11.476  1.00  0.00     0.010 C
HETATM   16  C14 UNL     1     -49.384  67.992  -9.369  1.00  0.00     0.010 C
ENDBRANCH  13  14
ENDBRANCH  12  13
BRANCH  11  17
HETATM   17  C15 UNL     1     -45.514  67.362  -8.376  1.00  0.00     0.039 C
BRANCH  17  18
HETATM   18  C16 UNL     1     -46.432  67.505  -7.191  1.00  0.00     0.004 C
BRANCH  18  19
HETATM   19  C17 UNL     1     -45.554  67.356  -5.953  1.00  0.00    -0.004 C
HETATM   20  C18 UNL     1     -44.303  66.576  -6.258  1.00  0.00     0.005 C
ENDBRANCH  18  19
ENDBRANCH  17  18
ENDBRANCH  11  17
ENDBRANCH   3  11
TORSDOF 10
ENDMDL