MODEL 5
REMARK VINA RESULT: -6.623500532      0.765      1.117
REMARK  10 active torsions:
REMARK  status: ('A' for Active; 'I' for Inactive)
REMARK    1  A    between atoms: O1_2  and  C2_3
REMARK    2  A    between atoms: C2_3  and  C5_6
REMARK    3  A    between atoms: C5_6  and  O2_7
REMARK    4  A    between atoms: C5_6  and  C6_9
REMARK    5  A    between atoms: C5_6  and  C14_17
REMARK    6  A    between atoms: C6_9  and  C7_10
REMARK    7  A    between atoms: C7_10  and  C8_11
REMARK    8  A    between atoms: C8_11  and  C9_12
REMARK    9  A    between atoms: C9_12  and  C10_13
REMARK   10  A    between atoms: C10_13  and  C11_14
ROOT
HETATM    1  C5  UNL     1     -46.424  70.942  -7.294  1.00  0.00     0.092 C
ENDROOT
BRANCH   1   2
HETATM    2  C2  UNL     1     -45.229  71.547  -7.986  1.00  0.00     0.084 C
HETATM    3  C3  UNL     1     -45.360  73.042  -7.993  1.00  0.00     0.049 C
HETATM    4  C4  UNL     1     -44.009  71.262  -7.085  1.00  0.00     0.049 C
BRANCH   2   5
HETATM    5  O1  UNL     1     -44.969  71.019  -9.216  1.00  0.00    -0.383 OA
HETATM    6  C1  UNL     1     -44.238  71.801 -10.058  1.00  0.00     0.202 C
ENDBRANCH   2   5
ENDBRANCH   1   2
BRANCH   1   7
HETATM    7  O2  UNL     1     -45.942  70.354  -6.115  1.00  0.00    -0.386 OA
ATOM      8  H2  UNL     1     -45.254  69.753  -6.378  1.00  0.00     0.210 HD
ENDBRANCH   1   7
BRANCH   1   9
HETATM    9  C6  UNL     1     -46.926  69.737  -8.107  1.00  0.00     0.041 C
BRANCH   9  10
HETATM   10  C7  UNL     1     -46.390  68.425  -7.614  1.00  0.00     0.003 C
BRANCH  10  11
HETATM   11  C8  UNL     1     -45.997  67.540  -8.779  1.00  0.00     0.000 C
BRANCH  11  12
HETATM   12  C9  UNL     1     -46.536  68.065 -10.077  1.00  0.00     0.000 C
BRANCH  12  13
HETATM   13  C10 UNL     1     -47.512  67.116 -10.710  1.00  0.00     0.004 C
BRANCH  13  14
HETATM   14  C11 UNL     1     -48.878  67.754 -10.876  1.00  0.00    -0.023 C
HETATM   15  C12 UNL     1     -49.739  67.012 -11.846  1.00  0.00     0.009 C
HETATM   16  C13 UNL     1     -49.565  67.778  -9.530  1.00  0.00     0.009 C
ENDBRANCH  13  14
ENDBRANCH  12  13
ENDBRANCH  11  12
ENDBRANCH  10  11
ENDBRANCH   9  10
ENDBRANCH   1   9
BRANCH   1  17
HETATM   17  C14 UNL     1     -47.552  71.804  -6.978  1.00  0.00     0.023 C
HETATM   18  C15 UNL     1     -47.880  72.020  -5.524  1.00  0.00     0.007 C
HETATM   19  C16 UNL     1     -49.100  72.947  -5.667  1.00  0.00     0.001 C
HETATM   20  C17 UNL     1     -49.726  72.596  -7.008  1.00  0.00     0.001 C
HETATM   21  C18 UNL     1     -48.901  71.395  -7.516  1.00  0.00     0.007 C
ENDBRANCH   1  17
TORSDOF 10
ENDMDL