MODEL 2
REMARK VINA RESULT: -6.942342649      0.359      1.158
REMARK  8 active torsions:
REMARK  status: ('A' for Active; 'I' for Inactive)
REMARK    1  A    between atoms: C2_2  and  C3_3
REMARK    2  A    between atoms: C3_3  and  C7_9
REMARK    3  A    between atoms: C4_4  and  C6_6
REMARK    4  A    between atoms: C6_6  and  O1_7
REMARK    5  A    between atoms: C7_9  and  O2_10
REMARK    6  A    between atoms: O2_10  and  C8_11
REMARK    7  A    between atoms: C8_11  and  C9_12
REMARK    8  A    between atoms: C9_12  and  C10_13
ROOT
HETATM    1  C7  UNL     1     -45.301  70.244  -8.093  1.00  0.00     0.076 C
HETATM    2  C16 UNL     1     -44.813  70.699  -9.201  1.00  0.00    -0.054 C
HETATM    3  C17 UNL     1     -44.828  69.697 -10.372  1.00  0.00     0.046 C
HETATM    4  C18 UNL     1     -44.229  71.987  -9.587  1.00  0.00     0.046 C
ENDROOT
BRANCH   1   5
HETATM    5  C3  UNL     1     -45.464  70.850  -6.778  1.00  0.00    -0.021 C
HETATM    6  C4  UNL     1     -46.218  71.885  -6.548  1.00  0.00    -0.051 C
HETATM    7  C5  UNL     1     -46.116  72.587  -5.208  1.00  0.00     0.046 C
BRANCH   5   8
HETATM    8  C2  UNL     1     -44.568  70.454  -5.634  1.00  0.00     0.037 C
HETATM    9  C1  UNL     1     -43.229  69.971  -6.044  1.00  0.00     0.010 C
ENDBRANCH   5   8
BRANCH   6  10
HETATM   10  C6  UNL     1     -47.332  72.383  -7.371  1.00  0.00     0.198 C
BRANCH  10  11
HETATM   11  O1  UNL     1     -46.806  73.656  -7.868  1.00  0.00    -0.397 OA
ATOM     12  H1  UNL     1     -46.821  73.528  -8.809  1.00  0.00     0.209 HD
ENDBRANCH  10  11
ENDBRANCH   6  10
ENDBRANCH   1   5
BRANCH   1  13
HETATM   13  O2  UNL     1     -45.799  68.888  -8.168  1.00  0.00    -0.350 OA
BRANCH  13  14
HETATM   14  C8  UNL     1     -47.233  68.771  -8.075  1.00  0.00     0.176 C
BRANCH  14  15
HETATM   15  C9  UNL     1     -47.743  67.395  -8.211  1.00  0.00     0.031 C
BRANCH  15  16
HETATM   16  C10 UNL     1     -48.202  66.903  -9.523  1.00  0.00    -0.013 C
HETATM   17  C11 UNL     1     -47.128  66.783 -10.545  1.00  0.00     0.005 C
HETATM   18  C12 UNL     1     -47.432  67.402 -11.874  1.00  0.00     0.000 C
HETATM   19  C13 UNL     1     -48.841  67.122 -12.354  1.00  0.00     0.000 C
HETATM   20  C14 UNL     1     -49.868  67.478 -11.304  1.00  0.00     0.000 C
HETATM   21  C15 UNL     1     -49.204  67.954 -10.034  1.00  0.00     0.005 C
ENDBRANCH  15  16
ENDBRANCH  14  15
ENDBRANCH  13  14
ENDBRANCH   1  13
TORSDOF 8
ENDMDL