MODEL 3
REMARK VINA RESULT: -6.678947569      2.142      4.243
REMARK  8 active torsions:
REMARK  status: ('A' for Active; 'I' for Inactive)
REMARK    1  A    between atoms: C2_2  and  C3_3
REMARK    2  A    between atoms: C3_3  and  C4_4
REMARK    3  A    between atoms: C7_7  and  O1_8
REMARK    4  A    between atoms: O1_8  and  C8_9
REMARK    5  A    between atoms: C8_9  and  C9_10
REMARK    6  A    between atoms: C9_10  and  C10_11
REMARK    7  A    between atoms: C10_11  and  C11_12
REMARK    8  A    between atoms: C11_12  and  O2_13
ROOT
HETATM    1  O1  UNL     1     -43.339  68.691  -8.048  1.00  0.00    -0.350 OA
ENDROOT
BRANCH   1   2
HETATM    2  C7  UNL     1     -44.527  68.040  -8.269  1.00  0.00     0.077 A
HETATM    3  C5  UNL     1     -45.415  68.171  -9.409  1.00  0.00    -0.025 A
HETATM    4  C4  UNL     1     -46.481  67.395  -9.306  1.00  0.00    -0.064 A
HETATM    5  C6  UNL     1     -45.202  69.070 -10.605  1.00  0.00     0.051 C
HETATM    6  C18 UNL     1     -46.346  66.668  -8.017  1.00  0.00     0.071 A
HETATM    7  C16 UNL     1     -45.066  67.162  -7.450  1.00  0.00    -0.046 A
HETATM    8  C17 UNL     1     -44.545  66.676  -6.134  1.00  0.00     0.046 C
BRANCH   4   9
HETATM    9  C3  UNL     1     -47.618  67.237 -10.251  1.00  0.00     0.061 C
BRANCH   9  10
HETATM   10  C2  UNL     1     -48.928  67.334  -9.554  1.00  0.00    -0.033 C
HETATM   11  C1  UNL     1     -49.368  68.509  -9.135  1.00  0.00     0.007 C
ENDBRANCH   9  10
ENDBRANCH   4   9
ENDBRANCH   1   2
BRANCH   1  12
HETATM   12  C8  UNL     1     -43.252  70.113  -7.896  1.00  0.00     0.176 C
BRANCH  12  13
HETATM   13  C9  UNL     1     -44.059  70.476  -6.703  1.00  0.00     0.038 C
BRANCH  13  14
HETATM   14  C10 UNL     1     -44.923  71.680  -6.863  1.00  0.00    -0.017 C
HETATM   15  C12 UNL     1     -45.687  72.006  -5.610  1.00  0.00     0.012 C
HETATM   16  C13 UNL     1     -47.066  71.438  -5.754  1.00  0.00     0.001 C
HETATM   17  C14 UNL     1     -47.010  70.613  -7.022  1.00  0.00     0.001 C
HETATM   18  C15 UNL     1     -46.025  71.421  -7.861  1.00  0.00     0.012 C
BRANCH  14  19
HETATM   19  C11 UNL     1     -44.168  72.913  -7.271  1.00  0.00     0.173 C
BRANCH  19  20
HETATM   20  O2  UNL     1     -44.916  74.015  -6.807  1.00  0.00    -0.400 OA
ATOM     21  H2  UNL     1     -44.316  74.559  -6.309  1.00  0.00     0.209 HD
ENDBRANCH  19  20
ENDBRANCH  14  19
ENDBRANCH  13  14
ENDBRANCH  12  13
ENDBRANCH   1  12
TORSDOF 8
ENDMDL