MODEL 1
REMARK VINA RESULT: -7.060114938      0.000      0.000
REMARK  10 active torsions:
REMARK  status: ('A' for Active; 'I' for Inactive)
REMARK    1  A    between atoms: C2_2  and  C3_3
REMARK    2  A    between atoms: C3_3  and  C4_4
REMARK    3  A    between atoms: C4_4  and  C5_5
REMARK    4  A    between atoms: C9_9  and  C10_10
REMARK    5  A    between atoms: C10_10  and  C11_11
REMARK    6  A    between atoms: C11_11  and  C12_12
REMARK    7  A    between atoms: C12_12  and  O1_13
REMARK    8  A    between atoms: C13_15  and  C14_16
REMARK    9  A    between atoms: C14_16  and  C15_17
REMARK   10  A    between atoms: C15_17  and  O2_20
ROOT
HETATM    1  C5  UNL     1     -46.865  68.521  -8.791  1.00  0.00    -0.057 A
HETATM    2  C6  UNL     1     -45.861  68.872  -9.626  1.00  0.00     0.014 A
HETATM    3  C7  UNL     1     -45.186  70.073  -9.398  1.00  0.00    -0.055 A
HETATM    4  C8  UNL     1     -44.088  70.416 -10.353  1.00  0.00     0.049 C
HETATM    5  C9  UNL     1     -45.504  70.913  -8.353  1.00  0.00    -0.046 A
HETATM    6  C13 UNL     1     -46.532  70.515  -7.537  1.00  0.00    -0.048 A
HETATM    7  C18 UNL     1     -47.231  69.315  -7.737  1.00  0.00     0.014 A
ENDROOT
BRANCH   6   8
HETATM    8  C14 UNL     1     -47.053  71.371  -6.475  1.00  0.00     0.076 C
BRANCH   8   9
HETATM    9  C15 UNL     1     -48.282  72.162  -6.824  1.00  0.00     0.054 C
HETATM   10  C16 UNL     1     -49.333  71.503  -7.617  1.00  0.00     0.045 C
HETATM   11  C17 UNL     1     -48.936  72.753  -5.586  1.00  0.00     0.045 C
BRANCH   9  12
HETATM   12  O2  UNL     1     -47.833  73.284  -7.563  1.00  0.00    -0.390 OA
ATOM     13  H2  UNL     1     -48.348  74.023  -7.262  1.00  0.00     0.210 HD
ENDBRANCH   9  12
ENDBRANCH   8   9
ENDBRANCH   6   8
BRANCH   5  14
HETATM   14  C10 UNL     1     -44.720  72.111  -8.116  1.00  0.00     0.042 C
BRANCH  14  15
HETATM   15  C11 UNL     1     -43.571  71.851  -7.127  1.00  0.00     0.030 C
BRANCH  15  16
HETATM   16  C12 UNL     1     -42.228  71.995  -7.810  1.00  0.00     0.164 C
BRANCH  16  17
HETATM   17  O1  UNL     1     -41.491  73.057  -7.336  1.00  0.00    -0.401 OA
ATOM     18  H1  UNL     1     -40.554  72.902  -7.363  1.00  0.00     0.209 HD
ENDBRANCH  16  17
ENDBRANCH  15  16
ENDBRANCH  14  15
ENDBRANCH   5  14
BRANCH   1  19
HETATM   19  C4  UNL     1     -47.588  67.244  -9.024  1.00  0.00     0.038 C
BRANCH  19  20
HETATM   20  C3  UNL     1     -49.095  67.476  -9.064  1.00  0.00     0.004 C
BRANCH  20  21
HETATM   21  C2  UNL     1     -49.435  68.018 -10.438  1.00  0.00    -0.004 C
HETATM   22  C1  UNL     1     -49.527  66.887 -11.438  1.00  0.00     0.005 C
ENDBRANCH  20  21
ENDBRANCH  19  20
ENDBRANCH   1  19
TORSDOF 10
ENDMDL