MODEL 2
REMARK VINA RESULT: -6.181207388      2.156      5.547
REMARK  11 active torsions:
REMARK  status: ('A' for Active; 'I' for Inactive)
REMARK    1  A    between atoms: C2_2  and  C3_3
REMARK    2  A    between atoms: C3_3  and  C4_4
REMARK    3  A    between atoms: C4_4  and  C5_5
REMARK    4  A    between atoms: C5_5  and  C6_6
REMARK    5  A    between atoms: C6_6  and  C7_7
REMARK    6  A    between atoms: C7_7  and  O1_8
REMARK    7  A    between atoms: O1_8  and  C8_9
REMARK    8  A    between atoms: C11_12  and  C12_13
REMARK    9  A    between atoms: C12_13  and  O2_14
REMARK   10  A    between atoms: C12_13  and  C13_16
REMARK   11  A    between atoms: C13_16  and  C14_17
ROOT
HETATM    1  C8  UNL     1     -45.004  69.229  -7.418  1.00  0.00     0.069 A
HETATM    2  C9  UNL     1     -45.603  69.239  -6.181  1.00  0.00     0.037 A
HETATM    3  C10 UNL     1     -46.197  70.382  -5.718  1.00  0.00     0.013 A
HETATM    4  C11 UNL     1     -46.221  71.562  -6.461  1.00  0.00    -0.023 A
HETATM    5  C16 UNL     1     -45.630  71.561  -7.684  1.00  0.00    -0.051 A
HETATM    6  C17 UNL     1     -45.605  72.743  -8.528  1.00  0.00     0.049 C
HETATM    7  C18 UNL     1     -45.026  70.395  -8.153  1.00  0.00     0.044 A
ENDROOT
BRANCH   1   8
HETATM    8  O1  UNL     1     -44.412  68.063  -7.863  1.00  0.00    -0.351 OA
BRANCH   8   9
HETATM    9  C7  UNL     1     -45.148  66.858  -7.834  1.00  0.00     0.175 C
BRANCH   9  10
HETATM   10  C6  UNL     1     -46.073  66.792  -9.037  1.00  0.00     0.027 C
BRANCH  10  11
HETATM   11  C5  UNL     1     -47.478  66.914  -8.596  1.00  0.00     0.002 C
BRANCH  11  12
HETATM   12  C4  UNL     1     -48.243  68.106  -9.003  1.00  0.00     0.004 C
BRANCH  12  13
HETATM   13  C3  UNL     1     -49.371  67.970  -9.935  1.00  0.00     0.026 C
BRANCH  13  14
HETATM   14  C2  UNL     1     -49.155  67.509 -11.297  1.00  0.00    -0.037 C
HETATM   15  C1  UNL     1     -50.117  66.876 -11.994  1.00  0.00     0.007 C
ENDBRANCH  13  14
ENDBRANCH  12  13
ENDBRANCH  11  12
ENDBRANCH  10  11
ENDBRANCH   9  10
ENDBRANCH   8   9
ENDBRANCH   1   8
BRANCH   4  16
HETATM   16  C12 UNL     1     -46.857  72.785  -5.963  1.00  0.00     0.155 C
BRANCH  16  17
HETATM   17  O2  UNL     1     -46.108  73.435  -4.977  1.00  0.00    -0.391 OA
ATOM     18  H2  UNL     1     -45.729  74.254  -5.272  1.00  0.00     0.210 HD
ENDBRANCH  16  17
BRANCH  16  19
HETATM   19  C13 UNL     1     -48.293  72.591  -5.550  1.00  0.00     0.062 C
BRANCH  19  20
HETATM   20  C14 UNL     1     -49.143  72.947  -6.717  1.00  0.00    -0.034 C
HETATM   21  C15 UNL     1     -49.671  72.007  -7.486  1.00  0.00     0.007 C
ENDBRANCH  19  20
ENDBRANCH  16  19
ENDBRANCH   4  16
TORSDOF 11
ENDMDL