MODEL 3
REMARK VINA RESULT: -7.188233310      0.970      1.313
REMARK  9 active torsions:
REMARK  status: ('A' for Active; 'I' for Inactive)
REMARK    1  A    between atoms: C2_2  and  C3_3
REMARK    2  A    between atoms: C3_3  and  C6_6
REMARK    3  A    between atoms: C6_6  and  C7_7
REMARK    4  A    between atoms: C7_7  and  C8_8
REMARK    5  A    between atoms: C8_8  and  C9_9
REMARK    6  A    between atoms: C9_9  and  C10_10
REMARK    7  A    between atoms: C9_9  and  C13_15
REMARK    8  A    between atoms: C10_10  and  O2_12
REMARK    9  A    between atoms: O2_12  and  C11_13
ROOT
HETATM    1  C9  UNL     1     -46.625  67.280  -8.926  1.00  0.00     0.089 C
ENDROOT
BRANCH   1   2
HETATM    2  C8  UNL     1     -45.767  68.244  -9.703  1.00  0.00     0.015 C
BRANCH   2   3
HETATM    3  C7  UNL     1     -45.233  69.402  -8.909  1.00  0.00     0.005 C
BRANCH   3   4
HETATM    4  C6  UNL     1     -46.280  69.921  -7.950  1.00  0.00     0.038 C
BRANCH   4   5
HETATM    5  C3  UNL     1     -46.020  71.227  -7.361  1.00  0.00    -0.063 C
HETATM    6  C4  UNL     1     -45.339  72.106  -8.101  1.00  0.00    -0.024 C
HETATM    7  C5  UNL     1     -45.018  73.445  -7.547  1.00  0.00     0.036 C
BRANCH   5   8
HETATM    8  C2  UNL     1     -46.421  71.611  -6.038  1.00  0.00    -0.004 C
HETATM    9  C1  UNL     1     -46.097  71.088  -4.896  1.00  0.00     0.012 C
ENDBRANCH   5   8
ENDBRANCH   4   5
ENDBRANCH   3   4
ENDBRANCH   2   3
ENDBRANCH   1   2
BRANCH   1  10
HETATM   10  C10 UNL     1     -45.778  66.284  -8.306  1.00  0.00     0.263 C
HETATM   11  O1  UNL     1     -44.985  65.592  -9.001  1.00  0.00    -0.265 OA
BRANCH  10  12
HETATM   12  O2  UNL     1     -45.689  65.948  -6.970  1.00  0.00    -0.322 OA
BRANCH  12  13
HETATM   13  C11 UNL     1     -44.760  66.433  -6.049  1.00  0.00     0.174 C
HETATM   14  C12 UNL     1     -45.218  67.577  -5.217  1.00  0.00     0.034 C
ENDBRANCH  12  13
ENDBRANCH  10  12
ENDBRANCH   1  10
BRANCH   1  15
HETATM   15  C13 UNL     1     -47.729  66.821  -9.790  1.00  0.00    -0.001 C
HETATM   16  C14 UNL     1     -49.116  67.177  -9.412  1.00  0.00     0.005 C
HETATM   17  C15 UNL     1     -49.755  68.222 -10.351  1.00  0.00     0.000 C
HETATM   18  C16 UNL     1     -49.873  67.711 -11.742  1.00  0.00     0.000 C
HETATM   19  C17 UNL     1     -48.696  66.856 -12.077  1.00  0.00     0.000 C
HETATM   20  C18 UNL     1     -47.519  67.327 -11.198  1.00  0.00     0.005 C
ENDBRANCH   1  15
TORSDOF 9
ENDMDL