MODEL 1
REMARK VINA RESULT: -6.160239361      0.000      0.000
REMARK  20 active torsions:
REMARK  status: ('A' for Active; 'I' for Inactive)
REMARK    1  A    between atoms: C2_2  and  N1_3
REMARK       I    between atoms: C3_5  and  N3_7
REMARK    2  A    between atoms: N3_7  and  C4_9
REMARK    3  A    between atoms: C4_9  and  C5_10
REMARK    4  A    between atoms: C5_10  and  C6_11
REMARK    5  A    between atoms: C6_11  and  C7_12
REMARK    6  A    between atoms: C7_12  and  C8_13
REMARK    7  A    between atoms: N4_16  and  C11_17
REMARK    8  A    between atoms: C11_17  and  O1_18
REMARK    9  A    between atoms: C12_20  and  C13_21
REMARK   10  A    between atoms: C12_20  and  N6_34
REMARK   11  A    between atoms: C13_21  and  C14_22
REMARK   12  A    between atoms: C18_26  and  C19_27
REMARK   13  A    between atoms: C19_27  and  N5_28
REMARK       I    between atoms: N6_34  and  C22_36
REMARK   14  A    between atoms: C22_36  and  C23_38
REMARK   15  A    between atoms: C23_38  and  N7_39
REMARK   16  A    between atoms: C23_38  and  C24_43
REMARK   17  A    between atoms: C24_43  and  C25_44
REMARK   18  A    between atoms: C25_44  and  C26_45
REMARK   19  A    between atoms: C26_45  and  C27_46
REMARK   20  A    between atoms: C27_46  and  N8_47
ROOT
HETATM    1  C11 UNL     1      11.934  17.826  12.003  1.00  0.00     0.161 C
HETATM    2  C12 UNL     1      11.493  19.052  12.619  1.00  0.00     0.063 C
ENDROOT
BRANCH   2   3
HETATM    3  C13 UNL     1      11.704  19.435  14.027  1.00  0.00     0.066 C
BRANCH   3   4
HETATM    4  C14 UNL     1      13.088  19.917  14.350  1.00  0.00    -0.009 C
HETATM    5  C15 UNL     1      13.347  21.351  14.416  1.00  0.00     0.005 C
HETATM    6  C16 UNL     1      14.828  21.543  14.745  1.00  0.00     0.001 C
HETATM    7  C17 UNL     1      15.056  21.843  16.199  1.00  0.00     0.006 C
HETATM    8  C18 UNL     1      14.822  20.695  17.124  1.00  0.00     0.011 C
HETATM    9  C20 UNL     1      13.560  19.932  16.814  1.00  0.00     0.006 C
HETATM   10  C21 UNL     1      13.673  19.142  15.529  1.00  0.00     0.005 C
BRANCH   8  11
HETATM   11  C19 UNL     1      14.646  21.274  18.522  1.00  0.00     0.234 C
BRANCH  11  12
HETATM   12  N5  UNL     1      15.707  20.890  19.413  1.00  0.00    -0.079 N
ATOM     13  H53 UNL     1      15.770  19.876  19.495  1.00  0.00     0.274 HD
ATOM     14  H52 UNL     1      16.621  21.077  18.998  1.00  0.00     0.274 HD
ATOM     15  H51 UNL     1      15.624  21.329  20.329  1.00  0.00     0.274 HD
ENDBRANCH  11  12
ENDBRANCH   8  11
ENDBRANCH   3   4
ENDBRANCH   2   3
BRANCH   2  16
HETATM   16  N6  UNL     1      11.194  20.085  11.665  1.00  0.00    -0.325 N
HETATM   17  C22 UNL     1       9.985  20.320  10.981  1.00  0.00     0.252 C
HETATM   18  O2  UNL     1       9.040  19.489  11.262  1.00  0.00    -0.271 OA
ATOM     19  H6  UNL     1      11.955  20.731  11.455  1.00  0.00     0.168 HD
BRANCH  17  20
HETATM   20  C23 UNL     1       9.704  21.368  10.018  1.00  0.00     0.275 C
BRANCH  20  21
HETATM   21  N7  UNL     1       9.951  22.663  10.706  1.00  0.00    -0.066 N
ATOM     22  H73 UNL     1       9.257  22.877  11.422  1.00  0.00     0.275 HD
ATOM     23  H72 UNL     1      10.766  22.643  11.319  1.00  0.00     0.275 HD
ATOM     24  H71 UNL     1      10.013  23.376   9.980  1.00  0.00     0.275 HD
ENDBRANCH  20  21
BRANCH  20  25
HETATM   25  C24 UNL     1      10.715  21.329   8.863  1.00  0.00     0.042 C
BRANCH  25  26
HETATM   26  C25 UNL     1      10.349  20.305   7.873  1.00  0.00     0.004 C
BRANCH  26  27
HETATM   27  C26 UNL     1      11.300  19.163   7.792  1.00  0.00     0.027 C
BRANCH  27  28
HETATM   28  C27 UNL     1      10.695  17.808   7.817  1.00  0.00     0.229 C
BRANCH  28  29
HETATM   29  N8  UNL     1       9.481  17.717   8.564  1.00  0.00    -0.079 N
ATOM     30  H83 UNL     1       9.037  18.632   8.634  1.00  0.00     0.274 HD
ATOM     31  H82 UNL     1       8.770  17.219   8.028  1.00  0.00     0.274 HD
ATOM     32  H81 UNL     1       9.584  17.301   9.489  1.00  0.00     0.274 HD
ENDBRANCH  28  29
ENDBRANCH  27  28
ENDBRANCH  26  27
ENDBRANCH  25  26
ENDBRANCH  20  25
ENDBRANCH  17  20
ENDBRANCH   2  16
BRANCH   1  33
HETATM   33  N4  UNL     1      13.092  17.047  12.163  1.00  0.00    -0.360 N
HETATM   34  C10 UNL     1      13.243  16.030  13.166  1.00  0.00     0.125 C
HETATM   35  C9  UNL     1      14.661  16.147  13.744  1.00  0.00     0.024 C
HETATM   36  C8  UNL     1      15.714  15.925  12.684  1.00  0.00    -0.012 C
HETATM   37  C29 UNL     1      15.077  15.985  11.320  1.00  0.00     0.024 C
HETATM   38  C28 UNL     1      14.248  17.233  11.253  1.00  0.00     0.125 C
BRANCH  36  39
HETATM   39  C7  UNL     1      16.819  16.920  12.781  1.00  0.00     0.005 C
BRANCH  39  40
HETATM   40  C6  UNL     1      16.667  17.759  14.025  1.00  0.00     0.002 C
BRANCH  40  41
HETATM   41  C5  UNL     1      17.207  19.142  13.661  1.00  0.00     0.020 C
BRANCH  41  42
HETATM   42  C4  UNL     1      18.210  19.654  14.637  1.00  0.00     0.122 C
BRANCH  42  43
HETATM   43  N3  UNL     1      19.320  20.340  14.023  1.00  0.00    -0.365 N
HETATM   44  C3  UNL     1      19.219  21.715  13.693  1.00  0.00     0.183 C
HETATM   45  N1  UNL     1      19.869  22.214  12.712  1.00  0.00    -0.365 N
HETATM   46  N2  UNL     1      18.373  22.535  14.485  1.00  0.00    -0.064 NA
ATOM     47  H1  UNL     1      20.469  21.606  12.155  1.00  0.00     0.162 HD
ATOM     48  H3  UNL     1      20.183  19.833  13.824  1.00  0.00     0.162 HD
BRANCH  45  49
HETATM   49  C2  UNL     1      19.776  23.631  12.362  1.00  0.00     0.118 C
HETATM   50  C1  UNL     1      21.037  23.990  11.619  1.00  0.00     0.026 C
ENDBRANCH  45  49
ENDBRANCH  42  43
ENDBRANCH  41  42
ENDBRANCH  40  41
ENDBRANCH  39  40
ENDBRANCH  36  39
ENDBRANCH   1  33
BRANCH   1  51
HETATM   51  O1  UNL     1      11.113  17.320  11.100  1.00  0.00    -0.345 OA
ATOM     52  H1  UNL     1      10.622  17.994  10.645  1.00  0.00     0.219 HD
ENDBRANCH   1  51
TORSDOF 20
ENDMDL