MODEL 4
REMARK VINA RESULT: -6.354405769      2.217      5.360
REMARK  19 active torsions:
REMARK  status: ('A' for Active; 'I' for Inactive)
REMARK    1  A    between atoms: C8_8  and  C9_9
REMARK    2  A    between atoms: C9_9  and  C10_10
REMARK    3  A    between atoms: C10_10  and  C11_11
REMARK    4  A    between atoms: C11_11  and  C12_12
REMARK    5  A    between atoms: C12_12  and  C13_13
REMARK       I    between atoms: C13_13  and  N1_15
REMARK    6  A    between atoms: N1_15  and  C14_17
REMARK    7  A    between atoms: C14_17  and  C15_18
REMARK       I    between atoms: C15_18  and  N2_20
REMARK    8  A    between atoms: N2_20  and  C16_22
REMARK    9  A    between atoms: C16_22  and  C17_23
REMARK   10  A    between atoms: C16_22  and  C21_31
REMARK   11  A    between atoms: C17_23  and  C18_24
REMARK   12  A    between atoms: C18_24  and  C19_25
REMARK   13  A    between atoms: C19_25  and  C20_26
REMARK   14  A    between atoms: C20_26  and  N3_27
REMARK   15  A    between atoms: C21_31  and  N5_35
REMARK   16  A    between atoms: N5_35  and  C22_37
REMARK   17  A    between atoms: C22_37  and  C23_38
REMARK   18  A    between atoms: C23_38  and  O3_39
REMARK   19  A    between atoms: C23_38  and  N6_41
ROOT
HETATM    1  C16 UNL     1      13.224  17.420  11.731  1.00  0.00     0.151 C
ENDROOT
BRANCH   1   2
HETATM    2  N2  UNL     1      13.349  18.239  12.937  1.00  0.00    -0.348 N
HETATM    3  C15 UNL     1      12.387  18.125  13.955  1.00  0.00     0.235 C
HETATM    4  O2  UNL     1      11.425  17.297  13.792  1.00  0.00    -0.272 OA
ATOM      5  H2  UNL     1      14.130  18.888  13.040  1.00  0.00     0.163 HD
BRANCH   3   6
HETATM    6  C14 UNL     1      12.389  18.870  15.207  1.00  0.00     0.225 C
BRANCH   6   7
HETATM    7  N1  UNL     1      13.589  19.574  15.542  1.00  0.00    -0.352 N
HETATM    8  C13 UNL     1      13.460  20.853  16.205  1.00  0.00     0.217 C
HETATM    9  O1  UNL     1      12.311  21.292  16.462  1.00  0.00    -0.274 OA
ATOM     10  H1  UNL     1      14.507  19.186  15.320  1.00  0.00     0.162 HD
BRANCH   8  11
HETATM   11  C12 UNL     1      14.713  21.533  16.532  1.00  0.00     0.103 C
BRANCH  11  12
HETATM   12  C11 UNL     1      14.832  22.942  16.083  1.00  0.00     0.009 C
BRANCH  12  13
HETATM   13  C10 UNL     1      15.962  23.320  15.221  1.00  0.00     0.001 C
BRANCH  13  14
HETATM   14  C9  UNL     1      15.790  23.339  13.761  1.00  0.00     0.005 C
BRANCH  14  15
HETATM   15  C8  UNL     1      14.486  22.935  13.260  1.00  0.00    -0.009 C
HETATM   16  C7  UNL     1      13.515  23.812  12.635  1.00  0.00    -0.002 C
HETATM   17  C2  UNL     1      13.207  23.087  11.278  1.00  0.00    -0.040 C
HETATM   18  C6  UNL     1      12.138  23.487  13.265  1.00  0.00     0.006 C
HETATM   19  C1  UNL     1      14.245  23.280  10.262  1.00  0.00     0.015 C
HETATM   20  C3  UNL     1      11.882  23.575  10.733  1.00  0.00     0.015 C
HETATM   21  C4  UNL     1      13.089  21.706  11.881  1.00  0.00    -0.006 C
HETATM   22  C5  UNL     1      12.091  21.980  12.992  1.00  0.00     0.006 C
HETATM   23  C29 UNL     1      14.453  21.584  12.521  1.00  0.00     0.010 C
ENDBRANCH  14  15
ENDBRANCH  13  14
ENDBRANCH  12  13
ENDBRANCH  11  12
ENDBRANCH   8  11
ENDBRANCH   6   7
ENDBRANCH   3   6
ENDBRANCH   1   2
BRANCH   1  24
HETATM   24  C17 UNL     1      13.038  18.172  10.477  1.00  0.00     0.033 C
BRANCH  24  25
HETATM   25  C18 UNL     1      11.667  18.713  10.256  1.00  0.00     0.004 C
BRANCH  25  26
HETATM   26  C19 UNL     1      10.613  17.649  10.427  1.00  0.00     0.027 C
BRANCH  26  27
HETATM   27  C20 UNL     1       9.926  17.259   9.146  1.00  0.00     0.229 C
BRANCH  27  28
HETATM   28  N3  UNL     1       9.174  18.374   8.586  1.00  0.00    -0.079 N
ATOM     29  H33 UNL     1       9.700  19.246   8.642  1.00  0.00     0.274 HD
ATOM     30  H32 UNL     1       9.097  18.301   7.572  1.00  0.00     0.274 HD
ATOM     31  H31 UNL     1       8.257  18.462   9.025  1.00  0.00     0.274 HD
ENDBRANCH  27  28
ENDBRANCH  26  27
ENDBRANCH  25  26
ENDBRANCH  24  25
ENDBRANCH   1  24
BRANCH   1  32
HETATM   32  C21 UNL     1      14.439  16.517  11.642  1.00  0.00     0.094 C
HETATM   33  N4  UNL     1      14.783  16.131  10.465  1.00  0.00    -0.387 N
ATOM     34  H42 UNL     1      14.256  16.420   9.641  1.00  0.00     0.157 HD
ATOM     35  H41 UNL     1      15.600  15.523  10.405  1.00  0.00     0.157 HD
BRANCH  32  36
HETATM   36  N5  UNL     1      15.170  16.117  12.786  1.00  0.00    -0.374 N
ATOM     37  H5  UNL     1      14.731  15.507  13.476  1.00  0.00     0.161 HD
BRANCH  36  38
HETATM   38  C22 UNL     1      16.536  16.563  12.988  1.00  0.00     0.185 C
BRANCH  38  39
HETATM   39  C23 UNL     1      16.683  17.605  14.043  1.00  0.00     0.374 C
BRANCH  39  40
HETATM   40  O3  UNL     1      15.634  17.411  14.962  1.00  0.00    -0.366 OA
ATOM     41  H3  UNL     1      14.898  17.928  14.655  1.00  0.00     0.212 HD
ENDBRANCH  39  40
BRANCH  39  42
HETATM   42  N6  UNL     1      16.640  18.960  13.600  1.00  0.00     0.118 N
HETATM   43  C24 UNL     1      17.352  19.241  12.396  1.00  0.00     0.276 C
HETATM   44  C25 UNL     1      17.993  20.635  12.433  1.00  0.00     0.030 C
HETATM   45  C26 UNL     1      19.103  20.669  13.459  1.00  0.00     0.003 C
HETATM   46  C27 UNL     1      18.693  19.743  14.587  1.00  0.00     0.030 C
HETATM   47  C28 UNL     1      17.183  19.790  14.672  1.00  0.00     0.276 C
ENDBRANCH  39  42
ENDBRANCH  38  39
ENDBRANCH  36  38
ENDBRANCH  32  36
ENDBRANCH   1  32
TORSDOF 19
ENDMDL