MODEL 3
REMARK VINA RESULT: -6.428834603      2.395      4.222
REMARK  19 active torsions:
REMARK  status: ('A' for Active; 'I' for Inactive)
REMARK    1  A    between atoms: C3_4  and  C4_5
REMARK    2  A    between atoms: N2_8  and  C7_9
REMARK    3  A    between atoms: C7_9  and  C8_10
REMARK    4  A    between atoms: C8_10  and  C9_11
REMARK    5  A    between atoms: C9_11  and  C10_12
REMARK    6  A    between atoms: C10_12  and  C11_13
REMARK    7  A    between atoms: C11_13  and  C12_14
REMARK    8  A    between atoms: C12_14  and  N3_15
REMARK    9  A    between atoms: C15_18  and  C16_19
REMARK   10  A    between atoms: C16_19  and  S1_20
REMARK   11  A    between atoms: S1_20  and  C17_21
REMARK   12  A    between atoms: C17_21  and  C18_22
REMARK   13  A    between atoms: C18_22  and  C19_23
REMARK   14  A    between atoms: C19_23  and  C20_24
REMARK       I    between atoms: C20_24  and  N4_26
REMARK   15  A    between atoms: N4_26  and  C21_28
REMARK   16  A    between atoms: C21_28  and  C22_29
REMARK   17  A    between atoms: C22_29  and  O2_30
REMARK   18  A    between atoms: C27_38  and  N6_39
REMARK   19  A    between atoms: C28_44  and  N8_45
ROOT
HETATM    1  N1  UNL     1      10.100  21.614   7.500  1.00  0.00    -0.191 NA
HETATM    2  C1  UNL     1       9.117  21.082   7.816  1.00  0.00     0.105 C
HETATM    3  C2  UNL     1       7.886  20.414   8.160  1.00  0.00     0.116 A
HETATM    4  C3  UNL     1       7.814  19.373   9.018  1.00  0.00     0.084 A
HETATM    5  N5  UNL     1       6.575  18.802   9.155  1.00  0.00    -0.190 N
ATOM      6  H5  UNL     1       6.481  18.011   9.792  1.00  0.00     0.184 HD
HETATM    7  C27 UNL     1       5.484  19.217   8.504  1.00  0.00     0.678 A
HETATM    8  N7  UNL     1       5.593  20.254   7.664  1.00  0.00    -0.176 N
ATOM      9  H7  UNL     1       4.763  20.575   7.166  1.00  0.00     0.186 HD
HETATM   10  C28 UNL     1       6.752  20.881   7.457  1.00  0.00     0.138 A
ENDROOT
BRANCH   4  11
HETATM   11  C4  UNL     1       8.948  18.795   9.723  1.00  0.00    -0.005 A
HETATM   12  C5  UNL     1       9.563  19.268  10.839  1.00  0.00     0.031 A
HETATM   13  C6  UNL     1      10.712  18.644  11.354  1.00  0.00     0.091 A
HETATM   14  N2  UNL     1      11.271  17.565  10.798  1.00  0.00    -0.366 N
HETATM   15  C25 UNL     1      10.687  17.085   9.711  1.00  0.00     0.091 A
HETATM   16  C26 UNL     1       9.567  17.651   9.162  1.00  0.00     0.031 A
BRANCH  14  17
HETATM   17  C7  UNL     1      12.447  17.026  11.440  1.00  0.00     0.128 C
BRANCH  17  18
HETATM   18  C8  UNL     1      13.680  17.030  10.607  1.00  0.00     0.020 C
BRANCH  18  19
HETATM   19  C9  UNL     1      14.756  16.102  10.906  1.00  0.00     0.002 C
BRANCH  19  20
HETATM   20  C10 UNL     1      14.913  15.381  12.153  1.00  0.00     0.002 C
BRANCH  20  21
HETATM   21  C11 UNL     1      15.932  15.769  13.155  1.00  0.00     0.020 C
BRANCH  21  22
HETATM   22  C12 UNL     1      15.486  16.239  14.490  1.00  0.00     0.128 C
BRANCH  22  23
HETATM   23  N3  UNL     1      14.680  17.468  14.373  1.00  0.00    -0.366 N
HETATM   24  C13 UNL     1      13.428  17.475  14.872  1.00  0.00     0.091 A
HETATM   25  C14 UNL     1      12.615  18.577  14.799  1.00  0.00     0.025 A
HETATM   26  C15 UNL     1      13.076  19.719  14.201  1.00  0.00    -0.046 A
HETATM   27  C23 UNL     1      14.356  19.708  13.693  1.00  0.00     0.025 A
HETATM   28  C24 UNL     1      15.154  18.576  13.782  1.00  0.00     0.091 A
BRANCH  26  29
HETATM   29  C16 UNL     1      12.183  20.900  14.128  1.00  0.00     0.112 C
BRANCH  29  30
HETATM   30  S1  UNL     1      12.550  21.967  15.547  1.00  0.00    -0.165 SA
BRANCH  30  31
HETATM   31  C17 UNL     1      13.786  23.191  15.012  1.00  0.00     0.075 C
BRANCH  31  32
HETATM   32  C18 UNL     1      15.012  22.962  15.901  1.00  0.00     0.019 C
BRANCH  32  33
HETATM   33  C19 UNL     1      16.201  23.483  15.139  1.00  0.00     0.103 C
BRANCH  33  34
HETATM   34  C20 UNL     1      17.367  22.574  15.321  1.00  0.00     0.217 C
HETATM   35  O1  UNL     1      18.443  22.873  14.751  1.00  0.00    -0.274 OA
HETATM   36  N4  UNL     1      17.283  21.412  16.107  1.00  0.00    -0.359 N
ATOM     37  H4  UNL     1      16.397  21.186  16.557  1.00  0.00     0.162 HD
BRANCH  36  38
HETATM   38  C21 UNL     1      18.393  20.537  16.294  1.00  0.00     0.148 C
BRANCH  38  39
HETATM   39  C22 UNL     1      18.495  19.527  15.191  1.00  0.00     0.183 C
BRANCH  39  40
HETATM   40  O2  UNL     1      19.478  19.937  14.290  1.00  0.00    -0.399 OA
ATOM     41  H2  UNL     1      20.325  19.634  14.596  1.00  0.00     0.209 HD
ENDBRANCH  39  40
ENDBRANCH  38  39
ENDBRANCH  36  38
ENDBRANCH  33  34
ENDBRANCH  32  33
ENDBRANCH  31  32
ENDBRANCH  30  31
ENDBRANCH  29  30
ENDBRANCH  26  29
ENDBRANCH  22  23
ENDBRANCH  21  22
ENDBRANCH  20  21
ENDBRANCH  19  20
ENDBRANCH  18  19
ENDBRANCH  17  18
ENDBRANCH  14  17
ENDBRANCH   4  11
BRANCH  10  42
HETATM   42  N8  UNL     1       6.838  21.890   6.635  1.00  0.00    -0.384 N
ATOM     43  H82 UNL     1       7.624  22.538   6.674  1.00  0.00     0.157 HD
ATOM     44  H81 UNL     1       6.120  22.057   5.930  1.00  0.00     0.157 HD
ENDBRANCH  10  42
BRANCH   7  45
HETATM   45  N6  UNL     1       4.323  18.625   8.680  1.00  0.00    -0.234 N
ATOM     46  H62 UNL     1       4.059  17.830   8.099  1.00  0.00     0.174 HD
ATOM     47  H61 UNL     1       3.671  18.947   9.395  1.00  0.00     0.174 HD
ENDBRANCH   7  45
TORSDOF 19
ENDMDL