MODEL 1
REMARK VINA RESULT: -7.845961810      0.000      0.000
REMARK  17 active torsions:
REMARK  status: ('A' for Active; 'I' for Inactive)
REMARK    1  A    between atoms: N1_1  and  C1_4
REMARK    2  A    between atoms: C7_18  and  C8_19
REMARK       I    between atoms: C8_19  and  N5_21
REMARK    3  A    between atoms: N5_21  and  C9_23
REMARK    4  A    between atoms: C9_23  and  C10_24
REMARK    5  A    between atoms: C10_24  and  C11_25
REMARK    6  A    between atoms: C11_25  and  C12_26
REMARK    7  A    between atoms: C12_26  and  C13_27
REMARK    8  A    between atoms: C13_27  and  C14_28
REMARK    9  A    between atoms: C14_28  and  C15_29
REMARK   10  A    between atoms: C15_29  and  C16_30
REMARK   11  A    between atoms: C16_30  and  C17_31
REMARK   12  A    between atoms: C17_31  and  C18_32
REMARK   13  A    between atoms: C18_32  and  C19_33
REMARK   14  A    between atoms: C19_33  and  C20_34
REMARK   15  A    between atoms: C20_34  and  C21_35
REMARK       I    between atoms: C21_35  and  N6_37
REMARK   16  A    between atoms: N6_37  and  C22_39
REMARK   17  A    between atoms: C22_39  and  C23_40
REMARK       I    between atoms: C23_40  and  N7_42
ROOT
HETATM    1  C10 UNL     1      14.565  15.394  13.394  1.00  0.00     0.020 C
ENDROOT
BRANCH   1   2
HETATM    2  C9  UNL     1      15.605  16.057  14.218  1.00  0.00     0.122 C
BRANCH   2   3
HETATM    3  N5  UNL     1      15.771  17.409  13.688  1.00  0.00    -0.359 N
HETATM    4  C8  UNL     1      15.231  18.572  14.306  1.00  0.00     0.254 C
HETATM    5  O2  UNL     1      14.585  18.442  15.369  1.00  0.00    -0.271 OA
ATOM      6  H5  UNL     1      16.304  17.526  12.826  1.00  0.00     0.162 HD
BRANCH   4   7
HETATM    7  C7  UNL     1      15.434  19.918  13.696  1.00  0.00     0.327 C
HETATM    8  C2  UNL     1      16.637  20.542  14.334  1.00  0.00     0.078 A
HETATM    9  N2  UNL     1      17.223  20.126  15.459  1.00  0.00    -0.192 N
HETATM   10  C3  UNL     1      17.180  21.620  13.655  1.00  0.00     0.038 A
HETATM   11  C1  UNL     1      18.340  20.743  15.940  1.00  0.00     0.679 A
ATOM     12  H2  UNL     1      16.829  19.334  15.968  1.00  0.00     0.184 HD
HETATM   13  N3  UNL     1      18.857  21.783  15.275  1.00  0.00    -0.156 N
HETATM   14  C4  UNL     1      18.310  22.251  14.137  1.00  0.00     0.268 A
ATOM     15  H3  UNL     1      19.693  22.237  15.643  1.00  0.00     0.187 HD
HETATM   16  O1  UNL     1      18.819  23.243  13.520  1.00  0.00    -0.267 OA
HETATM   17  C5  UNL     1      16.533  22.086  12.411  1.00  0.00     0.074 C
HETATM   18  C6  UNL     1      15.940  20.987  11.618  1.00  0.00     0.238 C
HETATM   19  N4  UNL     1      15.876  19.719  12.314  1.00  0.00    -0.057 N
ATOM     20  H42 UNL     1      15.292  19.043  11.821  1.00  0.00     0.278 HD
ATOM     21  H41 UNL     1      16.762  19.215  12.266  1.00  0.00     0.278 HD
BRANCH  11  22
HETATM   22  N1  UNL     1      18.896  20.307  17.028  1.00  0.00    -0.234 N
ATOM     23  H12 UNL     1      18.837  20.840  17.895  1.00  0.00     0.174 HD
ATOM     24  H11 UNL     1      19.407  19.425  17.014  1.00  0.00     0.174 HD
ENDBRANCH  11  22
ENDBRANCH   4   7
ENDBRANCH   2   3
ENDBRANCH   1   2
BRANCH   1  25
HETATM   25  C11 UNL     1      14.869  15.019  11.999  1.00  0.00     0.002 C
BRANCH  25  26
HETATM   26  C12 UNL     1      14.924  16.013  10.933  1.00  0.00     0.000 C
BRANCH  26  27
HETATM   27  C13 UNL     1      13.723  16.603  10.335  1.00  0.00     0.000 C
BRANCH  27  28
HETATM   28  C14 UNL     1      13.261  17.922  10.851  1.00  0.00     0.000 C
BRANCH  28  29
HETATM   29  C15 UNL     1      12.095  17.786  11.828  1.00  0.00     0.000 C
BRANCH  29  30
HETATM   30  C16 UNL     1      10.829  17.545  11.044  1.00  0.00     0.000 C
BRANCH  30  31
HETATM   31  C17 UNL     1       9.896  18.735  11.073  1.00  0.00     0.000 C
BRANCH  31  32
HETATM   32  C18 UNL     1       9.640  19.184   9.666  1.00  0.00     0.000 C
BRANCH  32  33
HETATM   33  C19 UNL     1      10.041  18.141   8.675  1.00  0.00     0.009 C
BRANCH  33  34
HETATM   34  C20 UNL     1      10.830  18.688   7.507  1.00  0.00     0.103 C
BRANCH  34  35
HETATM   35  C21 UNL     1      11.574  17.599   6.819  1.00  0.00     0.217 C
HETATM   36  O3  UNL     1      12.323  16.849   7.464  1.00  0.00    -0.274 OA
HETATM   37  N6  UNL     1      11.432  17.421   5.422  1.00  0.00    -0.352 N
ATOM     38  H6  UNL     1      10.806  18.062   4.934  1.00  0.00     0.162 HD
BRANCH  37  39
HETATM   39  C22 UNL     1      12.087  16.423   4.630  1.00  0.00     0.225 C
BRANCH  39  40
HETATM   40  C23 UNL     1      13.184  16.918   3.793  1.00  0.00     0.237 C
HETATM   41  O4  UNL     1      14.032  17.702   4.273  1.00  0.00    -0.272 OA
HETATM   42  N7  UNL     1      13.323  16.531   2.428  1.00  0.00    -0.351 N
HETATM   43  C24 UNL     1      12.303  15.674   1.872  1.00  0.00     0.126 C
HETATM   44  C28 UNL     1      14.467  17.003   1.708  1.00  0.00     0.126 C
HETATM   45  C25 UNL     1      12.874  14.550   1.056  1.00  0.00     0.020 C
HETATM   46  C26 UNL     1      14.322  14.766   0.713  1.00  0.00     0.003 C
HETATM   47  C27 UNL     1      14.653  16.209   0.454  1.00  0.00     0.020 C
ENDBRANCH  39  40
ENDBRANCH  37  39
ENDBRANCH  34  35
ENDBRANCH  33  34
ENDBRANCH  32  33
ENDBRANCH  31  32
ENDBRANCH  30  31
ENDBRANCH  29  30
ENDBRANCH  28  29
ENDBRANCH  27  28
ENDBRANCH  26  27
ENDBRANCH  25  26
ENDBRANCH   1  25
TORSDOF 17
ENDMDL