MODEL 5
REMARK VINA RESULT: -6.441638684      2.142      3.621
REMARK  18 active torsions:
REMARK  status: ('A' for Active; 'I' for Inactive)
REMARK    1  A    between atoms: C2_2  and  C4_4
REMARK    2  A    between atoms: C4_4  and  C5_5
REMARK    3  A    between atoms: C5_5  and  N1_6
REMARK    4  A    between atoms: C5_5  and  C9_11
REMARK    5  A    between atoms: N1_6  and  C6_8
REMARK       I    between atoms: C9_11  and  N2_13
REMARK    6  A    between atoms: N2_13  and  C10_15
REMARK    7  A    between atoms: C10_15  and  C11_16
REMARK    8  A    between atoms: C10_15  and  C18_23
REMARK    9  A    between atoms: C11_16  and  C12_17
REMARK   10  A    between atoms: C18_23  and  O2_24
REMARK   11  A    between atoms: C18_23  and  N3_26
REMARK   12  A    between atoms: C19_28  and  C20_29
REMARK       I    between atoms: C20_29  and  N4_31
REMARK   13  A    between atoms: N4_31  and  C21_33
REMARK   14  A    between atoms: C21_33  and  C22_34
REMARK   15  A    between atoms: C21_33  and  C26_38
REMARK   16  A    between atoms: C22_34  and  C23_35
REMARK   17  A    between atoms: C26_38  and  N5_40
REMARK       I    between atoms: N5_40  and  C28_41
REMARK       I    between atoms: C28_41  and  N6_43
REMARK   18  A    between atoms: N6_43  and  N7_45
ROOT
HETATM    1  C18 UNL     1      11.708  18.711  14.131  1.00  0.00     0.163 C
ENDROOT
BRANCH   1   2
HETATM    2  C10 UNL     1      11.721  17.790  12.991  1.00  0.00     0.063 C
BRANCH   2   3
HETATM    3  N2  UNL     1      11.330  18.502  11.822  1.00  0.00    -0.325 N
HETATM    4  C9  UNL     1      11.449  19.766  11.233  1.00  0.00     0.244 C
HETATM    5  O1  UNL     1      11.998  20.706  11.739  1.00  0.00    -0.271 OA
ATOM      6  H2  UNL     1      10.786  17.889  11.214  1.00  0.00     0.169 HD
BRANCH   4   7
HETATM    7  C5  UNL     1      10.824  19.829   9.806  1.00  0.00     0.170 C
BRANCH   7   8
HETATM    8  C4  UNL     1      11.645  19.212   8.801  1.00  0.00     0.038 C
BRANCH   8   9
HETATM    9  C2  UNL     1      11.264  17.882   8.214  1.00  0.00    -0.020 C
HETATM   10  C1  UNL     1      12.219  16.868   8.917  1.00  0.00     0.009 C
HETATM   11  C3  UNL     1      11.503  17.587   6.790  1.00  0.00     0.009 C
ENDBRANCH   8   9
ENDBRANCH   7   8
BRANCH   7  12
HETATM   12  N1  UNL     1       9.573  19.200  10.165  1.00  0.00    -0.406 N
ATOM     13  H1  UNL     1       9.591  18.247  10.528  1.00  0.00     0.154 HD
BRANCH  12  14
HETATM   14  C6  UNL     1       8.346  19.838  10.037  1.00  0.00     0.069 C
HETATM   15  C7  UNL     1       7.438  19.378   8.965  1.00  0.00     0.031 C
HETATM   16  C8  UNL     1       8.533  21.358   9.809  1.00  0.00     0.031 C
ENDBRANCH  12  14
ENDBRANCH   7  12
ENDBRANCH   4   7
ENDBRANCH   2   3
BRANCH   2  17
HETATM   17  C11 UNL     1      12.615  16.636  12.992  1.00  0.00     0.066 C
BRANCH  17  18
HETATM   18  C12 UNL     1      14.090  16.900  13.135  1.00  0.00    -0.009 C
HETATM   19  C13 UNL     1      14.783  17.556  12.005  1.00  0.00     0.005 C
HETATM   20  C14 UNL     1      16.210  17.933  12.398  1.00  0.00     0.000 C
HETATM   21  C15 UNL     1      16.675  17.165  13.599  1.00  0.00     0.000 C
HETATM   22  C16 UNL     1      16.282  15.677  13.364  1.00  0.00     0.000 C
HETATM   23  C17 UNL     1      14.779  15.544  13.425  1.00  0.00     0.005 C
ENDBRANCH  17  18
ENDBRANCH   2  17
ENDBRANCH   1   2
BRANCH   1  24
HETATM   24  O2  UNL     1      10.585  18.667  14.870  1.00  0.00    -0.345 OA
ATOM     25  H2  UNL     1      10.566  17.970  15.516  1.00  0.00     0.219 HD
ENDBRANCH   1  24
BRANCH   1  26
HETATM   26  N3  UNL     1      12.576  19.662  14.684  1.00  0.00    -0.340 N
HETATM   27  C19 UNL     1      13.163  19.659  15.753  1.00  0.00     0.164 C
ATOM     28  H3  UNL     1      12.741  20.485  14.104  1.00  0.00     0.167 HD
BRANCH  27  29
HETATM   29  C20 UNL     1      14.049  20.610  16.387  1.00  0.00     0.260 C
HETATM   30  O3  UNL     1      13.959  20.755  17.657  1.00  0.00    -0.267 OA
HETATM   31  N4  UNL     1      14.953  21.288  15.607  1.00  0.00    -0.327 N
ATOM     32  H4  UNL     1      14.792  21.015  14.638  1.00  0.00     0.168 HD
BRANCH  31  33
HETATM   33  C21 UNL     1      16.010  22.208  15.621  1.00  0.00     0.025 C
BRANCH  33  34
HETATM   34  C22 UNL     1      17.407  21.743  15.641  1.00  0.00     0.059 C
BRANCH  34  35
HETATM   35  C23 UNL     1      17.691  20.563  14.721  1.00  0.00    -0.017 C
HETATM   36  C24 UNL     1      18.214  21.035  13.376  1.00  0.00     0.010 C
HETATM   37  C25 UNL     1      18.625  19.539  15.308  1.00  0.00     0.010 C
ENDBRANCH  34  35
ENDBRANCH  33  34
BRANCH  33  38
HETATM   38  C26 UNL     1      15.671  23.481  14.891  1.00  0.00     0.210 C
HETATM   39  C27 UNL     1      14.306  23.954  15.432  1.00  0.00     0.054 C
BRANCH  38  40
HETATM   40  N5  UNL     1      15.203  23.060  13.529  1.00  0.00    -0.384 NA
HETATM   41  C28 UNL     1      14.776  22.771  12.352  1.00  0.00     0.407 C
HETATM   42  O4  UNL     1      14.169  23.389  11.396  1.00  0.00    -0.229 OA
HETATM   43  N6  UNL     1      15.021  21.378  11.863  1.00  0.00    -0.246 N
ATOM     44  H6  UNL     1      15.447  20.688  12.481  1.00  0.00     0.192 HD
BRANCH  43  45
HETATM   45  N7  UNL     1      14.680  21.035  10.605  1.00  0.00    -0.340 N
ATOM     46  H72 UNL     1      15.381  21.104   9.867  1.00  0.00     0.177 HD
ATOM     47  H71 UNL     1      13.734  20.712  10.402  1.00  0.00     0.177 HD
ENDBRANCH  43  45
ENDBRANCH  38  40
ENDBRANCH  33  38
ENDBRANCH  31  33
ENDBRANCH  27  29
ENDBRANCH   1  26
TORSDOF 18
ENDMDL