MODEL 5
REMARK VINA RESULT: -6.292340836      2.365      5.092
REMARK  16 active torsions:
REMARK  status: ('A' for Active; 'I' for Inactive)
REMARK    1  A    between atoms: C2_2  and  C3_3
REMARK    2  A    between atoms: C3_3  and  N1_4
REMARK    3  A    between atoms: C3_3  and  C4_8
REMARK       I    between atoms: C4_8  and  N2_10
REMARK    4  A    between atoms: N2_10  and  C5_12
REMARK    5  A    between atoms: C5_12  and  C6_13
REMARK    6  A    between atoms: C6_13  and  C7_14
REMARK    7  A    between atoms: C6_13  and  N3_21
REMARK    8  A    between atoms: C7_14  and  C8_15
REMARK       I    between atoms: N3_21  and  C14_23
REMARK    9  A    between atoms: C14_23  and  C15_25
REMARK   10  A    between atoms: C15_25  and  C16_26
REMARK   11  A    between atoms: C15_25  and  N4_30
REMARK   12  A    between atoms: C16_26  and  C17_27
REMARK       I    between atoms: N4_30  and  C20_32
REMARK   13  A    between atoms: C20_32  and  C21_34
REMARK   14  A    between atoms: C21_34  and  C22_35
REMARK   15  A    between atoms: C21_34  and  N5_42
REMARK   16  A    between atoms: C22_35  and  C23_36
ROOT
HETATM    1  N3  UNL     1      12.376  20.498  11.901  1.00  0.00    -0.353 N
ATOM      2  H3  UNL     1      13.057  19.776  12.140  1.00  0.00     0.163 HD
HETATM    3  C14 UNL     1      12.826  21.672  11.284  1.00  0.00     0.240 C
HETATM    4  O2  UNL     1      11.982  22.555  10.997  1.00  0.00    -0.271 OA
ENDROOT
BRANCH   3   5
HETATM    5  C15 UNL     1      14.248  21.933  10.949  1.00  0.00     0.177 C
BRANCH   5   6
HETATM    6  C16 UNL     1      14.464  22.232   9.496  1.00  0.00     0.038 C
BRANCH   6   7
HETATM    7  C17 UNL     1      15.854  22.689   9.185  1.00  0.00    -0.020 C
HETATM    8  C18 UNL     1      16.073  22.881   7.699  1.00  0.00     0.009 C
HETATM    9  C19 UNL     1      16.198  24.003   9.851  1.00  0.00     0.009 C
ENDBRANCH   6   7
ENDBRANCH   5   6
BRANCH   5  10
HETATM   10  N4  UNL     1      15.114  20.879  11.385  1.00  0.00    -0.346 N
HETATM   11  C20 UNL     1      15.391  20.669  12.760  1.00  0.00     0.241 C
HETATM   12  O3  UNL     1      14.898  21.390  13.662  1.00  0.00    -0.271 OA
ATOM     13  H4  UNL     1      15.539  20.265  10.691  1.00  0.00     0.163 HD
BRANCH  11  14
HETATM   14  C21 UNL     1      16.295  19.563  13.170  1.00  0.00     0.176 C
BRANCH  14  15
HETATM   15  C22 UNL     1      16.127  18.315  12.374  1.00  0.00     0.039 C
BRANCH  15  16
HETATM   16  C23 UNL     1      15.274  17.278  13.026  1.00  0.00    -0.012 C
HETATM   17  C24 UNL     1      15.740  15.862  12.813  1.00  0.00     0.005 C
HETATM   18  C25 UNL     1      14.878  15.116  11.819  1.00  0.00     0.000 C
HETATM   19  C26 UNL     1      14.578  15.960  10.601  1.00  0.00     0.000 C
HETATM   20  C27 UNL     1      13.813  17.176  11.006  1.00  0.00     0.000 C
HETATM   21  C28 UNL     1      13.844  17.333  12.492  1.00  0.00     0.005 C
ENDBRANCH  15  16
ENDBRANCH  14  15
BRANCH  14  22
HETATM   22  N5  UNL     1      17.697  20.028  13.085  1.00  0.00    -0.354 N
HETATM   23  C29 UNL     1      18.539  19.772  14.008  1.00  0.00     0.197 C
HETATM   24  N6  UNL     1      19.868  20.252  13.859  1.00  0.00    -0.067 NA
HETATM   25  N7  UNL     1      18.243  19.036  15.189  1.00  0.00    -0.067 NA
ATOM     26  H5  UNL     1      17.996  20.565  12.271  1.00  0.00     0.162 HD
ENDBRANCH  14  22
ENDBRANCH  11  14
ENDBRANCH   5  10
ENDBRANCH   3   5
BRANCH   1  27
HETATM   27  C6  UNL     1      10.925  20.260  12.225  1.00  0.00     0.102 C
BRANCH  27  28
HETATM   28  C5  UNL     1      10.793  20.615  13.631  1.00  0.00     0.147 C
BRANCH  28  29
HETATM   29  N2  UNL     1      11.927  20.509  14.506  1.00  0.00    -0.357 N
HETATM   30  C4  UNL     1      12.242  19.287  15.182  1.00  0.00     0.248 C
HETATM   31  O1  UNL     1      11.519  18.278  15.014  1.00  0.00    -0.271 OA
ATOM     32  H2  UNL     1      12.523  21.324  14.649  1.00  0.00     0.162 HD
BRANCH  30  33
HETATM   33  C3  UNL     1      13.409  19.188  16.078  1.00  0.00     0.274 C
BRANCH  33  34
HETATM   34  C2  UNL     1      13.361  20.349  17.057  1.00  0.00     0.038 C
HETATM   35  C1  UNL     1      14.765  20.928  17.153  1.00  0.00     0.007 C
ENDBRANCH  33  34
BRANCH  33  36
HETATM   36  N1  UNL     1      13.446  17.943  16.805  1.00  0.00    -0.067 N
ATOM     37  H13 UNL     1      14.400  17.618  16.961  1.00  0.00     0.275 HD
ATOM     38  H12 UNL     1      13.170  18.058  17.780  1.00  0.00     0.275 HD
ATOM     39  H11 UNL     1      12.876  17.248  16.323  1.00  0.00     0.275 HD
ENDBRANCH  33  36
ENDBRANCH  30  33
ENDBRANCH  28  29
ENDBRANCH  27  28
BRANCH  27  40
HETATM   40  C7  UNL     1      10.604  19.002  11.596  1.00  0.00     0.031 C
BRANCH  40  41
HETATM   41  C8  UNL     1       9.861  18.724  10.381  1.00  0.00    -0.013 C
HETATM   42  C9  UNL     1      10.068  17.353   9.833  1.00  0.00     0.005 C
HETATM   43  C10 UNL     1      10.267  17.387   8.307  1.00  0.00     0.000 C
HETATM   44  C11 UNL     1      11.596  18.021   8.055  1.00  0.00     0.000 C
HETATM   45  C12 UNL     1      11.613  19.376   8.684  1.00  0.00     0.000 C
HETATM   46  C13 UNL     1      10.306  19.744   9.320  1.00  0.00     0.005 C
ENDBRANCH  40  41
ENDBRANCH  27  40
ENDBRANCH   1  27
TORSDOF 16
ENDMDL