MODEL 4
REMARK VINA RESULT: -6.451296088      4.108      7.510
REMARK  16 active torsions:
REMARK  status: ('A' for Active; 'I' for Inactive)
REMARK    1  A    between atoms: N1_5  and  C5_7
REMARK    2  A    between atoms: C5_7  and  C6_8
REMARK    3  A    between atoms: C6_8  and  C7_9
REMARK    4  A    between atoms: C7_9  and  C8_10
REMARK    5  A    between atoms: C8_10  and  C9_11
REMARK    6  A    between atoms: C9_11  and  C10_12
REMARK       I    between atoms: C10_12  and  N2_14
REMARK    7  A    between atoms: N2_14  and  C11_16
REMARK    8  A    between atoms: C13_18  and  N3_19
REMARK    9  A    between atoms: N3_19  and  C14_22
REMARK   10  A    between atoms: C14_22  and  C15_23
REMARK   11  A    between atoms: C15_23  and  C16_24
REMARK   12  A    between atoms: C16_24  and  N4_25
REMARK   13  A    between atoms: N4_25  and  C17_27
REMARK   14  A    between atoms: C17_27  and  C18_28
REMARK   15  A    between atoms: C18_28  and  C19_29
REMARK   16  A    between atoms: C19_29  and  N5_30
ROOT
HETATM    1  C11 UNL     1      13.139  16.922  11.287  1.00  0.00     0.115 C
HETATM    2  C12 UNL     1      13.116  17.473   9.898  1.00  0.00     0.060 C
HETATM    3  C13 UNL     1      11.694  17.507   9.437  1.00  0.00     0.188 C
HETATM    4  C21 UNL     1      10.664  17.264  10.510  1.00  0.00     0.041 C
HETATM    5  C22 UNL     1      10.917  17.904  11.805  1.00  0.00     0.028 C
HETATM    6  C23 UNL     1      12.408  18.005  12.131  1.00  0.00     0.149 C
HETATM    7  O2  UNL     1      12.818  19.221  11.686  1.00  0.00    -0.383 OA
HETATM    8  C24 UNL     1      11.757  20.109  11.853  1.00  0.00     0.177 C
HETATM    9  C25 UNL     1      10.495  19.299  12.044  1.00  0.00    -0.020 C
HETATM   10  C26 UNL     1       9.416  19.869  11.215  1.00  0.00     0.017 C
HETATM   11  C27 UNL     1      10.097  19.514  13.526  1.00  0.00     0.017 C
ENDROOT
BRANCH   1  12
HETATM   12  N2  UNL     1      14.439  16.750  11.845  1.00  0.00    -0.354 N
HETATM   13  C10 UNL     1      14.689  15.845  12.929  1.00  0.00     0.217 C
HETATM   14  O1  UNL     1      13.715  15.223  13.375  1.00  0.00    -0.274 OA
ATOM     15  H2  UNL     1      15.216  17.287  11.462  1.00  0.00     0.162 HD
BRANCH  13  16
HETATM   16  C9  UNL     1      16.046  15.691  13.465  1.00  0.00     0.103 C
BRANCH  16  17
HETATM   17  C8  UNL     1      16.815  16.951  13.421  1.00  0.00     0.009 C
BRANCH  17  18
HETATM   18  C7  UNL     1      16.398  18.117  14.197  1.00  0.00     0.002 C
BRANCH  18  19
HETATM   19  C6  UNL     1      16.183  19.422  13.528  1.00  0.00     0.020 C
BRANCH  19  20
HETATM   20  C5  UNL     1      17.064  20.534  13.975  1.00  0.00     0.119 C
BRANCH  20  21
HETATM   21  N1  UNL     1      18.421  20.348  13.579  1.00  0.00    -0.390 N
HETATM   22  C4  UNL     1      19.176  21.295  13.113  1.00  0.00     0.031 A
HETATM   23  C3  UNL     1      18.706  22.569  12.966  1.00  0.00     0.053 A
HETATM   24  C28 UNL     1      20.464  21.018  12.758  1.00  0.00     0.046 A
HETATM   25  C2  UNL     1      19.495  23.607  12.464  1.00  0.00     0.007 A
HETATM   26  C1  UNL     1      18.948  24.976  12.311  1.00  0.00     0.068 C
HETATM   27  N8  UNL     1      20.761  23.297  12.124  1.00  0.00    -0.369 N
HETATM   28  C29 UNL     1      21.251  22.045  12.259  1.00  0.00     0.090 A
ATOM     29  H8  UNL     1      21.367  24.029  11.755  1.00  0.00     0.165 HD
ATOM     30  H1  UNL     1      18.822  19.415  13.667  1.00  0.00     0.159 HD
ENDBRANCH  20  21
ENDBRANCH  19  20
ENDBRANCH  18  19
ENDBRANCH  17  18
ENDBRANCH  16  17
ENDBRANCH  13  16
ENDBRANCH   1  12
BRANCH   3  31
HETATM   31  N3  UNL     1      11.445  18.765   8.761  1.00  0.00    -0.070 N
ATOM     32  H32 UNL     1      10.575  19.182   9.092  1.00  0.00     0.277 HD
ATOM     33  H31 UNL     1      12.108  19.475   9.073  1.00  0.00     0.277 HD
BRANCH  31  34
HETATM   34  C14 UNL     1      11.445  18.672   7.333  1.00  0.00     0.237 C
BRANCH  34  35
HETATM   35  C15 UNL     1      11.423  17.247   6.840  1.00  0.00     0.072 C
BRANCH  35  36
HETATM   36  C16 UNL     1      11.891  17.054   5.441  1.00  0.00     0.061 C
BRANCH  36  37
HETATM   37  N4  UNL     1      11.514  15.908   4.743  1.00  0.00    -0.382 N
ATOM     38  H4  UNL     1      10.625  15.473   4.987  1.00  0.00     0.163 HD
BRANCH  37  39
HETATM   39  C17 UNL     1      12.265  15.323   3.743  1.00  0.00     0.061 C
BRANCH  39  40
HETATM   40  C18 UNL     1      12.066  15.620   2.318  1.00  0.00     0.064 C
BRANCH  40  41
HETATM   41  C19 UNL     1      13.436  16.085   1.779  1.00  0.00     0.127 C
BRANCH  41  42
HETATM   42  N5  UNL     1      14.397  16.271   2.836  1.00  0.00    -0.367 N
HETATM   43  C20 UNL     1      15.638  16.367   2.526  1.00  0.00     0.196 C
HETATM   44  N6  UNL     1      16.607  16.551   3.538  1.00  0.00    -0.067 NA
HETATM   45  N7  UNL     1      16.053  16.289   1.175  1.00  0.00    -0.067 NA
ATOM     46  H5  UNL     1      14.097  16.325   3.810  1.00  0.00     0.161 HD
ENDBRANCH  41  42
ENDBRANCH  40  41
ENDBRANCH  39  40
ENDBRANCH  37  39
ENDBRANCH  36  37
ENDBRANCH  35  36
ENDBRANCH  34  35
ENDBRANCH  31  34
ENDBRANCH   3  31
TORSDOF 16
ENDMDL