MODEL 2
REMARK VINA RESULT: -6.611835993      2.392      6.181
REMARK  17 active torsions:
REMARK  status: ('A' for Active; 'I' for Inactive)
REMARK    1  A    between atoms: N1_1  and  C1_5
REMARK    2  A    between atoms: C1_5  and  C2_6
REMARK    3  A    between atoms: C2_6  and  C3_7
REMARK    4  A    between atoms: C3_7  and  C4_8
REMARK    5  A    between atoms: C4_8  and  C5_9
REMARK    6  A    between atoms: C5_9  and  N2_10
REMARK    7  A    between atoms: C5_9  and  C16_27
REMARK    8  A    between atoms: N2_10  and  S1_12
REMARK    9  A    between atoms: S1_12  and  N3_15
REMARK   10  A    between atoms: N3_15  and  C6_17
REMARK   11  A    between atoms: C6_17  and  C7_18
REMARK   12  A    between atoms: C7_18  and  C8_19
REMARK       I    between atoms: C16_27  and  N4_29
REMARK   13  A    between atoms: N4_29  and  C17_31
REMARK   14  A    between atoms: C17_31  and  C18_32
REMARK       I    between atoms: C18_32  and  N5_34
REMARK   15  A    between atoms: N5_34  and  C19_36
REMARK   16  A    between atoms: C19_36  and  C20_37
REMARK   17  A    between atoms: C20_37  and  C21_38
ROOT
HETATM    1  C5  UNL     1      15.273  22.613  15.787  1.00  0.00     0.186 C
ENDROOT
BRANCH   1   2
HETATM    2  C4  UNL     1      15.568  24.038  15.665  1.00  0.00     0.035 C
BRANCH   2   3
HETATM    3  C3  UNL     1      15.016  24.866  14.597  1.00  0.00     0.004 C
BRANCH   3   4
HETATM    4  C2  UNL     1      15.879  25.053  13.385  1.00  0.00     0.027 C
BRANCH   4   5
HETATM    5  C1  UNL     1      17.273  25.385  13.870  1.00  0.00     0.229 C
BRANCH   5   6
HETATM    6  N1  UNL     1      18.270  24.495  13.335  1.00  0.00    -0.079 N
ATOM      7  H13 UNL     1      17.845  23.779  12.746  1.00  0.00     0.274 HD
ATOM      8  H12 UNL     1      18.844  24.965  12.634  1.00  0.00     0.274 HD
ATOM      9  H11 UNL     1      18.849  24.075  14.062  1.00  0.00     0.274 HD
ENDBRANCH   5   6
ENDBRANCH   4   5
ENDBRANCH   3   4
ENDBRANCH   2   3
ENDBRANCH   1   2
BRANCH   1  10
HETATM   10  N2  UNL     1      14.102  22.096  15.170  1.00  0.00    -0.289 N
ATOM     11  H2  UNL     1      13.941  22.265  14.177  1.00  0.00     0.174 HD
BRANCH  10  12
HETATM   12  S1  UNL     1      12.990  21.220  16.044  1.00  0.00     0.315 S
HETATM   13  O1  UNL     1      13.428  20.900  17.456  1.00  0.00    -0.183 OA
HETATM   14  O2  UNL     1      11.670  21.944  16.202  1.00  0.00    -0.183 OA
BRANCH  12  15
HETATM   15  N3  UNL     1      12.629  19.727  15.300  1.00  0.00    -0.303 N
ATOM     16  H3  UNL     1      12.883  18.836  15.729  1.00  0.00     0.173 HD
BRANCH  15  17
HETATM   17  C6  UNL     1      11.956  19.793  14.049  1.00  0.00     0.134 C
BRANCH  17  18
HETATM   18  C7  UNL     1      12.813  19.208  12.943  1.00  0.00     0.025 C
BRANCH  18  19
HETATM   19  C8  UNL     1      12.023  19.227  11.659  1.00  0.00    -0.013 C
HETATM   20  C9  UNL     1      10.871  18.301  11.756  1.00  0.00     0.005 C
HETATM   21  C10 UNL     1      10.159  18.287  10.416  1.00  0.00     0.000 C
HETATM   22  C11 UNL     1      10.360  16.958   9.774  1.00  0.00     0.000 C
HETATM   23  C12 UNL     1      11.486  17.092   8.750  1.00  0.00     0.000 C
HETATM   24  C13 UNL     1      12.779  16.644   9.326  1.00  0.00     0.000 C
HETATM   25  C14 UNL     1      13.325  17.466  10.438  1.00  0.00     0.000 C
HETATM   26  C15 UNL     1      12.945  18.890  10.473  1.00  0.00     0.005 C
ENDBRANCH  18  19
ENDBRANCH  17  18
ENDBRANCH  15  17
ENDBRANCH  12  15
ENDBRANCH  10  12
ENDBRANCH   1  10
BRANCH   1  27
HETATM   27  C16 UNL     1      16.464  21.876  15.157  1.00  0.00     0.242 C
HETATM   28  O3  UNL     1      17.615  22.296  15.410  1.00  0.00    -0.271 OA
HETATM   29  N4  UNL     1      16.289  20.767  14.319  1.00  0.00    -0.341 N
ATOM     30  H4  UNL     1      15.334  20.459  14.133  1.00  0.00     0.163 HD
BRANCH  29  31
HETATM   31  C17 UNL     1      17.368  20.027  13.697  1.00  0.00     0.114 C
HETATM   32  C22 UNL     1      18.484  19.733  14.627  1.00  0.00     0.041 C
HETATM   33  C23 UNL     1      19.777  20.034  13.917  1.00  0.00     0.003 C
HETATM   34  C24 UNL     1      19.414  20.976  12.820  1.00  0.00     0.003 C
HETATM   35  C25 UNL     1      17.950  20.787  12.548  1.00  0.00     0.041 C
BRANCH  31  36
HETATM   36  C18 UNL     1      16.780  18.764  13.137  1.00  0.00     0.246 C
HETATM   37  O4  UNL     1      16.264  18.764  11.992  1.00  0.00    -0.271 OA
HETATM   38  N5  UNL     1      16.785  17.550  13.866  1.00  0.00    -0.358 N
ATOM     39  H5  UNL     1      17.201  17.542  14.798  1.00  0.00     0.162 HD
BRANCH  38  40
HETATM   40  C19 UNL     1      16.239  16.347  13.359  1.00  0.00     0.133 C
BRANCH  40  41
HETATM   41  C20 UNL     1      14.850  16.025  13.816  1.00  0.00     0.133 C
BRANCH  41  42
HETATM   42  C21 UNL     1      14.703  16.309  15.283  1.00  0.00     0.174 C
HETATM   43  O5  UNL     1      14.276  17.455  15.580  1.00  0.00    -0.648 OA
HETATM   44  O6  UNL     1      15.027  15.340  16.193  1.00  0.00    -0.648 OA
ENDBRANCH  41  42
ENDBRANCH  40  41
ENDBRANCH  38  40
ENDBRANCH  31  36
ENDBRANCH  29  31
ENDBRANCH   1  27
TORSDOF 17
ENDMDL