MODEL 1
REMARK VINA RESULT: -6.204210465      0.000      0.000
REMARK  20 active torsions:
REMARK  status: ('A' for Active; 'I' for Inactive)
REMARK    1  A    between atoms: N1_2  and  C2_5
REMARK    2  A    between atoms: C2_5  and  C3_6
REMARK    3  A    between atoms: C3_6  and  C4_7
REMARK    4  A    between atoms: C4_7  and  C5_8
REMARK    5  A    between atoms: C5_8  and  C6_9
REMARK    6  A    between atoms: C6_9  and  C7_10
REMARK    7  A    between atoms: C7_10  and  N2_11
REMARK    8  A    between atoms: N2_11  and  C8_13
REMARK    9  A    between atoms: C9_16  and  N4_17
REMARK   10  A    between atoms: N4_17  and  C10_19
REMARK   11  A    between atoms: C10_19  and  C11_20
REMARK   12  A    between atoms: C11_20  and  C12_21
REMARK   13  A    between atoms: C12_21  and  N5_22
REMARK   14  A    between atoms: N5_22  and  C13_24
REMARK   15  A    between atoms: C18_31  and  O1_32
REMARK   16  A    between atoms: O1_32  and  C19_33
REMARK   17  A    between atoms: C25_41  and  N8_42
REMARK   18  A    between atoms: N8_42  and  C26_44
REMARK   19  A    between atoms: C26_44  and  C27_45
REMARK   20  A    between atoms: C27_45  and  N9_46
ROOT
HETATM    1  C8  UNL     1      11.770  18.324  14.001  1.00  0.00     0.707 A
HETATM    2  N3  UNL     1      12.458  17.297  13.563  1.00  0.00    -0.021 N
ATOM      3  H3  UNL     1      12.135  16.833  12.713  1.00  0.00     0.203 HD
HETATM    4  C9  UNL     1      13.582  16.806  14.173  1.00  0.00     0.710 A
HETATM    5  N7  UNL     1      13.942  17.471  15.288  1.00  0.00    -0.021 N
ATOM      6  H7  UNL     1      14.772  17.150  15.787  1.00  0.00     0.203 HD
HETATM    7  C25 UNL     1      13.282  18.530  15.788  1.00  0.00     0.707 A
HETATM    8  N10 UNL     1      12.200  18.943  15.133  1.00  0.00    -0.022 N
ATOM      9  H10 UNL     1      11.679  19.744  15.489  1.00  0.00     0.203 HD
ENDROOT
BRANCH   4  10
HETATM   10  N4  UNL     1      14.146  15.840  13.669  1.00  0.00    -0.204 N
ATOM     11  H4  UNL     1      14.133  15.063  14.329  1.00  0.00     0.183 HD
BRANCH  10  12
HETATM   12  C10 UNL     1      14.789  15.448  12.520  1.00  0.00     0.080 C
BRANCH  12  13
HETATM   13  C11 UNL     1      15.496  16.460  11.677  1.00  0.00     0.065 C
BRANCH  13  14
HETATM   14  C12 UNL     1      16.677  17.119  12.339  1.00  0.00     0.125 C
BRANCH  14  15
HETATM   15  N5  UNL     1      16.381  18.460  12.718  1.00  0.00    -0.389 N
ATOM     16  H5  UNL     1      15.482  18.827  12.408  1.00  0.00     0.159 HD
BRANCH  15  17
HETATM   17  C13 UNL     1      17.110  19.258  13.401  1.00  0.00     0.042 A
HETATM   18  C14 UNL     1      17.783  18.847  14.523  1.00  0.00     0.047 A
HETATM   19  C15 UNL     1      18.569  19.757  15.241  1.00  0.00     0.090 A
HETATM   20  N6  UNL     1      18.640  21.020  14.804  1.00  0.00    -0.365 N
HETATM   21  C16 UNL     1      17.995  21.461  13.710  1.00  0.00     0.047 A
ATOM     22  H6  UNL     1      19.212  21.681  15.328  1.00  0.00     0.165 HD
HETATM   23  C17 UNL     1      18.089  22.782  13.286  1.00  0.00     0.067 A
HETATM   24  C24 UNL     1      17.221  20.568  13.002  1.00  0.00     0.017 A
HETATM   25  C18 UNL     1      17.450  23.262  12.189  1.00  0.00     0.071 A
HETATM   26  C22 UNL     1      16.662  22.360  11.463  1.00  0.00     0.038 A
HETATM   27  C23 UNL     1      16.555  21.043  11.867  1.00  0.00     0.019 A
BRANCH  25  28
HETATM   28  O1  UNL     1      17.485  24.545  11.697  1.00  0.00    -0.347 OA
BRANCH  28  29
HETATM   29  C19 UNL     1      18.033  24.956  10.492  1.00  0.00     0.120 C
HETATM   30  C20 UNL     1      17.410  26.222   9.948  1.00  0.00     0.040 C
HETATM   31  C21 UNL     1      19.527  25.115  10.694  1.00  0.00     0.040 C
ENDBRANCH  28  29
ENDBRANCH  25  28
ENDBRANCH  15  17
ENDBRANCH  14  15
ENDBRANCH  13  14
ENDBRANCH  12  13
ENDBRANCH  10  12
ENDBRANCH   4  10
BRANCH   1  32
HETATM   32  N2  UNL     1      10.729  18.765  13.414  1.00  0.00    -0.225 N
ATOM     33  H2  UNL     1       9.820  18.634  13.857  1.00  0.00     0.177 HD
BRANCH  32  34
HETATM   34  C7  UNL     1      10.796  19.438  12.150  1.00  0.00     0.138 C
BRANCH  34  35
HETATM   35  C6  UNL     1       9.909  18.809  11.091  1.00  0.00     0.020 C
BRANCH  35  36
HETATM   36  C5  UNL     1      10.519  17.579  10.500  1.00  0.00     0.002 C
BRANCH  36  37
HETATM   37  C4  UNL     1      10.110  17.298   9.087  1.00  0.00     0.002 C
BRANCH  37  38
HETATM   38  C3  UNL     1      11.379  17.402   8.240  1.00  0.00     0.027 C
BRANCH  38  39
HETATM   39  C2  UNL     1      11.406  18.685   7.445  1.00  0.00     0.231 C
BRANCH  39  40
HETATM   40  N1  UNL     1      11.401  18.454   6.029  1.00  0.00    -0.079 N
HETATM   41  C1  UNL     1      11.778  17.100   5.684  1.00  0.00     0.266 C
ATOM     42  H12 UNL     1      11.989  19.132   5.545  1.00  0.00     0.276 HD
ATOM     43  H11 UNL     1      10.498  18.697   5.621  1.00  0.00     0.276 HD
ENDBRANCH  39  40
ENDBRANCH  38  39
ENDBRANCH  37  38
ENDBRANCH  36  37
ENDBRANCH  35  36
ENDBRANCH  34  35
ENDBRANCH  32  34
ENDBRANCH   1  32
BRANCH   7  44
HETATM   44  N8  UNL     1      13.615  19.191  16.834  1.00  0.00    -0.223 N
ATOM     45  H8  UNL     1      13.813  18.689  17.699  1.00  0.00     0.177 HD
BRANCH  44  46
HETATM   46  C26 UNL     1      13.715  20.622  16.812  1.00  0.00     0.168 C
BRANCH  46  47
HETATM   47  C27 UNL     1      15.052  21.073  16.248  1.00  0.00     0.291 C
BRANCH  47  48
HETATM   48  N9  UNL     1      14.910  22.160  15.343  1.00  0.00     0.081 N
HETATM   49  C28 UNL     1      14.814  23.440  15.972  1.00  0.00     0.309 C
HETATM   50  C29 UNL     1      13.973  21.990  14.280  1.00  0.00     0.309 C
ENDBRANCH  47  48
ENDBRANCH  46  47
ENDBRANCH  44  46
ENDBRANCH   7  44
TORSDOF 20
ENDMDL