MODEL 2
REMARK VINA RESULT: -6.889031926      4.612      7.619
REMARK  21 active torsions:
REMARK  status: ('A' for Active; 'I' for Inactive)
REMARK    1  A    between atoms: C2_2  and  C3_3
REMARK    2  A    between atoms: C2_2  and  C20_29
REMARK    3  A    between atoms: C3_3  and  C4_4
REMARK    4  A    between atoms: C4_4  and  C5_5
REMARK    5  A    between atoms: C5_5  and  C6_6
REMARK    6  A    between atoms: C9_9  and  C10_10
REMARK    7  A    between atoms: C15_15  and  C16_16
REMARK    8  A    between atoms: C16_16  and  N1_17
REMARK    9  A    between atoms: N1_17  and  C17_20
REMARK   10  A    between atoms: C17_20  and  C18_21
REMARK   11  A    between atoms: C18_21  and  O1_22
REMARK   12  A    between atoms: O1_22  and  N2_23
REMARK   13  A    between atoms: C20_29  and  C21_30
REMARK   14  A    between atoms: N4_33  and  C24_34
REMARK   15  A    between atoms: C24_34  and  O2_35
REMARK   16  A    between atoms: C24_34  and  C25_37
REMARK   17  A    between atoms: C25_37  and  N5_38
REMARK   18  A    between atoms: C25_37  and  C26_42
REMARK   19  A    between atoms: C26_42  and  C27_43
REMARK   20  A    between atoms: C27_43  and  C28_44
REMARK   21  A    between atoms: C28_44  and  N6_45
ROOT
HETATM    1  C3  UNL     1      10.461  17.477  10.097  1.00  0.00     0.004 C
ENDROOT
BRANCH   1   2
HETATM    2  C2  UNL     1      11.737  17.242   9.301  1.00  0.00    -0.018 C
HETATM    3  C1  UNL     1      11.562  17.766   7.926  1.00  0.00     0.010 C
BRANCH   2   4
HETATM    4  C20 UNL     1      12.930  17.697  10.063  1.00  0.00     0.010 C
BRANCH   4   5
HETATM    5  C21 UNL     1      13.454  16.726  11.043  1.00  0.00     0.005 C
HETATM    6  C22 UNL     1      14.799  16.124  10.778  1.00  0.00     0.026 C
HETATM    7  C23 UNL     1      15.140  15.643  12.230  1.00  0.00     0.125 C
HETATM    8  N4  UNL     1      14.953  16.893  12.902  1.00  0.00    -0.363 N
HETATM    9  C30 UNL     1      13.619  17.355  12.424  1.00  0.00     0.129 C
BRANCH   8  10
HETATM   10  C24 UNL     1      15.712  17.639  13.797  1.00  0.00     0.144 C
BRANCH  10  11
HETATM   11  O2  UNL     1      15.747  17.194  15.019  1.00  0.00    -0.348 OA
ATOM     12  H2  UNL     1      16.612  17.094  15.398  1.00  0.00     0.219 HD
ENDBRANCH  10  11
BRANCH  10  13
HETATM   13  C25 UNL     1      16.481  18.851  13.577  1.00  0.00     0.257 C
BRANCH  13  14
HETATM   14  N5  UNL     1      17.420  19.120  14.659  1.00  0.00    -0.068 N
ATOM     15  H53 UNL     1      17.028  19.781  15.329  1.00  0.00     0.275 HD
ATOM     16  H52 UNL     1      17.520  18.308  15.268  1.00  0.00     0.275 HD
ATOM     17  H51 UNL     1      18.327  19.437  14.317  1.00  0.00     0.275 HD
ENDBRANCH  13  14
BRANCH  13  18
HETATM   18  C26 UNL     1      15.705  20.105  13.347  1.00  0.00     0.043 C
BRANCH  18  19
HETATM   19  C27 UNL     1      15.897  20.765  12.024  1.00  0.00     0.022 C
BRANCH  19  20
HETATM   20  C28 UNL     1      17.336  21.337  12.029  1.00  0.00     0.122 C
BRANCH  20  21
HETATM   21  N6  UNL     1      17.366  22.640  12.608  1.00  0.00    -0.367 N
HETATM   22  C29 UNL     1      18.087  22.928  13.665  1.00  0.00     0.196 C
HETATM   23  N7  UNL     1      18.074  24.244  14.193  1.00  0.00    -0.067 NA
HETATM   24  N8  UNL     1      18.884  21.943  14.296  1.00  0.00    -0.067 NA
ATOM     25  H6  UNL     1      16.804  23.378  12.183  1.00  0.00     0.161 HD
ENDBRANCH  20  21
ENDBRANCH  19  20
ENDBRANCH  18  19
ENDBRANCH  13  18
ENDBRANCH  10  13
ENDBRANCH   8  10
ENDBRANCH   4   5
ENDBRANCH   2   4
ENDBRANCH   1   2
BRANCH   1  26
HETATM   26  C4  UNL     1      10.330  18.894  10.486  1.00  0.00     0.005 C
BRANCH  26  27
HETATM   27  C5  UNL     1       9.994  19.115  11.965  1.00  0.00     0.040 C
BRANCH  27  28
HETATM   28  C6  UNL     1      10.949  20.223  12.374  1.00  0.00    -0.043 A
HETATM   29  C7  UNL     1      11.638  20.953  11.437  1.00  0.00     0.010 A
HETATM   30  C8  UNL     1      12.489  21.972  11.830  1.00  0.00     0.026 A
HETATM   31  C9  UNL     1      12.635  22.247  13.180  1.00  0.00     0.013 A
HETATM   32  N3  UNL     1      11.969  21.541  14.085  1.00  0.00    -0.368 N
HETATM   33  C19 UNL     1      11.148  20.556  13.695  1.00  0.00     0.095 A
ATOM     34  H3  UNL     1      12.082  21.748  15.077  1.00  0.00     0.165 HD
BRANCH  31  35
HETATM   35  C10 UNL     1      13.559  23.370  13.548  1.00  0.00     0.041 C
HETATM   36  C11 UNL     1      13.089  24.641  12.871  1.00  0.00     0.011 C
HETATM   37  C12 UNL     1      11.892  25.263  13.524  1.00  0.00     0.001 C
HETATM   38  C13 UNL     1      12.106  25.415  15.024  1.00  0.00     0.000 C
HETATM   39  C14 UNL     1      13.513  25.002  15.375  1.00  0.00     0.007 C
HETATM   40  C15 UNL     1      13.643  23.510  15.033  1.00  0.00     0.021 C
BRANCH  40  41
HETATM   41  C16 UNL     1      14.958  22.995  15.566  1.00  0.00     0.237 C
BRANCH  41  42
HETATM   42  N1  UNL     1      14.847  22.455  16.872  1.00  0.00    -0.073 N
ATOM     43  H12 UNL     1      15.495  22.911  17.513  1.00  0.00     0.277 HD
ATOM     44  H11 UNL     1      13.966  22.727  17.308  1.00  0.00     0.277 HD
BRANCH  42  45
HETATM   45  C17 UNL     1      15.014  21.032  16.894  1.00  0.00     0.260 C
BRANCH  45  46
HETATM   46  C18 UNL     1      13.711  20.271  16.905  1.00  0.00     0.228 C
BRANCH  46  47
HETATM   47  O1  UNL     1      14.037  18.953  16.532  1.00  0.00    -0.286 OA
BRANCH  47  48
HETATM   48  N2  UNL     1      12.999  18.396  15.910  1.00  0.00    -0.311 N
ATOM     49  H22 UNL     1      12.071  18.291  16.319  1.00  0.00     0.184 HD
ATOM     50  H21 UNL     1      13.281  18.098  14.976  1.00  0.00     0.184 HD
ENDBRANCH  47  48
ENDBRANCH  46  47
ENDBRANCH  45  46
ENDBRANCH  42  45
ENDBRANCH  41  42
ENDBRANCH  40  41
ENDBRANCH  31  35
ENDBRANCH  27  28
ENDBRANCH  26  27
ENDBRANCH   1  26
TORSDOF 21
ENDMDL