MODEL 4
REMARK VINA RESULT: -6.005684124      8.321     13.363
REMARK  22 active torsions:
REMARK  status: ('A' for Active; 'I' for Inactive)
REMARK    1  A    between atoms: C2_2  and  C4_4
REMARK    2  A    between atoms: C4_4  and  C5_5
REMARK    3  A    between atoms: C5_5  and  N1_6
REMARK    4  A    between atoms: C10_11  and  C11_12
REMARK    5  A    between atoms: C11_12  and  C13_14
REMARK    6  A    between atoms: C13_14  and  N2_15
REMARK    7  A    between atoms: C13_14  and  C26_42
REMARK    8  A    between atoms: N2_15  and  C14_17
REMARK    9  A    between atoms: C14_17  and  C15_18
REMARK   10  A    between atoms: C14_17  and  C19_26
REMARK   11  A    between atoms: C15_18  and  C16_19
REMARK   12  A    between atoms: C16_19  and  C17_20
REMARK   13  A    between atoms: C17_20  and  C18_21
REMARK   14  A    between atoms: C18_21  and  N3_22
REMARK       I    between atoms: C19_26  and  N4_28
REMARK   15  A    between atoms: N4_28  and  C20_30
REMARK   16  A    between atoms: C20_30  and  C21_31
REMARK   17  A    between atoms: C20_30  and  C25_39
REMARK   18  A    between atoms: C21_31  and  C22_32
REMARK   19  A    between atoms: C22_32  and  C23_33
REMARK   20  A    between atoms: C23_33  and  N5_34
REMARK   21  A    between atoms: C26_42  and  O4_44
REMARK   22  A    between atoms: O4_44  and  C27_45
ROOT
HETATM    1  C14 UNL     1       1.032  16.695  13.203  1.00  0.00     0.170 C
ENDROOT
BRANCH   1   2
HETATM    2  N2  UNL     1       1.436  15.516  13.814  1.00  0.00    -0.396 N
ATOM      3  H2  UNL     1       2.234  15.020  13.419  1.00  0.00     0.155 HD
BRANCH   2   4
HETATM    4  C13 UNL     1       0.813  14.968  14.938  1.00  0.00     0.187 C
BRANCH   4   5
HETATM    5  C11 UNL     1       1.768  14.852  16.149  1.00  0.00     0.059 C
HETATM    6  C12 UNL     1       3.191  14.857  15.680  1.00  0.00     0.018 C
BRANCH   5   7
HETATM    7  C10 UNL     1       1.451  15.822  17.251  1.00  0.00    -0.010 C
HETATM    8  N1  UNL     1       2.487  16.548  17.839  1.00  0.00    -0.387 N
HETATM    9  C6  UNL     1       3.032  16.098  19.070  1.00  0.00     0.122 C
HETATM   10  C7  UNL     1       2.093  15.480  20.041  1.00  0.00     0.020 C
HETATM   11  C8  UNL     1       1.038  14.619  19.447  1.00  0.00     0.007 C
HETATM   12  C9  UNL     1       0.461  15.212  18.226  1.00  0.00     0.053 C
BRANCH   8  13
HETATM   13  C5  UNL     1       2.398  17.981  17.750  1.00  0.00     0.123 C
BRANCH  13  14
HETATM   14  C4  UNL     1       3.752  18.650  17.573  1.00  0.00     0.023 C
BRANCH  14  15
HETATM   15  C2  UNL     1       4.234  18.470  16.134  1.00  0.00    -0.021 C
HETATM   16  C1  UNL     1       5.530  17.715  16.098  1.00  0.00     0.009 C
HETATM   17  C3  UNL     1       4.437  19.847  15.552  1.00  0.00     0.009 C
ENDBRANCH  14  15
ENDBRANCH  13  14
ENDBRANCH   8  13
ENDBRANCH   5   7
ENDBRANCH   4   5
BRANCH   4  18
HETATM   18  C26 UNL     1       0.187  13.635  14.770  1.00  0.00     0.282 C
HETATM   19  O3  UNL     1      -0.238  13.296  13.646  1.00  0.00    -0.263 OA
BRANCH  18  20
HETATM   20  O4  UNL     1       0.041  12.736  15.810  1.00  0.00    -0.310 OA
BRANCH  20  21
HETATM   21  C27 UNL     1      -1.192  12.264  16.310  1.00  0.00     0.060 C
HETATM   22  C28 UNL     1      -1.650  11.067  15.480  1.00  0.00     0.045 C
HETATM   23  C29 UNL     1      -2.251  13.357  16.237  1.00  0.00     0.045 C
HETATM   24  C30 UNL     1      -1.030  11.820  17.726  1.00  0.00     0.045 C
ENDBRANCH  20  21
ENDBRANCH  18  20
ENDBRANCH   4  18
ENDBRANCH   2   4
ENDBRANCH   1   2
BRANCH   1  25
HETATM   25  C15 UNL     1       1.964  17.823  12.986  1.00  0.00     0.034 C
BRANCH  25  26
HETATM   26  C16 UNL     1       3.392  17.563  12.744  1.00  0.00     0.004 C
BRANCH  26  27
HETATM   27  C17 UNL     1       3.860  18.557  11.657  1.00  0.00     0.027 C
BRANCH  27  28
HETATM   28  C18 UNL     1       3.744  17.896  10.296  1.00  0.00     0.229 C
BRANCH  28  29
HETATM   29  N3  UNL     1       2.726  18.565   9.515  1.00  0.00    -0.079 N
ATOM     30  H33 UNL     1       2.470  19.469   9.912  1.00  0.00     0.274 HD
ATOM     31  H32 UNL     1       3.084  18.893   8.618  1.00  0.00     0.274 HD
ATOM     32  H31 UNL     1       1.919  17.951   9.406  1.00  0.00     0.274 HD
ENDBRANCH  28  29
ENDBRANCH  27  28
ENDBRANCH  26  27
ENDBRANCH  25  26
ENDBRANCH   1  25
BRANCH   1  33
HETATM   33  C19 UNL     1       0.468  16.368  11.823  1.00  0.00     0.240 C
HETATM   34  O1  UNL     1       0.331  17.298  10.997  1.00  0.00    -0.271 OA
HETATM   35  N4  UNL     1       0.120  15.056  11.495  1.00  0.00    -0.346 N
ATOM     36  H4  UNL     1       0.253  14.340  12.210  1.00  0.00     0.163 HD
BRANCH  35  37
HETATM   37  C20 UNL     1      -0.410  14.640  10.234  1.00  0.00     0.173 C
BRANCH  37  38
HETATM   38  C21 UNL     1      -0.111  13.139  10.005  1.00  0.00     0.036 C
BRANCH  38  39
HETATM   39  C22 UNL     1       0.981  12.993   8.959  1.00  0.00     0.022 C
BRANCH  39  40
HETATM   40  C23 UNL     1       0.381  12.237   7.782  1.00  0.00     0.122 C
BRANCH  40  41
HETATM   41  N5  UNL     1       1.371  12.000   6.779  1.00  0.00    -0.367 N
HETATM   42  C24 UNL     1       1.211  11.104   5.839  1.00  0.00     0.196 C
HETATM   43  N6  UNL     1       2.169  10.854   4.843  1.00  0.00    -0.067 NA
HETATM   44  N7  UNL     1      -0.004  10.368   5.857  1.00  0.00    -0.067 NA
ATOM     45  H5  UNL     1       2.232  12.547   6.797  1.00  0.00     0.161 HD
ENDBRANCH  40  41
ENDBRANCH  39  40
ENDBRANCH  38  39
ENDBRANCH  37  38
BRANCH  37  46
HETATM   46  C25 UNL     1      -1.872  14.843  10.160  1.00  0.00     0.254 C
HETATM   47  N8  UNL     1      -2.732  14.285  11.133  1.00  0.00    -0.060 NA
HETATM   48  O2  UNL     1      -2.351  15.518   9.225  1.00  0.00    -0.275 OA
ENDBRANCH  37  46
ENDBRANCH  35  37
ENDBRANCH   1  33
TORSDOF 22
ENDMDL