MODEL 1
REMARK VINA RESULT: -6.450965544      0.000      0.000
REMARK  21 active torsions:
REMARK  status: ('A' for Active; 'I' for Inactive)
REMARK    1  A    between atoms: C2_2  and  N1_3
REMARK    2  A    between atoms: C4_8  and  N3_9
REMARK    3  A    between atoms: C6_18  and  N6_19
REMARK    4  A    between atoms: N6_19  and  C7_21
REMARK    5  A    between atoms: C7_21  and  C8_22
REMARK    6  A    between atoms: C8_22  and  C9_23
REMARK    7  A    between atoms: C9_23  and  C10_24
REMARK    8  A    between atoms: C10_24  and  C11_25
REMARK    9  A    between atoms: C11_25  and  C12_26
REMARK   10  A    between atoms: C12_26  and  C13_27
REMARK   11  A    between atoms: C13_27  and  C14_28
REMARK   12  A    between atoms: C14_28  and  N7_29
REMARK   13  A    between atoms: N7_29  and  C16_31
REMARK   14  A    between atoms: C16_31  and  C17_32
REMARK   15  A    between atoms: C17_32  and  C18_33
REMARK   16  A    between atoms: C17_32  and  N10_48
REMARK   17  A    between atoms: C18_33  and  C19_34
REMARK   18  A    between atoms: C19_34  and  C20_35
REMARK       I    between atoms: C20_35  and  N8_37
REMARK   19  A    between atoms: N8_37  and  C22_39
REMARK   20  A    between atoms: C22_39  and  C23_40
REMARK   21  A    between atoms: C23_40  and  C24_41
REMARK       I    between atoms: N10_48  and  C29_50
ROOT
HETATM    1  C11 UNL     1      12.212  23.260   9.810  1.00  0.00     0.000 C
ENDROOT
BRANCH   1   2
HETATM    2  C10 UNL     1      11.710  22.286   8.838  1.00  0.00     0.000 C
BRANCH   2   3
HETATM    3  C9  UNL     1      12.518  21.356   8.070  1.00  0.00     0.002 C
BRANCH   3   4
HETATM    4  C8  UNL     1      13.762  21.785   7.382  1.00  0.00     0.020 C
BRANCH   4   5
HETATM    5  C7  UNL     1      13.862  21.054   6.001  1.00  0.00     0.121 C
BRANCH   5   6
HETATM    6  N6  UNL     1      13.114  19.843   6.061  1.00  0.00    -0.373 N
ATOM      7  H6  UNL     1      12.647  19.666   6.950  1.00  0.00     0.161 HD
BRANCH   6   8
HETATM    8  C6  UNL     1      12.942  18.953   5.175  1.00  0.00     0.161 C
HETATM    9  C5  UNL     1      11.647  18.411   5.148  1.00  0.00     0.159 C
HETATM   10  N4  UNL     1      11.340  17.151   4.821  1.00  0.00    -0.173 N
HETATM   11  N5  UNL     1      10.703  19.220   5.466  1.00  0.00    -0.382 N
HETATM   12  C4  UNL     1      12.159  16.169   4.341  1.00  0.00     0.692 C
ATOM     13  H4  UNL     1      10.363  16.887   4.948  1.00  0.00     0.186 HD
HETATM   14  N2  UNL     1      13.424  16.300   3.887  1.00  0.00    -0.023 N
HETATM   15  C3  UNL     1      14.093  17.459   3.608  1.00  0.00     0.694 C
ATOM     16  H2  UNL     1      13.940  15.433   3.735  1.00  0.00     0.203 HD
HETATM   17  N1  UNL     1      14.880  17.502   2.605  1.00  0.00    -0.226 N
HETATM   18  N11 UNL     1      13.957  18.596   4.355  1.00  0.00    -0.173 N
ATOM     19  H1  UNL     1      15.381  18.365   2.392  1.00  0.00     0.177 HD
ATOM     20  H11 UNL     1      14.724  19.264   4.285  1.00  0.00     0.186 HD
ATOM     21  H52 UNL     1       9.762  18.826   5.446  1.00  0.00     0.157 HD
ATOM     22  H51 UNL     1      10.937  20.181   5.715  1.00  0.00     0.157 HD
BRANCH  12  23
HETATM   23  N3  UNL     1      11.708  14.976   4.304  1.00  0.00    -0.234 N
ATOM     24  H32 UNL     1      11.621  14.524   3.394  1.00  0.00     0.174 HD
ATOM     25  H31 UNL     1      11.475  14.586   5.218  1.00  0.00     0.174 HD
ENDBRANCH  12  23
BRANCH  17  26
HETATM   26  C2  UNL     1      15.067  16.348   1.770  1.00  0.00     0.133 C
HETATM   27  C1  UNL     1      15.704  16.669   0.452  1.00  0.00     0.027 C
ENDBRANCH  17  26
ENDBRANCH   6   8
ENDBRANCH   5   6
ENDBRANCH   4   5
ENDBRANCH   3   4
ENDBRANCH   2   3
ENDBRANCH   1   2
BRANCH   1  28
HETATM   28  C12 UNL     1      11.763  23.030  11.213  1.00  0.00     0.005 C
BRANCH  28  29
HETATM   29  C13 UNL     1      12.282  24.061  12.167  1.00  0.00     0.044 C
BRANCH  29  30
HETATM   30  C14 UNL     1      11.586  24.213  13.462  1.00  0.00     0.057 C
BRANCH  30  31
HETATM   31  N7  UNL     1      12.156  23.566  14.556  1.00  0.00    -0.396 N
HETATM   32  C15 UNL     1      13.475  23.864  14.977  1.00  0.00     0.148 C
BRANCH  31  33
HETATM   33  C16 UNL     1      11.684  22.296  14.961  1.00  0.00     0.146 C
BRANCH  33  34
HETATM   34  C17 UNL     1      10.218  22.095  14.930  1.00  0.00     0.102 C
BRANCH  34  35
HETATM   35  C18 UNL     1       9.684  20.761  14.598  1.00  0.00     0.036 C
BRANCH  35  36
HETATM   36  C19 UNL     1      10.184  20.420  13.179  1.00  0.00     0.105 C
BRANCH  36  37
HETATM   37  C20 UNL     1      10.643  19.015  13.137  1.00  0.00     0.219 C
HETATM   38  O1  UNL     1      10.945  18.364  14.166  1.00  0.00    -0.273 OA
HETATM   39  N8  UNL     1      10.757  18.355  11.880  1.00  0.00    -0.356 N
HETATM   40  C21 UNL     1      10.412  19.024  10.643  1.00  0.00     0.152 C
BRANCH  39  41
HETATM   41  C22 UNL     1      11.246  16.983  11.791  1.00  0.00     0.125 C
BRANCH  41  42
HETATM   42  C23 UNL     1      12.588  16.941  11.137  1.00  0.00     0.024 C
BRANCH  42  43
HETATM   43  C24 UNL     1      13.721  16.870  12.117  1.00  0.00    -0.010 C
HETATM   44  C25 UNL     1      14.993  16.466  11.412  1.00  0.00     0.024 C
HETATM   45  C26 UNL     1      16.106  16.502  12.442  1.00  0.00     0.114 C
HETATM   46  N9  UNL     1      15.882  15.660  13.573  1.00  0.00    -0.421 N
HETATM   47  C27 UNL     1      14.571  15.099  13.682  1.00  0.00     0.114 C
ATOM     48  H9  UNL     1      16.612  15.471  14.260  1.00  0.00     0.153 HD
HETATM   49  C28 UNL     1      13.454  16.041  13.328  1.00  0.00     0.024 C
ENDBRANCH  42  43
ENDBRANCH  41  42
ENDBRANCH  39  41
ENDBRANCH  36  37
ENDBRANCH  35  36
ENDBRANCH  34  35
BRANCH  34  50
HETATM   50  N10 UNL     1       9.568  22.663  16.119  1.00  0.00    -0.355 N
HETATM   51  C29 UNL     1       8.635  23.712  16.093  1.00  0.00     0.213 C
HETATM   52  C30 UNL     1       8.038  24.204  17.350  1.00  0.00     0.117 C
HETATM   53  O2  UNL     1       8.298  24.243  15.014  1.00  0.00    -0.274 OA
ATOM     54  H10 UNL     1       9.810  22.268  17.027  1.00  0.00     0.162 HD
ENDBRANCH  34  50
ENDBRANCH  33  34
ENDBRANCH  31  33
ENDBRANCH  30  31
ENDBRANCH  29  30
ENDBRANCH  28  29
ENDBRANCH   1  28
TORSDOF 21
ENDMDL