MODEL 1
REMARK VINA RESULT: -6.253995497      0.000      0.000
REMARK  22 active torsions:
REMARK  status: ('A' for Active; 'I' for Inactive)
REMARK    1  A    between atoms: C3_3  and  C4_4
REMARK    2  A    between atoms: C3_3  and  N1_7
REMARK    3  A    between atoms: C4_4  and  C5_5
REMARK    4  A    between atoms: N1_7  and  C7_9
REMARK    5  A    between atoms: C7_9  and  C8_10
REMARK    6  A    between atoms: C8_10  and  C9_11
REMARK    7  A    between atoms: C8_10  and  N3_19
REMARK    8  A    between atoms: C9_11  and  C10_12
REMARK    9  A    between atoms: C10_12  and  C11_13
REMARK   10  A    between atoms: C11_13  and  C12_14
REMARK   11  A    between atoms: C12_14  and  N2_15
REMARK       I    between atoms: N3_19  and  C13_21
REMARK   12  A    between atoms: C13_21  and  C14_23
REMARK   13  A    between atoms: C21_30  and  C22_31
REMARK       I    between atoms: C22_31  and  N4_33
REMARK   14  A    between atoms: N4_33  and  C23_35
REMARK   15  A    between atoms: C23_35  and  C24_36
REMARK   16  A    between atoms: C23_35  and  C31_50
REMARK   17  A    between atoms: C24_36  and  O3_37
REMARK   18  A    between atoms: N5_39  and  C25_41
REMARK   19  A    between atoms: C25_41  and  C26_42
REMARK   20  A    between atoms: C25_41  and  C28_47
REMARK   21  A    between atoms: C26_42  and  C27_44
REMARK   22  A    between atoms: C27_44  and  O5_45
ROOT
HETATM    1  C1  UNL     1      11.078  20.681   8.613  1.00  0.00     0.014 C
HETATM    2  C2  UNL     1      11.066  19.477   8.491  1.00  0.00    -0.092 C
HETATM    3  C3  UNL     1      10.982  18.004   8.342  1.00  0.00     0.156 C
ENDROOT
BRANCH   3   4
HETATM    4  C4  UNL     1      12.018  17.543   7.328  1.00  0.00     0.037 C
BRANCH   4   5
HETATM    5  C5  UNL     1      11.465  17.103   6.022  1.00  0.00    -0.002 C
HETATM    6  C6  UNL     1      12.596  16.554   5.175  1.00  0.00     0.005 C
ENDBRANCH   4   5
ENDBRANCH   3   4
BRANCH   3   7
HETATM    7  N1  UNL     1      10.949  17.323   9.559  1.00  0.00    -0.405 N
ATOM      8  H1  UNL     1      10.076  17.372  10.083  1.00  0.00     0.154 HD
BRANCH   7   9
HETATM    9  C7  UNL     1      11.951  16.603  10.121  1.00  0.00     0.140 C
BRANCH   9  10
HETATM   10  C8  UNL     1      11.775  16.783  11.709  1.00  0.00     0.101 C
BRANCH  10  11
HETATM   11  C9  UNL     1      13.171  16.971  12.210  1.00  0.00     0.027 C
BRANCH  11  12
HETATM   12  C10 UNL     1      14.253  16.353  11.369  1.00  0.00     0.004 C
BRANCH  12  13
HETATM   13  C11 UNL     1      15.593  16.819  11.901  1.00  0.00     0.027 C
BRANCH  13  14
HETATM   14  C12 UNL     1      16.218  15.978  12.944  1.00  0.00     0.229 C
BRANCH  14  15
HETATM   15  N2  UNL     1      17.471  16.446  13.425  1.00  0.00    -0.079 N
ATOM     16  H23 UNL     1      18.086  16.672  12.643  1.00  0.00     0.274 HD
ATOM     17  H22 UNL     1      17.364  17.372  13.841  1.00  0.00     0.274 HD
ATOM     18  H21 UNL     1      17.946  15.820  14.076  1.00  0.00     0.274 HD
ENDBRANCH  14  15
ENDBRANCH  13  14
ENDBRANCH  12  13
ENDBRANCH  11  12
ENDBRANCH  10  11
BRANCH  10  19
HETATM   19  N3  UNL     1      11.007  17.997  11.837  1.00  0.00    -0.355 N
HETATM   20  C13 UNL     1      10.677  18.603  13.109  1.00  0.00     0.223 C
HETATM   21  O1  UNL     1      11.096  18.044  14.169  1.00  0.00    -0.273 OA
ATOM     22  H3  UNL     1      10.679  18.453  10.986  1.00  0.00     0.162 HD
BRANCH  20  23
HETATM   23  C14 UNL     1       9.894  19.817  13.234  1.00  0.00     0.091 C
HETATM   24  C15 UNL     1      10.403  20.921  12.339  1.00  0.00     0.020 C
HETATM   25  C16 UNL     1      10.405  22.117  13.245  1.00  0.00    -0.009 C
HETATM   26  C17 UNL     1      11.471  23.110  13.099  1.00  0.00     0.005 C
HETATM   27  C20 UNL     1      10.810  21.429  14.545  1.00  0.00     0.003 C
HETATM   28  C18 UNL     1      11.873  23.466  14.522  1.00  0.00     0.001 C
HETATM   29  C19 UNL     1      11.154  22.485  15.430  1.00  0.00     0.006 C
HETATM   30  C21 UNL     1       9.834  20.407  14.642  1.00  0.00     0.095 C
BRANCH  30  31
HETATM   31  C22 UNL     1       8.444  20.599  15.066  1.00  0.00     0.223 C
HETATM   32  O2  UNL     1       8.257  21.163  16.179  1.00  0.00    -0.273 OA
HETATM   33  N4  UNL     1       7.335  20.226  14.343  1.00  0.00    -0.348 N
ATOM     34  H4  UNL     1       7.565  19.753  13.469  1.00  0.00     0.163 HD
BRANCH  33  35
HETATM   35  C23 UNL     1       5.934  20.361  14.557  1.00  0.00     0.162 C
BRANCH  35  36
HETATM   36  C24 UNL     1       5.377  20.697  13.167  1.00  0.00     0.135 C
HETATM   37  N5  UNL     1       5.671  20.090  12.001  1.00  0.00    -0.361 N
ATOM     38  H5  UNL     1       6.292  19.308  12.209  1.00  0.00     0.162 HD
BRANCH  36  39
HETATM   39  O3  UNL     1       4.568  21.715  13.219  1.00  0.00    -0.348 OA
ATOM     40  H3  UNL     1       3.990  21.733  12.465  1.00  0.00     0.219 HD
ENDBRANCH  36  39
BRANCH  37  41
HETATM   41  C25 UNL     1       5.457  20.108  10.593  1.00  0.00     0.158 C
BRANCH  41  42
HETATM   42  C26 UNL     1       4.736  19.006   9.975  1.00  0.00     0.172 C
HETATM   43  O4  UNL     1       4.135  18.202  10.707  1.00  0.00    -0.293 OA
BRANCH  42  44
HETATM   44  C27 UNL     1       4.612  18.728   8.511  1.00  0.00     0.244 C
BRANCH  44  45
HETATM   45  O5  UNL     1       5.096  17.478   8.185  1.00  0.00    -0.394 OA
ATOM     46  H5  UNL     1       5.897  17.532   7.679  1.00  0.00     0.209 HD
ENDBRANCH  44  45
ENDBRANCH  42  44
ENDBRANCH  41  42
BRANCH  41  47
HETATM   47  C28 UNL     1       6.848  20.252   9.967  1.00  0.00     0.007 C
HETATM   48  C29 UNL     1       7.393  21.673  10.262  1.00  0.00     0.012 C
HETATM   49  C30 UNL     1       7.838  19.222  10.234  1.00  0.00     0.012 C
ENDBRANCH  41  47
ENDBRANCH  37  41
ENDBRANCH  35  36
BRANCH  35  50
HETATM   50  C31 UNL     1       5.148  19.281  15.156  1.00  0.00     0.008 C
HETATM   51  C32 UNL     1       6.031  18.383  16.045  1.00  0.00     0.012 C
HETATM   52  C33 UNL     1       4.190  19.925  16.171  1.00  0.00     0.012 C
ENDBRANCH  35  50
ENDBRANCH  33  35
ENDBRANCH  30  31
ENDBRANCH  20  23
ENDBRANCH  10  19
ENDBRANCH   9  10
ENDBRANCH   7   9
ENDBRANCH   3   7
TORSDOF 22
ENDMDL