MODEL 2
REMARK VINA RESULT: -5.858686988      1.641      2.152
REMARK  17 active torsions:
REMARK  status: ('A' for Active; 'I' for Inactive)
REMARK    1  A    between atoms: C2_2  and  C4_4
REMARK    2  A    between atoms: C4_4  and  C5_5
REMARK    3  A    between atoms: C5_5  and  C6_6
REMARK    4  A    between atoms: C5_5  and  N7_31
REMARK    5  A    between atoms: C6_6  and  N4_17
REMARK    6  A    between atoms: C7_7  and  C8_8
REMARK    7  A    between atoms: C8_8  and  C9_9
REMARK    8  A    between atoms: C9_9  and  N1_10
REMARK       I    between atoms: N1_10  and  C10_12
REMARK    9  A    between atoms: N4_17  and  S1_19
REMARK   10  A    between atoms: S1_19  and  N5_22
REMARK   11  A    between atoms: N5_22  and  C11_24
REMARK   12  A    between atoms: C11_24  and  C12_25
REMARK   13  A    between atoms: C12_25  and  N6_28
REMARK   14  A    between atoms: N7_31  and  C17_32
REMARK   15  A    between atoms: N7_31  and  S2_36
REMARK   16  A    between atoms: C17_32  and  C18_33
REMARK   17  A    between atoms: S2_36  and  C21_39
ROOT
HETATM    1  C6  UNL     1      10.167  20.598   7.905  1.00  0.00     0.062 C
HETATM    2  C7  UNL     1       8.763  20.845   7.696  1.00  0.00     0.007 C
ENDROOT
BRANCH   1   3
HETATM    3  C5  UNL     1      11.015  20.573   9.068  1.00  0.00     0.049 C
BRANCH   3   4
HETATM    4  C4  UNL     1      11.629  21.781   9.670  1.00  0.00     0.004 C
BRANCH   4   5
HETATM    5  C2  UNL     1      11.053  22.856  10.410  1.00  0.00     0.002 C
HETATM    6  C1  UNL     1      10.947  24.057   9.392  1.00  0.00     0.013 C
HETATM    7  C3  UNL     1      11.758  23.445  11.588  1.00  0.00     0.013 C
ENDBRANCH   4   5
ENDBRANCH   3   4
BRANCH   3   8
HETATM    8  N7  UNL     1      10.792  19.562  10.115  1.00  0.00    -0.170 NA
BRANCH   8   9
HETATM    9  C17 UNL     1       9.480  19.174  10.377  1.00  0.00     0.117 C
BRANCH   9  10
HETATM   10  C18 UNL     1       8.896  19.596  11.700  1.00  0.00    -0.008 C
HETATM   11  C19 UNL     1       8.033  20.859  11.418  1.00  0.00     0.011 C
HETATM   12  C20 UNL     1       9.979  20.115  12.625  1.00  0.00     0.011 C
ENDBRANCH   9  10
ENDBRANCH   8   9
BRANCH   8  13
HETATM   13  S2  UNL     1      11.633  18.104   9.684  1.00  0.00     0.248 S
HETATM   14  O3  UNL     1      12.643  18.311   8.599  1.00  0.00    -0.205 OA
HETATM   15  O4  UNL     1      10.621  17.134   9.045  1.00  0.00    -0.205 OA
BRANCH  13  16
HETATM   16  C21 UNL     1      12.355  17.258  10.984  1.00  0.00     0.075 A
HETATM   17  C22 UNL     1      11.656  17.080  12.165  1.00  0.00     0.027 A
HETATM   18  C23 UNL     1      12.198  16.394  13.222  1.00  0.00     0.028 A
HETATM   19  C24 UNL     1      13.450  15.879  13.103  1.00  0.00     0.046 A
HETATM   20  N8  UNL     1      14.068  15.157  14.171  1.00  0.00    -0.102 NA
HETATM   21  C25 UNL     1      14.161  16.043  11.942  1.00  0.00     0.028 A
HETATM   22  C26 UNL     1      13.630  16.732  10.867  1.00  0.00     0.027 A
ENDBRANCH  13  16
ENDBRANCH   8  13
ENDBRANCH   3   8
ENDBRANCH   1   3
BRANCH   1  23
HETATM   23  N4  UNL     1      10.630  19.559   6.904  1.00  0.00    -0.267 N
ATOM     24  H4  UNL     1      10.337  18.583   6.956  1.00  0.00     0.180 HD
BRANCH  23  25
HETATM   25  S1  UNL     1      11.649  20.122   5.711  1.00  0.00     0.319 S
HETATM   26  O1  UNL     1      12.066  21.557   6.044  1.00  0.00    -0.183 OA
HETATM   27  O2  UNL     1      11.005  20.237   4.352  1.00  0.00    -0.183 OA
BRANCH  25  28
HETATM   28  N5  UNL     1      13.134  19.282   5.489  1.00  0.00    -0.300 N
ATOM     29  H5  UNL     1      13.896  19.248   6.166  1.00  0.00     0.173 HD
BRANCH  28  30
HETATM   30  C11 UNL     1      13.140  18.645   4.225  1.00  0.00     0.174 C
BRANCH  30  31
HETATM   31  C12 UNL     1      12.835  17.191   4.189  1.00  0.00     0.168 C
HETATM   32  C13 UNL     1      11.582  16.916   3.344  1.00  0.00     0.050 C
HETATM   33  C14 UNL     1      12.571  16.548   5.522  1.00  0.00     0.050 C
BRANCH  31  34
HETATM   34  N6  UNL     1      13.902  16.443   3.567  1.00  0.00     0.090 N
HETATM   35  C15 UNL     1      14.928  17.246   2.972  1.00  0.00     0.310 C
HETATM   36  C16 UNL     1      13.439  15.368   2.760  1.00  0.00     0.310 C
ENDBRANCH  31  34
ENDBRANCH  30  31
ENDBRANCH  28  30
ENDBRANCH  25  28
ENDBRANCH  23  25
ENDBRANCH   1  23
BRANCH   2  37
HETATM   37  C8  UNL     1       8.019  22.069   8.029  1.00  0.00     0.049 C
BRANCH  37  38
HETATM   38  C9  UNL     1       6.494  21.743   8.001  1.00  0.00     0.126 C
BRANCH  38  39
HETATM   39  N1  UNL     1       6.218  20.376   7.807  1.00  0.00    -0.365 N
HETATM   40  C10 UNL     1       5.610  19.619   8.839  1.00  0.00     0.181 C
HETATM   41  N2  UNL     1       5.807  18.348   8.910  1.00  0.00    -0.374 N
HETATM   42  N3  UNL     1       4.762  20.179   9.843  1.00  0.00    -0.064 NA
ATOM     43  H22 UNL     1       6.412  17.947   8.193  1.00  0.00     0.158 HD
ATOM     44  H21 UNL     1       5.369  17.803   9.653  1.00  0.00     0.158 HD
ATOM     45  H1  UNL     1       6.457  19.929   6.922  1.00  0.00     0.162 HD
ENDBRANCH  38  39
ENDBRANCH  37  38
ENDBRANCH   2  37
TORSDOF 17
ENDMDL