MODEL 2
REMARK VINA RESULT: -5.984544900      5.802      9.583
REMARK  21 active torsions:
REMARK  status: ('A' for Active; 'I' for Inactive)
REMARK    1  A    between atoms: C2_2  and  C4_4
REMARK    2  A    between atoms: C4_4  and  C5_5
REMARK    3  A    between atoms: C7_10  and  C8_11
REMARK    4  A    between atoms: C8_11  and  C9_12
REMARK    5  A    between atoms: C9_12  and  C10_13
REMARK    6  A    between atoms: C10_13  and  C11_14
REMARK    7  A    between atoms: C11_14  and  C12_15
REMARK    8  A    between atoms: C12_15  and  C13_16
REMARK    9  A    between atoms: C13_16  and  C14_17
REMARK   10  A    between atoms: C14_17  and  C15_18
REMARK   11  A    between atoms: C15_18  and  C16_19
REMARK   12  A    between atoms: C16_19  and  C17_20
REMARK   13  A    between atoms: C17_20  and  N2_21
REMARK   14  A    between atoms: C19_29  and  C20_30
REMARK   15  A    between atoms: C20_30  and  C21_31
REMARK   16  A    between atoms: C21_31  and  C22_32
REMARK   17  A    between atoms: C22_32  and  C23_33
REMARK   18  A    between atoms: C23_33  and  N4_34
REMARK       I    between atoms: N4_34  and  C24_36
REMARK   19  A    between atoms: C24_36  and  C25_38
REMARK   20  A    between atoms: C25_38  and  C26_39
REMARK   21  A    between atoms: C26_39  and  N5_40
ROOT
HETATM    1  C5  UNL     1       9.810  22.530  10.618  1.00  0.00     0.177 C
HETATM    2  N1  UNL     1       9.454  22.049  11.920  1.00  0.00    -0.346 N
ATOM      3  H1  UNL     1       8.591  22.494  12.233  1.00  0.00     0.163 HD
HETATM    4  C6  UNL     1       9.907  21.180  12.876  1.00  0.00     0.241 C
HETATM    5  O1  UNL     1      10.793  21.587  13.719  1.00  0.00    -0.271 OA
HETATM    6  C7  UNL     1       9.574  19.758  13.184  1.00  0.00     0.176 C
HETATM    7  N3  UNL     1       8.704  19.709  14.379  1.00  0.00    -0.346 N
ATOM      8  H3  UNL     1       8.262  18.808  14.560  1.00  0.00     0.163 HD
HETATM    9  C18 UNL     1       8.403  20.707  15.283  1.00  0.00     0.241 C
HETATM   10  O2  UNL     1       8.804  20.530  16.496  1.00  0.00    -0.271 OA
HETATM   11  C19 UNL     1       7.679  21.990  15.119  1.00  0.00     0.176 C
HETATM   12  N6  UNL     1       8.346  23.133  15.697  1.00  0.00    -0.348 N
ATOM     13  H6  UNL     1       8.467  23.093  16.709  1.00  0.00     0.163 HD
HETATM   14  C27 UNL     1       8.851  24.279  15.095  1.00  0.00     0.219 C
HETATM   15  O4  UNL     1       9.918  24.800  15.593  1.00  0.00    -0.274 OA
HETATM   16  C28 UNL     1       8.341  25.030  13.921  1.00  0.00     0.122 C
HETATM   17  C29 UNL     1       9.441  24.987  12.856  1.00  0.00     0.134 C
HETATM   18  N7  UNL     1       8.960  24.822  11.513  1.00  0.00    -0.354 N
HETATM   19  C30 UNL     1       7.780  25.619  11.161  1.00  0.00     0.152 C
HETATM   20  C31 UNL     1       9.490  24.009  10.491  1.00  0.00     0.242 C
HETATM   21  O5  UNL     1       9.748  24.476   9.339  1.00  0.00    -0.271 OA
ENDROOT
BRANCH   6  22
HETATM   22  C8  UNL     1      10.861  19.038  13.623  1.00  0.00     0.035 C
BRANCH  22  23
HETATM   23  C9  UNL     1      11.176  17.894  12.691  1.00  0.00     0.002 C
BRANCH  23  24
HETATM   24  C10 UNL     1      10.489  18.052  11.375  1.00  0.00     0.000 C
BRANCH  24  25
HETATM   25  C11 UNL     1      10.678  16.858  10.497  1.00  0.00     0.000 C
BRANCH  25  26
HETATM   26  C12 UNL     1      11.314  17.270   9.193  1.00  0.00     0.000 C
BRANCH  26  27
HETATM   27  C13 UNL     1      12.815  17.485   9.321  1.00  0.00     0.000 C
BRANCH  27  28
HETATM   28  C14 UNL     1      13.351  16.284  10.053  1.00  0.00     0.000 C
BRANCH  28  29
HETATM   29  C15 UNL     1      14.310  16.710  11.110  1.00  0.00     0.002 C
BRANCH  29  30
HETATM   30  C16 UNL     1      14.787  15.533  11.890  1.00  0.00     0.027 C
BRANCH  30  31
HETATM   31  C17 UNL     1      16.002  15.966  12.711  1.00  0.00     0.229 C
BRANCH  31  32
HETATM   32  N2  UNL     1      16.132  17.394  12.705  1.00  0.00    -0.079 N
ATOM     33  H23 UNL     1      15.460  17.833  12.075  1.00  0.00     0.274 HD
ATOM     34  H22 UNL     1      15.811  17.807  13.581  1.00  0.00     0.274 HD
ATOM     35  H21 UNL     1      17.091  17.666  12.487  1.00  0.00     0.274 HD
ENDBRANCH  31  32
ENDBRANCH  30  31
ENDBRANCH  29  30
ENDBRANCH  28  29
ENDBRANCH  27  28
ENDBRANCH  26  27
ENDBRANCH  25  26
ENDBRANCH  24  25
ENDBRANCH  23  24
ENDBRANCH  22  23
ENDBRANCH   6  22
BRANCH   1  36
HETATM   36  C4  UNL     1      11.108  22.197  10.031  1.00  0.00     0.038 C
BRANCH  36  37
HETATM   37  C2  UNL     1      11.211  20.982   9.187  1.00  0.00    -0.020 C
HETATM   38  C1  UNL     1      12.333  21.240   8.177  1.00  0.00     0.009 C
HETATM   39  C3  UNL     1       9.967  20.693   8.392  1.00  0.00     0.009 C
ENDBRANCH  36  37
ENDBRANCH   1  36
BRANCH  11  40
HETATM   40  C20 UNL     1       6.392  21.812  15.958  1.00  0.00     0.035 C
BRANCH  40  41
HETATM   41  C21 UNL     1       5.189  21.772  15.056  1.00  0.00     0.004 C
BRANCH  41  42
HETATM   42  C22 UNL     1       4.935  20.410  14.464  1.00  0.00     0.020 C
BRANCH  42  43
HETATM   43  C23 UNL     1       4.353  20.556  13.074  1.00  0.00     0.122 C
BRANCH  43  44
HETATM   44  N4  UNL     1       5.184  19.832  12.136  1.00  0.00    -0.361 N
HETATM   45  C24 UNL     1       6.258  20.443  11.439  1.00  0.00     0.219 C
HETATM   46  O3  UNL     1       6.483  21.658  11.657  1.00  0.00    -0.274 OA
ATOM     47  H4  UNL     1       4.992  18.845  11.970  1.00  0.00     0.162 HD
BRANCH  45  48
HETATM   48  C25 UNL     1       7.111  19.714  10.480  1.00  0.00     0.130 C
BRANCH  48  49
HETATM   49  C26 UNL     1       6.293  19.043   9.399  1.00  0.00     0.238 C
BRANCH  49  50
HETATM   50  N5  UNL     1       6.436  19.719   8.141  1.00  0.00    -0.079 N
ATOM     51  H53 UNL     1       5.549  20.105   7.821  1.00  0.00     0.274 HD
ATOM     52  H52 UNL     1       6.960  20.589   8.241  1.00  0.00     0.274 HD
ATOM     53  H51 UNL     1       6.855  19.109   7.438  1.00  0.00     0.274 HD
ENDBRANCH  49  50
ENDBRANCH  48  49
ENDBRANCH  45  48
ENDBRANCH  43  44
ENDBRANCH  42  43
ENDBRANCH  41  42
ENDBRANCH  40  41
ENDBRANCH  11  40
TORSDOF 21
ENDMDL