MODEL 3
REMARK VINA RESULT: -6.674588916      3.341      6.888
REMARK  21 active torsions:
REMARK  status: ('A' for Active; 'I' for Inactive)
REMARK    1  A    between atoms: C2_2  and  C3_3
REMARK       I    between atoms: C3_3  and  N1_5
REMARK    2  A    between atoms: N1_5  and  C4_7
REMARK    3  A    between atoms: C4_7  and  C5_8
REMARK    4  A    between atoms: C4_7  and  C12_15
REMARK    5  A    between atoms: C5_8  and  C6_9
REMARK    6  A    between atoms: C12_15  and  O2_16
REMARK    7  A    between atoms: C12_15  and  C13_18
REMARK    8  A    between atoms: C13_18  and  C14_19
REMARK    9  A    between atoms: C14_19  and  C16_21
REMARK       I    between atoms: C16_21  and  N2_23
REMARK       I    between atoms: N2_23  and  C17_25
REMARK   10  A    between atoms: C17_25  and  C18_27
REMARK   11  A    between atoms: C18_27  and  C19_28
REMARK   12  A    between atoms: C18_27  and  N3_32
REMARK   13  A    between atoms: C19_28  and  C20_29
REMARK   14  A    between atoms: N3_32  and  C23_34
REMARK   15  A    between atoms: C23_34  and  C25_36
REMARK       I    between atoms: C25_36  and  N4_38
REMARK   16  A    between atoms: N4_38  and  C26_40
REMARK   17  A    between atoms: C26_40  and  C27_41
REMARK   18  A    between atoms: C27_41  and  O6_42
REMARK   19  A    between atoms: C27_41  and  C28_44
REMARK   20  A    between atoms: C28_44  and  O7_45
REMARK   21  A    between atoms: C28_44  and  C30_47
ROOT
HETATM    1  C16 UNL     1      11.516  17.107  11.915  1.00  0.00     0.228 C
HETATM    2  O3  UNL     1      12.025  16.357  12.787  1.00  0.00    -0.273 OA
HETATM    3  N2  UNL     1      10.891  18.295  12.328  1.00  0.00    -0.296 N
ATOM      4  H2  UNL     1      10.461  18.878  11.610  1.00  0.00     0.171 HD
HETATM    5  C17 UNL     1      10.816  18.737  13.652  1.00  0.00     0.246 C
HETATM    6  O4  UNL     1      11.385  17.965  14.521  1.00  0.00    -0.271 OA
ENDROOT
BRANCH   5   7
HETATM    7  C18 UNL     1      10.170  19.972  14.145  1.00  0.00     0.170 C
BRANCH   7   8
HETATM    8  C19 UNL     1      10.604  21.161  13.281  1.00  0.00     0.038 C
BRANCH   8   9
HETATM    9  C20 UNL     1      10.958  22.368  14.090  1.00  0.00    -0.020 C
HETATM   10  C21 UNL     1      11.789  22.033  15.310  1.00  0.00     0.009 C
HETATM   11  C22 UNL     1      11.778  23.298  13.209  1.00  0.00     0.009 C
ENDBRANCH   8   9
ENDBRANCH   7   8
BRANCH   7  12
HETATM   12  N3  UNL     1       8.816  19.953  14.424  1.00  0.00    -0.397 N
ATOM     13  H3  UNL     1       8.190  19.787  13.635  1.00  0.00     0.154 HD
BRANCH  12  14
HETATM   14  C23 UNL     1       8.221  20.136  15.655  1.00  0.00     0.166 C
HETATM   15  C24 UNL     1       8.026  21.622  16.014  1.00  0.00     0.042 C
BRANCH  14  16
HETATM   16  C25 UNL     1       6.799  19.617  15.611  1.00  0.00     0.239 C
HETATM   17  O5  UNL     1       6.091  20.040  14.673  1.00  0.00    -0.271 OA
HETATM   18  N4  UNL     1       6.317  18.714  16.571  1.00  0.00    -0.357 N
ATOM     19  H4  UNL     1       6.954  18.385  17.298  1.00  0.00     0.162 HD
BRANCH  18  20
HETATM   20  C26 UNL     1       4.951  18.231  16.572  1.00  0.00     0.157 C
BRANCH  20  21
HETATM   21  C27 UNL     1       4.940  16.694  16.409  1.00  0.00     0.165 C
BRANCH  21  22
HETATM   22  O6  UNL     1       6.221  16.290  16.474  1.00  0.00    -0.391 OA
ATOM     23  H6  UNL     1       6.376  15.751  15.707  1.00  0.00     0.210 HD
ENDBRANCH  21  22
BRANCH  21  24
HETATM   24  C28 UNL     1       4.119  16.423  15.222  1.00  0.00     0.155 C
BRANCH  24  25
HETATM   25  O7  UNL     1       4.087  17.546  14.417  1.00  0.00    -0.388 OA
HETATM   26  C29 UNL     1       3.281  17.523  13.328  1.00  0.00     0.202 C
ENDBRANCH  24  25
BRANCH  24  27
HETATM   27  C30 UNL     1       2.737  15.906  15.386  1.00  0.00     0.017 A
HETATM   28  C31 UNL     1       2.462  14.421  15.281  1.00  0.00     0.007 A
HETATM   29  C32 UNL     1       2.192  15.228  16.553  1.00  0.00     0.007 A
ENDBRANCH  24  27
ENDBRANCH  21  24
ENDBRANCH  20  21
ENDBRANCH  18  20
ENDBRANCH  14  16
ENDBRANCH  12  14
ENDBRANCH   7  12
ENDBRANCH   5   7
BRANCH   1  30
HETATM   30  C14 UNL     1      11.613  16.677  10.485  1.00  0.00     0.076 C
HETATM   31  C15 UNL     1      12.932  17.100   9.920  1.00  0.00     0.020 C
BRANCH  30  32
HETATM   32  C13 UNL     1      10.385  17.059   9.748  1.00  0.00     0.047 C
BRANCH  32  33
HETATM   33  C12 UNL     1      10.420  18.086   8.705  1.00  0.00     0.141 C
BRANCH  33  34
HETATM   34  C4  UNL     1       9.575  19.295   8.746  1.00  0.00     0.114 C
BRANCH  34  35
HETATM   35  N1  UNL     1       8.241  18.987   9.318  1.00  0.00    -0.350 N
HETATM   36  C3  UNL     1       7.064  19.637   9.043  1.00  0.00     0.240 C
HETATM   37  O1  UNL     1       7.060  20.669   8.266  1.00  0.00    -0.269 OA
ATOM     38  H1  UNL     1       8.194  18.214   9.982  1.00  0.00     0.163 HD
BRANCH  36  39
HETATM   39  C2  UNL     1       5.772  19.273   9.545  1.00  0.00     0.064 C
HETATM   40  C1  UNL     1       5.107  18.220   9.062  1.00  0.00     0.017 C
ENDBRANCH  36  39
ENDBRANCH  34  35
BRANCH  34  41
HETATM   41  C5  UNL     1      10.209  20.392   9.656  1.00  0.00     0.032 C
BRANCH  41  42
HETATM   42  C6  UNL     1      11.186  21.269   8.992  1.00  0.00    -0.013 C
HETATM   43  C7  UNL     1      10.807  21.625   7.564  1.00  0.00     0.005 C
HETATM   44  C8  UNL     1      10.286  23.020   7.402  1.00  0.00     0.000 C
HETATM   45  C9  UNL     1       9.312  23.430   8.494  1.00  0.00     0.000 C
HETATM   46  C10 UNL     1       9.943  23.226   9.859  1.00  0.00     0.000 C
HETATM   47  C11 UNL     1      11.291  22.608   9.766  1.00  0.00     0.005 C
ENDBRANCH  41  42
ENDBRANCH  34  41
ENDBRANCH  33  34
BRANCH  33  48
HETATM   48  O2  UNL     1      10.368  17.477   7.418  1.00  0.00    -0.393 OA
ATOM     49  H2  UNL     1      10.540  16.546   7.479  1.00  0.00     0.210 HD
ENDBRANCH  33  48
ENDBRANCH  32  33
ENDBRANCH  30  32
ENDBRANCH   1  30
TORSDOF 21
ENDMDL