MODEL 3
REMARK VINA RESULT: -6.759910939      4.516      6.909
REMARK  19 active torsions:
REMARK  status: ('A' for Active; 'I' for Inactive)
REMARK    1  A    between atoms: C2_2  and  C3_3
REMARK    2  A    between atoms: C3_3  and  C5_5
REMARK    3  A    between atoms: C5_5  and  C6_6
REMARK    4  A    between atoms: C5_5  and  N1_10
REMARK    5  A    between atoms: C6_6  and  C7_7
REMARK       I    between atoms: N1_10  and  C10_12
REMARK    6  A    between atoms: C10_12  and  C11_14
REMARK    7  A    between atoms: C11_14  and  N2_16
REMARK       I    between atoms: N2_16  and  C13_18
REMARK    8  A    between atoms: C13_18  and  C14_20
REMARK    9  A    between atoms: C14_20  and  N3_21
REMARK   10  A    between atoms: C14_20  and  C29_48
REMARK       I    between atoms: N3_21  and  C15_23
REMARK   11  A    between atoms: C15_23  and  C16_25
REMARK   12  A    between atoms: C16_25  and  C17_26
REMARK   13  A    between atoms: C16_25  and  N4_30
REMARK   14  A    between atoms: C17_26  and  C18_27
REMARK       I    between atoms: N4_30  and  C21_32
REMARK   15  A    between atoms: C21_32  and  C22_34
REMARK   16  A    between atoms: C22_34  and  N5_35
REMARK   17  A    between atoms: C22_34  and  C26_45
REMARK       I    between atoms: N5_35  and  C23_37
REMARK   18  A    between atoms: C23_37  and  C24_39
REMARK   19  A    between atoms: C24_39  and  N6_41
ROOT
HETATM    1  N3  UNL     1       4.015  18.459  10.234  1.00  0.00    -0.346 N
ATOM      2  H3  UNL     1       4.476  17.607   9.914  1.00  0.00     0.163 HD
HETATM    3  C15 UNL     1       4.321  19.649   9.538  1.00  0.00     0.241 C
HETATM    4  O3  UNL     1       3.785  20.710   9.820  1.00  0.00    -0.271 OA
ENDROOT
BRANCH   1   5
HETATM    5  C14 UNL     1       3.120  18.329  11.347  1.00  0.00     0.180 C
BRANCH   5   6
HETATM    6  C13 UNL     1       2.032  17.389  11.042  1.00  0.00     0.241 C
HETATM    7  N2  UNL     1       2.096  15.978  11.079  1.00  0.00    -0.346 N
ATOM      8  H2  UNL     1       2.977  15.516  11.304  1.00  0.00     0.163 HD
HETATM    9  O2  UNL     1       0.911  17.884  10.715  1.00  0.00    -0.271 OA
BRANCH   7  10
HETATM   10  C11 UNL     1       0.902  15.177  10.796  1.00  0.00     0.172 C
HETATM   11  C12 UNL     1       1.299  13.968   9.949  1.00  0.00     0.042 C
BRANCH  10  12
HETATM   12  C10 UNL     1       0.337  14.752  12.079  1.00  0.00     0.244 C
HETATM   13  N1  UNL     1       0.971  13.885  12.995  1.00  0.00    -0.325 N
ATOM     14  H1  UNL     1       1.886  13.501  12.760  1.00  0.00     0.169 HD
HETATM   15  O1  UNL     1      -0.818  15.208  12.384  1.00  0.00    -0.271 OA
BRANCH  13  16
HETATM   16  C5  UNL     1       0.345  13.514  14.291  1.00  0.00     0.033 C
BRANCH  16  17
HETATM   17  C3  UNL     1       0.869  14.296  15.391  1.00  0.00    -0.058 C
HETATM   18  C4  UNL     1       0.222  14.118  16.755  1.00  0.00     0.046 C
BRANCH  17  19
HETATM   19  C2  UNL     1       2.291  14.651  15.550  1.00  0.00     0.031 C
HETATM   20  C1  UNL     1       2.675  15.306  16.854  1.00  0.00     0.010 C
ENDBRANCH  17  19
ENDBRANCH  16  17
BRANCH  16  21
HETATM   21  C6  UNL     1       0.028  12.088  14.323  1.00  0.00     0.007 C
BRANCH  21  22
HETATM   22  C7  UNL     1      -1.338  11.553  14.326  1.00  0.00     0.002 C
HETATM   23  C8  UNL     1      -2.418  12.623  14.557  1.00  0.00     0.013 C
HETATM   24  C9  UNL     1      -1.427  10.732  15.670  1.00  0.00     0.013 C
ENDBRANCH  21  22
ENDBRANCH  16  21
ENDBRANCH  13  16
ENDBRANCH  10  12
ENDBRANCH   7  10
ENDBRANCH   5   6
BRANCH   5  25
HETATM   25  C29 UNL     1       3.757  18.203  12.678  1.00  0.00     0.009 C
HETATM   26  C30 UNL     1       2.771  17.944  13.792  1.00  0.00     0.012 C
HETATM   27  C31 UNL     1       4.681  19.353  12.960  1.00  0.00     0.012 C
ENDBRANCH   5  25
ENDBRANCH   1   5
BRANCH   3  28
HETATM   28  C16 UNL     1       5.342  19.619   8.406  1.00  0.00     0.177 C
BRANCH  28  29
HETATM   29  C17 UNL     1       4.701  18.811   7.335  1.00  0.00     0.038 C
BRANCH  29  30
HETATM   30  C18 UNL     1       4.268  19.467   6.087  1.00  0.00    -0.020 C
HETATM   31  C19 UNL     1       5.096  20.682   5.690  1.00  0.00     0.009 C
HETATM   32  C20 UNL     1       3.971  18.603   4.925  1.00  0.00     0.009 C
ENDBRANCH  29  30
ENDBRANCH  28  29
BRANCH  28  33
HETATM   33  N4  UNL     1       6.564  19.001   8.926  1.00  0.00    -0.346 N
HETATM   34  C21 UNL     1       7.777  19.728   8.920  1.00  0.00     0.241 C
HETATM   35  O4  UNL     1       7.715  20.912   8.410  1.00  0.00    -0.271 OA
ATOM     36  H4  UNL     1       6.540  18.050   9.291  1.00  0.00     0.163 HD
BRANCH  34  37
HETATM   37  C22 UNL     1       9.065  19.289   9.433  1.00  0.00     0.180 C
BRANCH  37  38
HETATM   38  N5  UNL     1       9.648  18.258   8.545  1.00  0.00    -0.346 N
HETATM   39  C23 UNL     1      10.721  18.527   7.664  1.00  0.00     0.248 C
HETATM   40  O5  UNL     1      11.228  19.681   7.609  1.00  0.00    -0.271 OA
ATOM     41  H5  UNL     1       9.261  17.316   8.570  1.00  0.00     0.163 HD
BRANCH  39  42
HETATM   42  C24 UNL     1      11.285  17.466   6.777  1.00  0.00     0.270 C
HETATM   43  C25 UNL     1      11.484  17.953   5.364  1.00  0.00     0.050 C
BRANCH  42  44
HETATM   44  N6  UNL     1      12.599  17.103   7.283  1.00  0.00    -0.067 N
ATOM     45  H63 UNL     1      12.855  17.622   8.122  1.00  0.00     0.275 HD
ATOM     46  H62 UNL     1      12.620  16.167   7.688  1.00  0.00     0.275 HD
ATOM     47  H61 UNL     1      13.275  17.219   6.527  1.00  0.00     0.275 HD
ENDBRANCH  42  44
ENDBRANCH  39  42
ENDBRANCH  37  38
BRANCH  37  48
HETATM   48  C26 UNL     1       9.128  18.779  10.822  1.00  0.00     0.009 C
HETATM   49  C27 UNL     1      10.346  17.967  11.165  1.00  0.00     0.012 C
HETATM   50  C28 UNL     1       9.047  19.962  11.802  1.00  0.00     0.012 C
ENDBRANCH  37  48
ENDBRANCH  34  37
ENDBRANCH  28  33
ENDBRANCH   3  28
TORSDOF 19
ENDMDL