MODEL 5
REMARK VINA RESULT: -5.682247289      2.618      9.809
REMARK  21 active torsions:
REMARK  status: ('A' for Active; 'I' for Inactive)
REMARK       I    between atoms: C2_2  and  N1_4
REMARK    1  A    between atoms: N1_4  and  C3_6
REMARK    2  A    between atoms: C3_6  and  C4_7
REMARK    3  A    between atoms: C3_6  and  C24_36
REMARK    4  A    between atoms: C4_7  and  N2_8
REMARK    5  A    between atoms: N2_8  and  C5_9
REMARK    6  A    between atoms: N2_8  and  C9_13
REMARK    7  A    between atoms: C5_9  and  C6_10
REMARK    8  A    between atoms: C9_13  and  C10_14
REMARK    9  A    between atoms: C10_14  and  O2_15
REMARK   10  A    between atoms: C10_14  and  C11_17
REMARK   11  A    between atoms: C11_17  and  O3_18
REMARK   12  A    between atoms: C11_17  and  C12_20
REMARK   13  A    between atoms: C12_20  and  C13_21
REMARK   14  A    between atoms: C12_20  and  N3_25
REMARK   15  A    between atoms: C13_21  and  C14_22
REMARK       I    between atoms: N3_25  and  C17_27
REMARK       I    between atoms: C17_27  and  N4_29
REMARK   16  A    between atoms: C24_36  and  N5_37
REMARK   17  A    between atoms: C24_36  and  C25_41
REMARK   18  A    between atoms: C25_41  and  C26_42
REMARK       I    between atoms: C26_42  and  N6_44
REMARK   19  A    between atoms: N6_44  and  C27_46
REMARK   20  A    between atoms: C27_46  and  C28_47
REMARK   21  A    between atoms: C28_47  and  C29_48
ROOT
HETATM    1  N2  UNL     1      12.104  17.958   5.220  1.00  0.00    -0.365 N
ENDROOT
BRANCH   1   2
HETATM    2  C4  UNL     1      13.155  18.657   4.633  1.00  0.00     0.117 C
BRANCH   2   3
HETATM    3  C3  UNL     1      13.226  20.120   4.555  1.00  0.00     0.062 C
BRANCH   3   4
HETATM    4  N1  UNL     1      14.370  20.630   5.322  1.00  0.00    -0.328 N
HETATM    5  C2  UNL     1      14.326  21.311   6.528  1.00  0.00     0.218 C
HETATM    6  C1  UNL     1      15.569  21.761   7.178  1.00  0.00     0.117 C
HETATM    7  O1  UNL     1      13.248  21.559   7.095  1.00  0.00    -0.274 OA
ATOM      8  H1  UNL     1      15.295  20.466   4.924  1.00  0.00     0.168 HD
ENDBRANCH   3   4
BRANCH   3   9
HETATM    9  C24 UNL     1      12.983  20.881   3.347  1.00  0.00     0.262 C
BRANCH   9  10
HETATM   10  N5  UNL     1      14.145  21.858   3.250  1.00  0.00    -0.066 N
ATOM     11  H53 UNL     1      15.061  21.410   3.266  1.00  0.00     0.275 HD
ATOM     12  H52 UNL     1      14.242  22.292   2.331  1.00  0.00     0.275 HD
ATOM     13  H51 UNL     1      13.999  22.525   4.008  1.00  0.00     0.275 HD
ENDBRANCH   9  10
BRANCH   9  14
HETATM   14  C25 UNL     1      12.810  20.370   2.009  1.00  0.00     0.086 C
BRANCH  14  15
HETATM   15  C26 UNL     1      13.895  20.019   1.124  1.00  0.00     0.239 C
HETATM   16  O5  UNL     1      14.882  20.685   0.752  1.00  0.00    -0.269 OA
HETATM   17  N6  UNL     1      13.858  18.683   0.559  1.00  0.00    -0.358 N
ATOM     18  H6  UNL     1      13.085  18.062   0.797  1.00  0.00     0.162 HD
BRANCH  17  19
HETATM   19  C27 UNL     1      14.882  18.220  -0.324  1.00  0.00     0.123 C
BRANCH  19  20
HETATM   20  C28 UNL     1      15.554  16.957   0.018  1.00  0.00     0.023 C
BRANCH  20  21
HETATM   21  C29 UNL     1      15.144  16.208   1.223  1.00  0.00    -0.021 C
HETATM   22  C30 UNL     1      15.988  16.283   2.441  1.00  0.00     0.009 C
HETATM   23  C31 UNL     1      14.895  14.738   0.931  1.00  0.00     0.009 C
ENDBRANCH  20  21
ENDBRANCH  19  20
ENDBRANCH  17  19
ENDBRANCH  14  15
ENDBRANCH   9  14
ENDBRANCH   3   9
ENDBRANCH   2   3
ENDBRANCH   1   2
BRANCH   1  24
HETATM   24  C5  UNL     1      11.440  16.918   4.580  1.00  0.00     0.067 C
BRANCH  24  25
HETATM   25  C6  UNL     1      12.293  16.139   3.584  1.00  0.00     0.016 C
HETATM   26  C7  UNL     1      12.884  14.888   4.118  1.00  0.00     0.015 C
HETATM   27  C8  UNL     1      11.346  15.765   2.440  1.00  0.00     0.015 C
ENDBRANCH  24  25
ENDBRANCH   1  24
BRANCH   1  28
HETATM   28  C9  UNL     1      11.328  18.757   6.140  1.00  0.00     0.162 C
BRANCH  28  29
HETATM   29  C10 UNL     1      11.488  18.458   7.587  1.00  0.00     0.167 C
BRANCH  29  30
HETATM   30  O2  UNL     1      12.769  18.725   8.064  1.00  0.00    -0.391 OA
ATOM     31  H2  UNL     1      12.844  19.577   8.477  1.00  0.00     0.210 HD
ENDBRANCH  29  30
BRANCH  29  32
HETATM   32  C11 UNL     1      10.564  19.451   8.311  1.00  0.00     0.171 C
BRANCH  32  33
HETATM   33  O3  UNL     1      11.214  20.566   8.771  1.00  0.00    -0.391 OA
ATOM     34  H3  UNL     1      10.946  20.828   9.644  1.00  0.00     0.210 HD
ENDBRANCH  32  33
BRANCH  32  35
HETATM   35  C12 UNL     1       9.678  18.820   9.328  1.00  0.00     0.117 C
BRANCH  35  36
HETATM   36  C13 UNL     1      10.050  17.428   9.700  1.00  0.00     0.031 C
BRANCH  36  37
HETATM   37  C14 UNL     1      10.636  17.259  11.073  1.00  0.00    -0.021 C
HETATM   38  C15 UNL     1      10.516  18.430  11.978  1.00  0.00     0.009 C
HETATM   39  C16 UNL     1      12.122  16.938  10.898  1.00  0.00     0.009 C
ENDBRANCH  36  37
ENDBRANCH  35  36
BRANCH  35  40
HETATM   40  N3  UNL     1       8.295  19.021   8.996  1.00  0.00    -0.336 N
HETATM   41  C17 UNL     1       7.432  19.928   9.666  1.00  0.00     0.318 C
HETATM   42  O4  UNL     1       7.999  20.580  10.626  1.00  0.00    -0.247 OA
HETATM   43  N4  UNL     1       6.077  20.148   9.371  1.00  0.00    -0.334 N
HETATM   44  C18 UNL     1       5.395  21.102  10.222  1.00  0.00     0.127 C
HETATM   45  C23 UNL     1       5.506  19.429   8.276  1.00  0.00     0.127 C
HETATM   46  C19 UNL     1       4.254  20.462  10.972  1.00  0.00     0.020 C
HETATM   47  C20 UNL     1       4.435  18.952  10.995  1.00  0.00     0.002 C
HETATM   48  C21 UNL     1       3.789  18.397   9.748  1.00  0.00     0.002 C
HETATM   49  C22 UNL     1       4.890  18.110   8.739  1.00  0.00     0.020 C
ATOM     50  H3  UNL     1       7.907  18.475   8.227  1.00  0.00     0.164 HD
ENDBRANCH  35  40
ENDBRANCH  32  35
ENDBRANCH  29  32
ENDBRANCH  28  29
ENDBRANCH   1  28
TORSDOF 21
ENDMDL