MODEL 1
REMARK VINA RESULT: -6.003664757      0.000      0.000
REMARK  22 active torsions:
REMARK  status: ('A' for Active; 'I' for Inactive)
REMARK    1  A    between atoms: C5_5  and  C6_6
REMARK    2  A    between atoms: C10_10  and  S1_11
REMARK    3  A    between atoms: S1_11  and  N1_14
REMARK       I    between atoms: C11_16  and  N3_18
REMARK    4  A    between atoms: N3_18  and  C12_20
REMARK    5  A    between atoms: C12_20  and  C13_21
REMARK    6  A    between atoms: C12_20  and  N5_29
REMARK    7  A    between atoms: C13_21  and  C14_22
REMARK    8  A    between atoms: C14_22  and  C15_23
REMARK    9  A    between atoms: C15_23  and  C16_24
REMARK   10  A    between atoms: C16_24  and  N4_25
REMARK   11  A    between atoms: N5_29  and  C17_31
REMARK   12  A    between atoms: C17_31  and  C18_32
REMARK   13  A    between atoms: C18_32  and  C19_33
REMARK   14  A    between atoms: C19_33  and  C20_34
REMARK   15  A    between atoms: C20_34  and  N6_35
REMARK   16  A    between atoms: N6_35  and  C21_37
REMARK   17  A    between atoms: C21_37  and  C22_38
REMARK   18  A    between atoms: C22_38  and  N7_39
REMARK   19  A    between atoms: N7_39  and  C23_42
REMARK   20  A    between atoms: C23_42  and  C24_43
REMARK   21  A    between atoms: C24_43  and  C25_44
REMARK   22  A    between atoms: C25_44  and  N8_45
ROOT
HETATM    1  C12 UNL     1      12.080  18.568   6.001  1.00  0.00     0.079 C
ENDROOT
BRANCH   1   2
HETATM    2  N3  UNL     1      10.820  19.152   6.204  1.00  0.00    -0.320 N
HETATM    3  C11 UNL     1      10.564  20.233   7.128  1.00  0.00     0.203 C
HETATM    4  N1  UNL     1       9.412  20.692   7.264  1.00  0.00    -0.253 N
HETATM    5  N2  UNL     1      11.680  20.702   7.836  1.00  0.00    -0.062 NA
ATOM      6  H1  UNL     1       8.689  20.260   6.689  1.00  0.00     0.181 HD
ATOM      7  H3  UNL     1      10.034  18.790   5.664  1.00  0.00     0.169 HD
BRANCH   4   8
HETATM    8  S1  UNL     1       8.906  21.923   8.269  1.00  0.00     0.272 S
HETATM    9  O1  UNL     1       7.492  22.331   7.847  1.00  0.00    -0.200 OA
HETATM   10  O2  UNL     1       9.721  23.194   8.058  1.00  0.00    -0.200 OA
BRANCH   8  11
HETATM   11  C10 UNL     1       8.925  21.594   9.985  1.00  0.00     0.127 A
HETATM   12  C8  UNL     1       8.273  20.618  10.699  1.00  0.00    -0.030 A
HETATM   13  C7  UNL     1       8.464  20.596  12.022  1.00  0.00     0.028 A
HETATM   14  C9  UNL     1       7.385  19.636   9.947  1.00  0.00     0.050 C
HETATM   15  C6  UNL     1       9.293  21.548  12.562  1.00  0.00     0.017 A
HETATM   16  S2  UNL     1       9.775  22.438  11.193  1.00  0.00    -0.075 SA
BRANCH  15  17
HETATM   17  C5  UNL     1       9.647  21.736  13.989  1.00  0.00    -0.018 A
HETATM   18  C4  UNL     1       8.739  21.636  14.986  1.00  0.00     0.013 A
HETATM   19  C3  UNL     1       9.151  21.843  16.306  1.00  0.00     0.008 A
HETATM   20  C2  UNL     1      10.463  22.144  16.609  1.00  0.00    -0.056 A
HETATM   21  C1  UNL     1      10.938  22.377  17.995  1.00  0.00     0.049 C
HETATM   22  C27 UNL     1      11.389  22.244  15.585  1.00  0.00    -0.055 A
HETATM   23  C26 UNL     1      10.962  22.036  14.280  1.00  0.00     0.020 A
HETATM   24  C28 UNL     1      12.823  22.563  15.801  1.00  0.00     0.049 C
ENDBRANCH  15  17
ENDBRANCH   8  11
ENDBRANCH   4   8
ENDBRANCH   1   2
BRANCH   1  25
HETATM   25  C13 UNL     1      12.793  18.606   4.724  1.00  0.00     0.076 C
BRANCH  25  26
HETATM   26  C14 UNL     1      12.431  17.498   3.790  1.00  0.00     0.009 C
BRANCH  26  27
HETATM   27  C15 UNL     1      13.540  16.521   3.558  1.00  0.00     0.027 C
BRANCH  27  28
HETATM   28  C16 UNL     1      13.170  15.147   4.116  1.00  0.00     0.229 C
BRANCH  28  29
HETATM   29  N4  UNL     1      11.763  15.049   4.408  1.00  0.00    -0.079 N
ATOM     30  H43 UNL     1      11.318  15.966   4.395  1.00  0.00     0.274 HD
ATOM     31  H42 UNL     1      11.254  14.613   3.639  1.00  0.00     0.274 HD
ATOM     32  H41 UNL     1      11.591  14.566   5.290  1.00  0.00     0.274 HD
ENDBRANCH  28  29
ENDBRANCH  27  28
ENDBRANCH  26  27
ENDBRANCH  25  26
ENDBRANCH   1  25
BRANCH   1  33
HETATM   33  N5  UNL     1      12.655  17.973   7.020  1.00  0.00    -0.380 N
ATOM     34  H5  UNL     1      13.516  18.366   7.397  1.00  0.00     0.160 HD
BRANCH  33  35
HETATM   35  C17 UNL     1      12.116  16.794   7.618  1.00  0.00     0.121 C
BRANCH  35  36
HETATM   36  C18 UNL     1      12.104  16.821   9.121  1.00  0.00     0.021 C
BRANCH  36  37
HETATM   37  C19 UNL     1      10.756  17.390   9.569  1.00  0.00     0.021 C
BRANCH  37  38
HETATM   38  C20 UNL     1      10.594  17.223  11.058  1.00  0.00     0.113 C
BRANCH  38  39
HETATM   39  N6  UNL     1      10.949  18.365  11.810  1.00  0.00    -0.420 N
ATOM     40  H6  UNL     1      10.932  19.297  11.396  1.00  0.00     0.153 HD
BRANCH  39  41
HETATM   41  C21 UNL     1      11.332  18.167  13.171  1.00  0.00     0.141 C
BRANCH  41  42
HETATM   42  C22 UNL     1      12.062  16.872  13.363  1.00  0.00     0.251 C
BRANCH  42  43
HETATM   43  N7  UNL     1      13.492  17.005  13.458  1.00  0.00    -0.074 N
ATOM     44  H72 UNL     1      13.822  17.912  13.129  1.00  0.00     0.277 HD
ATOM     45  H71 UNL     1      13.812  17.078  14.424  1.00  0.00     0.277 HD
BRANCH  43  46
HETATM   46  C23 UNL     1      14.112  15.907  12.755  1.00  0.00     0.234 C
BRANCH  46  47
HETATM   47  C24 UNL     1      15.031  16.498  11.706  1.00  0.00     0.055 C
BRANCH  47  48
HETATM   48  C25 UNL     1      16.256  17.138  12.267  1.00  0.00     0.231 C
BRANCH  48  49
HETATM   49  N8  UNL     1      16.911  16.399  13.302  1.00  0.00    -0.079 N
ATOM     50  H83 UNL     1      17.506  15.678  12.894  1.00  0.00     0.274 HD
ATOM     51  H82 UNL     1      17.617  16.980  13.754  1.00  0.00     0.274 HD
ATOM     52  H81 UNL     1      16.293  15.990  14.001  1.00  0.00     0.274 HD
ENDBRANCH  48  49
ENDBRANCH  47  48
ENDBRANCH  46  47
ENDBRANCH  43  46
ENDBRANCH  42  43
ENDBRANCH  41  42
ENDBRANCH  39  41
ENDBRANCH  38  39
ENDBRANCH  37  38
ENDBRANCH  36  37
ENDBRANCH  35  36
ENDBRANCH  33  35
ENDBRANCH   1  33
TORSDOF 22
ENDMDL