MODEL 5
REMARK VINA RESULT: -6.423138448      3.873      8.028
REMARK  21 active torsions:
REMARK  status: ('A' for Active; 'I' for Inactive)
REMARK    1  A    between atoms: C2_2  and  C3_3
REMARK    2  A    between atoms: C3_3  and  S1_4
REMARK    3  A    between atoms: S1_4  and  C4_5
REMARK    4  A    between atoms: C4_5  and  C5_6
REMARK    5  A    between atoms: C5_6  and  N1_7
REMARK    6  A    between atoms: C5_6  and  C12_16
REMARK    7  A    between atoms: N1_7  and  C6_10
REMARK    8  A    between atoms: C6_10  and  C8_12
REMARK       I    between atoms: C12_16  and  N2_18
REMARK    9  A    between atoms: N2_18  and  C13_20
REMARK   10  A    between atoms: C13_20  and  C14_21
REMARK   11  A    between atoms: C13_20  and  C27_45
REMARK       I    between atoms: C14_21  and  N3_23
REMARK   12  A    between atoms: N3_23  and  C15_25
REMARK   13  A    between atoms: C15_25  and  C16_26
REMARK   14  A    between atoms: C15_25  and  C20_34
REMARK   15  A    between atoms: C16_26  and  C17_27
REMARK   16  A    between atoms: C17_27  and  C18_28
REMARK   17  A    between atoms: C18_28  and  N4_29
REMARK       I    between atoms: C20_34  and  N7_36
REMARK   18  A    between atoms: N7_36  and  C21_38
REMARK   19  A    between atoms: C21_38  and  C22_39
REMARK   20  A    between atoms: C21_38  and  C23_41
REMARK   21  A    between atoms: C23_41  and  C24_42
ROOT
HETATM    1  C14 UNL     1      11.350  18.661   7.007  1.00  0.00     0.265 C
HETATM    2  O2  UNL     1      11.898  19.830   6.939  1.00  0.00    -0.266 OA
HETATM    3  N3  UNL     1      11.276  17.898   5.894  1.00  0.00    -0.343 N
ATOM      4  H3  UNL     1      10.770  17.022   6.019  1.00  0.00     0.163 HD
ENDROOT
BRANCH   1   5
HETATM    5  C13 UNL     1      10.892  18.351   8.386  1.00  0.00     0.083 C
BRANCH   5   6
HETATM    6  N2  UNL     1       9.524  18.595   8.680  1.00  0.00    -0.324 N
HETATM    7  C12 UNL     1       8.830  19.778   9.011  1.00  0.00     0.253 C
HETATM    8  O1  UNL     1       9.387  20.884   9.099  1.00  0.00    -0.271 OA
ATOM      9  H2  UNL     1       8.936  17.762   8.645  1.00  0.00     0.169 HD
BRANCH   7  10
HETATM   10  C5  UNL     1       7.353  19.729   9.270  1.00  0.00     0.287 C
BRANCH  10  11
HETATM   11  C4  UNL     1       6.945  20.805  10.245  1.00  0.00     0.117 C
BRANCH  11  12
HETATM   12  S1  UNL     1       7.217  20.476  11.933  1.00  0.00    -0.163 SA
BRANCH  12  13
HETATM   13  C3  UNL     1       8.719  20.530  12.777  1.00  0.00     0.100 C
BRANCH  13  14
HETATM   14  C2  UNL     1       9.788  19.581  12.437  1.00  0.00    -0.027 C
HETATM   15  C1  UNL     1      10.611  19.085  13.373  1.00  0.00     0.007 C
ENDBRANCH  13  14
ENDBRANCH  12  13
ENDBRANCH  11  12
ENDBRANCH  10  11
BRANCH  10  16
HETATM   16  N1  UNL     1       6.521  19.706   8.126  1.00  0.00    -0.057 N
ATOM     17  H12 UNL     1       6.641  20.541   7.552  1.00  0.00     0.278 HD
ATOM     18  H11 UNL     1       6.828  19.009   7.447  1.00  0.00     0.278 HD
BRANCH  16  19
HETATM   19  C6  UNL     1       5.117  19.507   8.519  1.00  0.00     0.190 C
HETATM   20  C7  UNL     1       5.051  18.094   9.026  1.00  0.00     0.041 C
BRANCH  19  21
HETATM   21  C8  UNL     1       4.114  19.967   7.555  1.00  0.00    -0.023 C
HETATM   22  C9  UNL     1       4.345  21.450   7.190  1.00  0.00     0.016 C
HETATM   23  C10 UNL     1       2.691  19.862   8.051  1.00  0.00     0.016 C
HETATM   24  C11 UNL     1       4.131  19.249   6.207  1.00  0.00     0.016 C
ENDBRANCH  19  21
ENDBRANCH  16  19
ENDBRANCH  10  16
ENDBRANCH   7  10
ENDBRANCH   5   6
BRANCH   5  25
HETATM   25  C27 UNL     1      11.380  17.122   9.029  1.00  0.00     0.033 C
HETATM   26  C28 UNL     1      12.844  17.003   9.249  1.00  0.00     0.016 C
HETATM   27  C29 UNL     1      10.574  16.707  10.204  1.00  0.00     0.016 C
ENDBRANCH   5  25
ENDBRANCH   1   5
BRANCH   3  28
HETATM   28  C15 UNL     1      11.790  18.108   4.545  1.00  0.00     0.177 C
BRANCH  28  29
HETATM   29  C16 UNL     1      10.643  17.929   3.543  1.00  0.00     0.036 C
BRANCH  29  30
HETATM   30  C17 UNL     1      10.538  18.890   2.438  1.00  0.00     0.022 C
BRANCH  30  31
HETATM   31  C18 UNL     1      11.442  20.071   2.410  1.00  0.00     0.122 C
BRANCH  31  32
HETATM   32  N4  UNL     1      12.499  20.070   1.466  1.00  0.00    -0.367 N
HETATM   33  C19 UNL     1      13.742  20.127   1.737  1.00  0.00     0.196 C
HETATM   34  N5  UNL     1      14.716  20.117   0.694  1.00  0.00    -0.067 NA
HETATM   35  N6  UNL     1      14.257  20.216   3.064  1.00  0.00    -0.067 NA
ATOM     36  H4  UNL     1      12.242  20.020   0.481  1.00  0.00     0.161 HD
ENDBRANCH  31  32
ENDBRANCH  30  31
ENDBRANCH  29  30
ENDBRANCH  28  29
BRANCH  28  37
HETATM   37  C20 UNL     1      12.858  17.141   4.241  1.00  0.00     0.241 C
HETATM   38  O3  UNL     1      13.281  16.424   5.216  1.00  0.00    -0.271 OA
HETATM   39  N7  UNL     1      13.428  16.954   2.992  1.00  0.00    -0.348 N
ATOM     40  H7  UNL     1      13.108  17.539   2.220  1.00  0.00     0.163 HD
BRANCH  39  41
HETATM   41  C21 UNL     1      14.470  15.956   2.727  1.00  0.00     0.146 C
BRANCH  41  42
HETATM   42  C22 UNL     1      15.753  16.673   2.480  1.00  0.00     0.256 C
HETATM   43  O4  UNL     1      16.665  16.486   3.249  1.00  0.00    -0.305 OA
ENDBRANCH  41  42
BRANCH  41  44
HETATM   44  C23 UNL     1      13.977  15.107   1.623  1.00  0.00     0.036 C
BRANCH  44  45
HETATM   45  C24 UNL     1      14.852  14.882   0.454  1.00  0.00    -0.020 C
HETATM   46  C25 UNL     1      14.525  15.751  -0.748  1.00  0.00     0.009 C
HETATM   47  C26 UNL     1      14.990  13.454   0.069  1.00  0.00     0.009 C
ENDBRANCH  44  45
ENDBRANCH  41  44
ENDBRANCH  39  41
ENDBRANCH  28  37
ENDBRANCH   3  28
TORSDOF 21
ENDMDL