MODEL 5
REMARK VINA RESULT: -6.997614860      2.789      4.874
REMARK  15 active torsions:
REMARK  status: ('A' for Active; 'I' for Inactive)
REMARK       I    between atoms: C1_4  and  N3_6
REMARK    1  A    between atoms: N3_6  and  C2_8
REMARK    2  A    between atoms: C2_8  and  C3_9
REMARK    3  A    between atoms: N4_10  and  C4_12
REMARK    4  A    between atoms: C5_13  and  O1_14
REMARK    5  A    between atoms: C6_16  and  N5_17
REMARK    6  A    between atoms: C7_21  and  O2_22
REMARK    7  A    between atoms: C8_24  and  O3_25
REMARK    8  A    between atoms: O3_25  and  C9_26
REMARK    9  A    between atoms: C10_28  and  N6_29
REMARK   10  A    between atoms: N6_29  and  N7_30
REMARK   11  A    between atoms: C11_33  and  N8_34
REMARK   12  A    between atoms: N8_34  and  C12_37
REMARK   13  A    between atoms: C12_37  and  C13_38
REMARK   14  A    between atoms: C13_38  and  C14_39
REMARK   15  A    between atoms: C14_39  and  N9_40
REMARK       I    between atoms: N9_40  and  C15_43
REMARK       I    between atoms: C15_43  and  N10_44
REMARK       I    between atoms: C15_43  and  N11_48
ROOT
HETATM    1  C9  UNL     1       7.987 108.203  79.234  1.00  0.00     0.297 C
HETATM    2  O4  UNL     1       7.527 108.665  77.997  1.00  0.00    -0.334 OA
HETATM    3  C10 UNL     1       8.139 107.516  77.449  1.00  0.00     0.272 C
HETATM    4  C11 UNL     1       7.816 106.786  78.729  1.00  0.00     0.286 C
ENDROOT
BRANCH   1   5
HETATM    5  O3  UNL     1       7.238 108.548  80.329  1.00  0.00    -0.349 OA
BRANCH   5   6
HETATM    6  C8  UNL     1       8.029 108.622  81.442  1.00  0.00     0.180 C
HETATM    7  C4  UNL     1       9.155 109.633  81.341  1.00  0.00     0.143 C
HETATM    8  C5  UNL     1       9.919 109.295  82.628  1.00  0.00     0.176 C
HETATM    9  C6  UNL     1      10.035 107.776  82.486  1.00  0.00     0.245 C
HETATM   10  C7  UNL     1       8.739 107.349  81.812  1.00  0.00     0.182 C
BRANCH   7  11
HETATM   11  N4  UNL     1       8.597 110.946  81.468  1.00  0.00    -0.391 N
HETATM   12  C3  UNL     1       8.695 111.822  80.518  1.00  0.00     0.075 C
ATOM     13  H4  UNL     1       8.110 111.199  82.328  1.00  0.00     0.159 HD
BRANCH  12  14
HETATM   14  C2  UNL     1       9.393 111.527  79.235  1.00  0.00     0.166 C
BRANCH  14  15
HETATM   15  N3  UNL     1      10.803 111.290  79.435  1.00  0.00    -0.360 N
HETATM   16  C1  UNL     1      11.696 112.384  79.315  1.00  0.00     0.182 C
HETATM   17  N1  UNL     1      11.965 113.113  80.318  1.00  0.00    -0.374 N
HETATM   18  N2  UNL     1      12.290 112.658  78.055  1.00  0.00    -0.064 NA
ATOM     19  H12 UNL     1      12.608 113.900  80.231  1.00  0.00     0.158 HD
ATOM     20  H11 UNL     1      11.538 112.916  81.223  1.00  0.00     0.158 HD
ATOM     21  H3  UNL     1      11.149 110.357  79.659  1.00  0.00     0.162 HD
ENDBRANCH  14  15
ENDBRANCH  12  14
ENDBRANCH   7  11
BRANCH   8  22
HETATM   22  O1  UNL     1       9.079 109.576  83.687  1.00  0.00    -0.391 OA
ATOM     23  H1  UNL     1       8.812 108.745  84.062  1.00  0.00     0.210 HD
ENDBRANCH   8  22
BRANCH   9  24
HETATM   24  N5  UNL     1      10.146 107.127  83.767  1.00  0.00    -0.070 N
ATOM     25  H53 UNL     1      10.049 106.115  83.680  1.00  0.00     0.274 HD
ATOM     26  H52 UNL     1      11.101 107.165  84.121  1.00  0.00     0.274 HD
ATOM     27  H51 UNL     1       9.483 107.507  84.443  1.00  0.00     0.274 HD
ENDBRANCH   9  24
BRANCH  10  28
HETATM   28  O2  UNL     1       7.960 106.617  82.706  1.00  0.00    -0.391 OA
ATOM     29  H2  UNL     1       7.056 106.904  82.655  1.00  0.00     0.210 HD
ENDBRANCH  10  28
ENDBRANCH   5   6
ENDBRANCH   1   5
BRANCH   4  30
HETATM   30  N8  UNL     1       6.504 106.233  78.841  1.00  0.00    -0.062 N
ATOM     31  H82 UNL     1       5.986 106.608  79.635  1.00  0.00     0.277 HD
ATOM     32  H81 UNL     1       5.877 106.553  78.104  1.00  0.00     0.277 HD
BRANCH  30  33
HETATM   33  C12 UNL     1       6.627 104.786  78.884  1.00  0.00     0.235 C
BRANCH  33  34
HETATM   34  C13 UNL     1       7.579 104.354  79.977  1.00  0.00     0.055 C
BRANCH  34  35
HETATM   35  C14 UNL     1       7.090 103.141  80.716  1.00  0.00     0.238 C
BRANCH  35  36
HETATM   36  N9  UNL     1       6.019 103.439  81.622  1.00  0.00    -0.022 N
HETATM   37  C15 UNL     1       5.109 102.318  81.783  1.00  0.00     0.575 C
HETATM   38  N10 UNL     1       5.751 101.143  82.294  1.00  0.00    -0.026 N
HETATM   39  N11 UNL     1       4.003 102.658  82.657  1.00  0.00    -0.026 N
ATOM     40 3H10 UNL     1       6.550 100.883  81.714  1.00  0.00     0.278 HD
ATOM     41 2H10 UNL     1       6.237 101.345  83.168  1.00  0.00     0.278 HD
ATOM     42 1H10 UNL     1       5.112 100.355  82.406  1.00  0.00     0.278 HD
ATOM     43 3H11 UNL     1       4.331 103.007  83.558  1.00  0.00     0.278 HD
ATOM     44 2H11 UNL     1       3.514 103.493  82.335  1.00  0.00     0.278 HD
ATOM     45 1H11 UNL     1       3.364 101.871  82.770  1.00  0.00     0.278 HD
ATOM     46  H92 UNL     1       6.376 103.758  82.524  1.00  0.00     0.281 HD
ATOM     47  H91 UNL     1       5.519 104.282  81.339  1.00  0.00     0.281 HD
ENDBRANCH  35  36
ENDBRANCH  34  35
ENDBRANCH  33  34
ENDBRANCH  30  33
ENDBRANCH   4  30
BRANCH   3  48
HETATM   48  N6  UNL     1       7.487 107.080  76.257  1.00  0.00    -0.114 NA
BRANCH  48  49
HETATM   49  N7  UNL     1       7.830 108.009  75.239  1.00  0.00    -0.346 N
ATOM     50  H72 UNL     1       8.714 108.513  75.163  1.00  0.00     0.172 HD
ATOM     51  H71 UNL     1       7.029 108.068  74.611  1.00  0.00     0.172 HD
ENDBRANCH  48  49
ENDBRANCH   3  48
TORSDOF 15
ENDMDL