MODEL 5
REMARK VINA RESULT: -7.639527402      1.897      3.452
REMARK  17 active torsions:
REMARK  status: ('A' for Active; 'I' for Inactive)
REMARK    1  A    between atoms: N1_1  and  C1_4
REMARK    2  A    between atoms: C3_9  and  N4_10
REMARK    3  A    between atoms: N4_10  and  N5_12
REMARK    4  A    between atoms: C4_14  and  N6_15
REMARK    5  A    between atoms: N6_15  and  N7_17
REMARK    6  A    between atoms: N7_17  and  C5_19
REMARK    7  A    between atoms: C5_19  and  N8_20
REMARK    8  A    between atoms: C5_19  and  C6_24
REMARK    9  A    between atoms: C6_24  and  N9_25
REMARK   10  A    between atoms: N9_25  and  N10_26
REMARK   11  A    between atoms: N9_25  and  C7_29
REMARK   12  A    between atoms: C7_29  and  C8_30
REMARK   13  A    between atoms: C8_30  and  O1_31
REMARK   14  A    between atoms: O1_31  and  C9_32
REMARK   15  A    between atoms: C11_34  and  N11_35
REMARK   16  A    between atoms: C12_39  and  O2_40
REMARK   17  A    between atoms: C13_42  and  O3_43
ROOT
HETATM    1  C5  UNL     1       9.150 109.115  82.796  1.00  0.00     0.311 C
ENDROOT
BRANCH   1   2
HETATM    2  N7  UNL     1       7.808 108.795  82.538  1.00  0.00    -0.304 N
ATOM      3  H7  UNL     1       7.090 109.135  83.177  1.00  0.00     0.182 HD
BRANCH   2   4
HETATM    4  N6  UNL     1       7.437 108.055  81.482  1.00  0.00    -0.297 N
ATOM      5  H6  UNL     1       7.307 108.524  80.585  1.00  0.00     0.187 HD
BRANCH   4   6
HETATM    6  C4  UNL     1       7.213 106.635  81.548  1.00  0.00     0.213 C
HETATM    7  N5  UNL     1       7.725 105.764  80.796  1.00  0.00    -0.294 N
ATOM      8  H5  UNL     1       7.439 104.809  81.008  1.00  0.00     0.187 HD
BRANCH   7   9
HETATM    9  N4  UNL     1       8.591 105.867  79.751  1.00  0.00    -0.292 N
ATOM     10  H4  UNL     1       9.585 105.716  79.928  1.00  0.00     0.187 HD
BRANCH   9  11
HETATM   11  C3  UNL     1       8.181 106.174  78.426  1.00  0.00     0.159 A
HETATM   12  C2  UNL     1       8.436 107.391  77.817  1.00  0.00     0.165 A
HETATM   13  N2  UNL     1       8.053 107.657  76.541  1.00  0.00    -0.176 N
HETATM   14  N3  UNL     1       9.120 108.394  78.570  1.00  0.00    -0.079 NA
HETATM   15  C1  UNL     1       7.403 106.734  75.820  1.00  0.00     0.680 A
ATOM     16  H2  UNL     1       8.262 108.566  76.129  1.00  0.00     0.185 HD
HETATM   17  N12 UNL     1       7.147 105.545  76.398  1.00  0.00    -0.154 N
HETATM   18  C14 UNL     1       7.502 105.240  77.642  1.00  0.00     0.291 A
ATOM     19  H12 UNL     1       6.653 104.840  75.850  1.00  0.00     0.187 HD
HETATM   20  O4  UNL     1       7.259 104.119  78.179  1.00  0.00    -0.265 OA
BRANCH  15  21
HETATM   21  N1  UNL     1       7.025 106.942  74.590  1.00  0.00    -0.234 N
ATOM     22  H12 UNL     1       6.370 107.697  74.388  1.00  0.00     0.174 HD
ATOM     23  H11 UNL     1       7.353 106.372  73.810  1.00  0.00     0.174 HD
ENDBRANCH  15  21
ENDBRANCH   9  11
ENDBRANCH   7   9
ENDBRANCH   4   6
ENDBRANCH   2   4
ENDBRANCH   1   2
BRANCH   1  24
HETATM   24  N8  UNL     1       9.334 109.720  84.127  1.00  0.00    -0.056 N
ATOM     25  H83 UNL     1      10.316 109.933  84.301  1.00  0.00     0.276 HD
ATOM     26  H82 UNL     1       8.955 110.666  84.158  1.00  0.00     0.276 HD
ATOM     27  H81 UNL     1       8.945 109.142  84.872  1.00  0.00     0.276 HD
ENDBRANCH   1  24
BRANCH   1  28
HETATM   28  C6  UNL     1       9.836 109.943  81.769  1.00  0.00     0.168 C
BRANCH  28  29
HETATM   29  N9  UNL     1       8.960 110.874  81.098  1.00  0.00    -0.232 NA
BRANCH  29  30
HETATM   30  N10 UNL     1       8.000 111.414  81.950  1.00  0.00    -0.363 NA
ATOM     31 2H10 UNL     1       7.560 110.700  82.531  1.00  0.00     0.171 HD
ATOM     32 1H10 UNL     1       7.312 111.982  81.455  1.00  0.00     0.171 HD
ENDBRANCH  29  30
BRANCH  29  33
HETATM   33  C7  UNL     1       9.698 111.903  80.392  1.00  0.00     0.139 C
BRANCH  33  34
HETATM   34  C8  UNL     1       8.954 113.186  80.283  1.00  0.00     0.184 C
BRANCH  34  35
HETATM   35  O1  UNL     1       7.740 113.001  79.663  1.00  0.00    -0.382 OA
BRANCH  35  36
HETATM   36  C9  UNL     1       7.585 113.614  78.433  1.00  0.00     0.154 C
HETATM   37  C10 UNL     1       6.105 113.542  78.094  1.00  0.00     0.070 C
HETATM   38  C11 UNL     1       5.951 112.476  77.074  1.00  0.00     0.217 C
HETATM   39  C12 UNL     1       7.195 111.637  77.207  1.00  0.00     0.179 C
HETATM   40  C13 UNL     1       8.255 112.730  77.371  1.00  0.00     0.177 C
BRANCH  38  41
HETATM   41  N11 UNL     1       5.943 113.067  75.742  1.00  0.00    -0.072 N
ATOM     42 3H11 UNL     1       6.764 113.649  75.575  1.00  0.00     0.274 HD
ATOM     43 2H11 UNL     1       6.104 112.372  75.012  1.00  0.00     0.274 HD
ATOM     44 1H11 UNL     1       5.073 113.580  75.599  1.00  0.00     0.274 HD
ENDBRANCH  38  41
BRANCH  39  45
HETATM   45  O2  UNL     1       7.134 110.846  78.343  1.00  0.00    -0.391 OA
ATOM     46  H2  UNL     1       8.006 110.662  78.672  1.00  0.00     0.210 HD
ENDBRANCH  39  45
BRANCH  40  47
HETATM   47  O3  UNL     1       8.376 113.357  76.155  1.00  0.00    -0.390 OA
ATOM     48  H3  UNL     1       8.856 114.176  76.208  1.00  0.00     0.210 HD
ENDBRANCH  40  47
ENDBRANCH  35  36
ENDBRANCH  34  35
ENDBRANCH  33  34
ENDBRANCH  29  33
ENDBRANCH  28  29
ENDBRANCH   1  28
TORSDOF 17
ENDMDL