MODEL 4
REMARK VINA RESULT: -7.658025686      2.875      4.354
REMARK  14 active torsions:
REMARK  status: ('A' for Active; 'I' for Inactive)
REMARK    1  A    between atoms: N1_2  and  N2_3
REMARK    2  A    between atoms: N1_2  and  N3_7
REMARK    3  A    between atoms: N2_3  and  O1_5
REMARK    4  A    between atoms: N3_7  and  C2_8
REMARK    5  A    between atoms: C2_8  and  C3_9
REMARK    6  A    between atoms: C3_9  and  N4_10
REMARK    7  A    between atoms: N4_10  and  C4_13
REMARK    8  A    between atoms: C4_13  and  C5_14
REMARK    9  A    between atoms: C5_14  and  O2_15
REMARK   10  A    between atoms: O2_15  and  N5_16
REMARK       I    between atoms: N5_16  and  C6_18
REMARK       I    between atoms: C6_18  and  N7_20
REMARK   11  A    between atoms: N7_20  and  C7_21
REMARK   12  A    between atoms: C7_21  and  C8_22
REMARK   13  A    between atoms: C8_22  and  O3_23
REMARK   14  A    between atoms: N11_31  and  N12_32
REMARK       I    between atoms: N12_32  and  C10_34
ROOT
HETATM    1  N5  UNL     1       8.143 107.755  77.104  1.00  0.00    -0.227 N
ATOM      2  H5  UNL     1       7.511 107.818  76.305  1.00  0.00     0.198 HD
HETATM    3  C6  UNL     1       8.244 108.789  78.132  1.00  0.00     0.282 C
HETATM    4  N6  UNL     1       8.917 108.326  79.357  1.00  0.00    -0.048 NA
HETATM    5  N7  UNL     1       7.771 109.852  77.981  1.00  0.00    -0.412 NA
ENDROOT
BRANCH   5   6
HETATM    6  C7  UNL     1       7.218 111.079  77.791  1.00  0.00     0.292 C
BRANCH   6   7
HETATM    7  C8  UNL     1       8.331 112.178  77.975  1.00  0.00     0.276 C
HETATM    8  N8  UNL     1       7.620 113.134  78.938  1.00  0.00    -0.017 N
HETATM    9  C9  UNL     1       8.224 112.468  80.046  1.00  0.00     0.325 C
ATOM     10  H82 UNL     1       7.728 114.143  78.828  1.00  0.00     0.283 HD
ATOM     11  H81 UNL     1       6.606 113.238  78.897  1.00  0.00     0.283 HD
HETATM   12  N9  UNL     1       8.938 113.439  80.860  1.00  0.00    -0.094 NA
HETATM   13  C11 UNL     1       9.259 111.906  79.065  1.00  0.00     0.214 C
HETATM   14  N10 UNL     1       9.873 113.933  79.970  1.00  0.00    -0.034 NA
HETATM   15  N11 UNL     1      10.371 112.788  79.309  1.00  0.00    -0.112 NA
BRANCH   7  16
HETATM   16  O3  UNL     1       8.594 112.931  76.886  1.00  0.00    -0.361 OA
ATOM     17  H3  UNL     1       9.073 112.497  76.191  1.00  0.00     0.212 HD
ENDBRANCH   7  16
BRANCH  15  18
HETATM   18  N12 UNL     1      11.184 112.176  80.288  1.00  0.00    -0.276 N
HETATM   19  C10 UNL     1      11.134 110.829  80.679  1.00  0.00     0.197 C
HETATM   20  N13 UNL     1      10.339 110.426  81.611  1.00  0.00    -0.373 N
HETATM   21  N14 UNL     1      12.001 109.902  80.030  1.00  0.00    -0.063 NA
ATOM     22 2H13 UNL     1       9.719 111.089  82.076  1.00  0.00     0.158 HD
ATOM     23 1H13 UNL     1      10.303 109.447  81.896  1.00  0.00     0.158 HD
ATOM     24  H12 UNL     1      11.871 112.767  80.754  1.00  0.00     0.185 HD
ENDBRANCH  15  18
ENDBRANCH   6   7
ENDBRANCH   5   6
BRANCH   1  25
HETATM   25  O2  UNL     1       8.972 106.702  77.316  1.00  0.00    -0.275 OA
BRANCH  25  26
HETATM   26  C5  UNL     1       8.219 105.511  77.293  1.00  0.00     0.228 C
BRANCH  26  27
HETATM   27  C4  UNL     1       8.613 104.668  78.448  1.00  0.00     0.261 C
BRANCH  27  28
HETATM   28  N4  UNL     1       8.650 105.342  79.691  1.00  0.00    -0.072 N
ATOM     29  H42 UNL     1       9.008 106.291  79.585  1.00  0.00     0.277 HD
ATOM     30  H41 UNL     1       9.378 104.962  80.296  1.00  0.00     0.277 HD
BRANCH  28  31
HETATM   31  C3  UNL     1       7.348 105.338  80.360  1.00  0.00     0.250 C
BRANCH  31  32
HETATM   32  C2  UNL     1       7.090 103.853  80.659  1.00  0.00     0.164 C
BRANCH  32  33
HETATM   33  N3  UNL     1       6.738 103.694  82.058  1.00  0.00    -0.120 NA
BRANCH  33  34
HETATM   34  N1  UNL     1       5.999 102.521  82.147  1.00  0.00    -0.223 N
HETATM   35  C1  UNL     1       6.431 101.327  81.515  1.00  0.00     0.197 C
BRANCH  34  36
HETATM   36  N2  UNL     1       4.794 102.533  82.864  1.00  0.00    -0.197 N
ATOM     37  H2  UNL     1       4.775 102.197  83.827  1.00  0.00     0.217 HD
BRANCH  36  38
HETATM   38  O1  UNL     1       3.726 102.958  82.324  1.00  0.00    -0.273 OA
ATOM     39  H1  UNL     1       3.052 103.374  82.849  1.00  0.00     0.246 HD
ENDBRANCH  36  38
ENDBRANCH  34  36
ENDBRANCH  33  34
ENDBRANCH  32  33
ENDBRANCH  31  32
ENDBRANCH  28  31
ENDBRANCH  27  28
ENDBRANCH  26  27
ENDBRANCH  25  26
ENDBRANCH   1  25
TORSDOF 14
ENDMDL