MODEL 1
REMARK VINA RESULT: -6.935752112      0.000      0.000
REMARK  17 active torsions:
REMARK  status: ('A' for Active; 'I' for Inactive)
REMARK    1  A    between atoms: N1_2  and  C2_5
REMARK    2  A    between atoms: C3_7  and  C4_8
REMARK    3  A    between atoms: C4_8  and  N2_9
REMARK       I    between atoms: N2_9  and  C5_11
REMARK    4  A    between atoms: C5_11  and  C6_13
REMARK    5  A    between atoms: C7_18  and  O3_19
REMARK    6  A    between atoms: C8_21  and  N5_22
REMARK    7  A    between atoms: N5_22  and  C9_25
REMARK    8  A    between atoms: C9_25  and  C10_26
REMARK    9  A    between atoms: C10_26  and  N6_27
REMARK   10  A    between atoms: C11_31  and  O4_32
REMARK   11  A    between atoms: C12_34  and  N7_35
REMARK   12  A    between atoms: N7_35  and  C13_37
REMARK   13  A    between atoms: C13_37  and  C14_38
REMARK   14  A    between atoms: C14_38  and  N8_39
REMARK   15  A    between atoms: N8_39  and  C15_42
REMARK   16  A    between atoms: C15_42  and  C16_43
REMARK   17  A    between atoms: C16_43  and  O5_44
ROOT
HETATM    1  C2  UNL     1       7.340 109.431  78.114  1.00  0.00     0.370 C
HETATM    2  O1  UNL     1       8.679 109.543  78.520  1.00  0.00    -0.345 OA
HETATM    3  C3  UNL     1       9.105 108.664  79.459  1.00  0.00     0.173 C
HETATM    4  C7  UNL     1       8.178 107.688  80.048  1.00  0.00     0.182 C
HETATM    5  C8  UNL     1       7.894 106.618  79.066  1.00  0.00     0.251 C
HETATM    6  C11 UNL     1       7.854 106.983  77.612  1.00  0.00     0.201 C
HETATM    7  C12 UNL     1       7.147 108.210  77.274  1.00  0.00     0.070 C
ENDROOT
BRANCH   7   8
HETATM    8  N7  UNL     1       7.112 108.411  75.863  1.00  0.00    -0.389 N
ATOM      9  H7  UNL     1       7.857 108.915  75.382  1.00  0.00     0.159 HD
BRANCH   8  10
HETATM   10  C13 UNL     1       6.004 107.886  75.154  1.00  0.00     0.147 C
BRANCH  10  11
HETATM   11  C14 UNL     1       6.012 108.328  73.681  1.00  0.00     0.251 C
BRANCH  11  12
HETATM   12  N8  UNL     1       6.563 109.644  73.630  1.00  0.00    -0.072 N
ATOM     13  H82 UNL     1       7.069 109.857  74.491  1.00  0.00     0.277 HD
ATOM     14  H81 UNL     1       7.336 109.687  72.965  1.00  0.00     0.277 HD
BRANCH  12  15
HETATM   15  C15 UNL     1       5.597 110.654  73.349  1.00  0.00     0.258 C
BRANCH  15  16
HETATM   16  C16 UNL     1       6.013 111.884  74.179  1.00  0.00     0.191 C
BRANCH  16  17
HETATM   17  O5  UNL     1       7.385 111.883  74.413  1.00  0.00    -0.399 OA
ATOM     18  H5  UNL     1       7.818 112.537  73.878  1.00  0.00     0.209 HD
ENDBRANCH  16  17
ENDBRANCH  15  16
ENDBRANCH  12  15
ENDBRANCH  11  12
ENDBRANCH  10  11
ENDBRANCH   8  10
ENDBRANCH   7   8
BRANCH   1  19
HETATM   19  N1  UNL     1       7.138 110.613  77.301  1.00  0.00    -0.047 N
HETATM   20  C1  UNL     1       7.688 111.803  77.972  1.00  0.00     0.270 C
ATOM     21  H12 UNL     1       6.157 110.738  77.052  1.00  0.00     0.280 HD
ATOM     22  H11 UNL     1       7.520 110.497  76.363  1.00  0.00     0.280 HD
ENDBRANCH   1  19
BRANCH   6  23
HETATM   23  O4  UNL     1       9.060 106.868  76.933  1.00  0.00    -0.387 OA
ATOM     24  H4  UNL     1       9.154 106.092  76.393  1.00  0.00     0.210 HD
ENDBRANCH   6  23
BRANCH   5  25
HETATM   25  N5  UNL     1       8.893 105.577  79.153  1.00  0.00    -0.064 N
ATOM     26  H52 UNL     1       9.655 105.739  78.495  1.00  0.00     0.277 HD
ATOM     27  H51 UNL     1       9.418 105.639  80.026  1.00  0.00     0.277 HD
BRANCH  25  28
HETATM   28  C9  UNL     1       8.316 104.256  78.977  1.00  0.00     0.260 C
BRANCH  28  29
HETATM   29  C10 UNL     1       7.222 104.109  80.012  1.00  0.00     0.257 C
BRANCH  29  30
HETATM   30  N6  UNL     1       7.347 102.801  80.607  1.00  0.00    -0.078 N
ATOM     31  H63 UNL     1       6.822 102.086  80.104  1.00  0.00     0.274 HD
ATOM     32  H62 UNL     1       8.276 102.399  80.485  1.00  0.00     0.274 HD
ATOM     33  H61 UNL     1       7.073 102.875  81.587  1.00  0.00     0.274 HD
ENDBRANCH  29  30
ENDBRANCH  28  29
ENDBRANCH  25  28
ENDBRANCH   5  25
BRANCH   3  34
HETATM   34  C4  UNL     1      10.090 109.301  80.431  1.00  0.00     0.157 C
BRANCH  34  35
HETATM   35  N2  UNL     1      10.424 110.656  80.083  1.00  0.00    -0.352 N
HETATM   36  C5  UNL     1      11.554 110.845  79.235  1.00  0.00     0.282 C
HETATM   37  O2  UNL     1      12.241 109.842  78.843  1.00  0.00    -0.265 OA
ATOM     38  H2  UNL     1       9.877 111.446  80.427  1.00  0.00     0.162 HD
BRANCH  36  39
HETATM   39  C6  UNL     1      11.993 112.125  78.772  1.00  0.00     0.178 C
HETATM   40  N3  UNL     1      11.825 113.175  79.554  1.00  0.00    -0.383 N
ATOM     41  H32 UNL     1      11.368 113.030  80.454  1.00  0.00     0.157 HD
ATOM     42  H31 UNL     1      12.139 114.088  79.223  1.00  0.00     0.157 HD
HETATM   43  N4  UNL     1      12.615 112.322  77.546  1.00  0.00    -0.077 NA
ENDBRANCH  36  39
ENDBRANCH  34  35
ENDBRANCH   3  34
BRANCH   4  44
HETATM   44  O3  UNL     1       8.882 107.069  81.113  1.00  0.00    -0.391 OA
ATOM     45  H3  UNL     1       8.402 106.275  81.320  1.00  0.00     0.210 HD
ENDBRANCH   4  44
TORSDOF 17
ENDMDL