MODEL 5
REMARK VINA RESULT: -7.182496268      4.916      8.216
REMARK  19 active torsions:
REMARK  status: ('A' for Active; 'I' for Inactive)
REMARK    1  A    between atoms: N1_1  and  C1_5
REMARK    2  A    between atoms: C1_5  and  C2_6
REMARK    3  A    between atoms: C2_6  and  C3_7
REMARK    4  A    between atoms: C3_7  and  C4_8
REMARK    5  A    between atoms: C4_8  and  N2_9
REMARK    6  A    between atoms: N2_9  and  N3_10
REMARK    7  A    between atoms: N3_10  and  C5_11
REMARK    8  A    between atoms: C5_11  and  C6_12
REMARK    9  A    between atoms: C6_12  and  N4_13
REMARK   10  A    between atoms: N4_13  and  C7_16
REMARK   11  A    between atoms: C8_20  and  O1_21
REMARK   12  A    between atoms: O1_21  and  C9_22
REMARK   13  A    between atoms: C10_23  and  N6_24
REMARK   14  A    between atoms: C11_28  and  O2_29
REMARK   15  A    between atoms: C12_31  and  N7_32
REMARK   16  A    between atoms: C13_36  and  N8_37
REMARK   17  A    between atoms: C14_41  and  O3_42
REMARK   18  A    between atoms: C15_44  and  O4_45
REMARK   19  A    between atoms: C16_47  and  O5_48
ROOT
HETATM    1  C7  UNL     1       7.697 112.809  76.717  1.00  0.00     0.416 C
HETATM    2  N5  UNL     1       7.224 111.552  77.272  1.00  0.00    -0.015 N
ATOM      3  H51 UNL     1       7.155 110.777  76.613  1.00  0.00     0.282 HD
ATOM      4  H52 UNL     1       6.238 111.528  77.534  1.00  0.00     0.282 HD
HETATM    5  C8  UNL     1       8.168 111.372  78.358  1.00  0.00     0.355 C
HETATM    6  C15 UNL     1       8.079 112.686  79.092  1.00  0.00     0.207 C
HETATM    7  C16 UNL     1       7.834 113.671  77.948  1.00  0.00     0.209 C
ENDROOT
BRANCH   5   8
HETATM    8  O1  UNL     1       7.787 110.364  79.226  1.00  0.00    -0.347 OA
BRANCH   8   9
HETATM    9  C9  UNL     1       8.624 109.288  79.293  1.00  0.00     0.188 C
HETATM   10  C10 UNL     1       7.880 108.073  79.848  1.00  0.00     0.245 C
HETATM   11  C11 UNL     1       7.528 108.242  81.295  1.00  0.00     0.183 C
HETATM   12  C12 UNL     1       8.735 108.535  82.154  1.00  0.00     0.246 C
HETATM   13  C13 UNL     1       9.591 109.631  81.579  1.00  0.00     0.247 C
HETATM   14  C14 UNL     1       9.855 109.447  80.110  1.00  0.00     0.181 C
BRANCH  10  15
HETATM   15  N6  UNL     1       8.735 106.907  79.726  1.00  0.00    -0.070 N
ATOM     16  H63 UNL     1       9.687 107.149  79.452  1.00  0.00     0.274 HD
ATOM     17  H62 UNL     1       8.949 106.485  80.629  1.00  0.00     0.274 HD
ATOM     18  H61 UNL     1       8.300 106.248  79.080  1.00  0.00     0.274 HD
ENDBRANCH  10  15
BRANCH  11  19
HETATM   19  O2  UNL     1       6.993 107.034  81.739  1.00  0.00    -0.391 OA
ATOM     20  H2  UNL     1       6.194 107.234  82.213  1.00  0.00     0.210 HD
ENDBRANCH  11  19
BRANCH  12  21
HETATM   21  N7  UNL     1       9.551 107.347  82.365  1.00  0.00    -0.070 N
ATOM     22  H73 UNL     1       9.096 106.514  81.992  1.00  0.00     0.274 HD
ATOM     23  H72 UNL     1      10.380 107.357  81.773  1.00  0.00     0.274 HD
ATOM     24  H71 UNL     1       9.797 107.226  83.347  1.00  0.00     0.274 HD
ENDBRANCH  12  21
BRANCH  13  25
HETATM   25  N8  UNL     1       9.040 110.899  81.930  1.00  0.00    -0.070 N
ATOM     26  H83 UNL     1       8.449 111.280  81.191  1.00  0.00     0.274 HD
ATOM     27  H82 UNL     1       8.331 110.823  82.659  1.00  0.00     0.274 HD
ATOM     28  H81 UNL     1       9.793 111.537  82.189  1.00  0.00     0.274 HD
ENDBRANCH  13  25
BRANCH  14  29
HETATM   29  O3  UNL     1      10.732 110.418  79.702  1.00  0.00    -0.391 OA
ATOM     30  H3  UNL     1      11.109 110.958  80.387  1.00  0.00     0.210 HD
ENDBRANCH  14  29
ENDBRANCH   8   9
ENDBRANCH   5   8
BRANCH   6  31
HETATM   31  O4  UNL     1       9.296 112.983  79.718  1.00  0.00    -0.388 OA
ATOM     32  H4  UNL     1      10.006 112.973  79.087  1.00  0.00     0.210 HD
ENDBRANCH   6  31
BRANCH   1  33
HETATM   33  N4  UNL     1       6.830 113.378  75.736  1.00  0.00    -0.042 N
ATOM     34  H42 UNL     1       7.319 113.624  74.875  1.00  0.00     0.279 HD
ATOM     35  H41 UNL     1       6.512 114.314  75.987  1.00  0.00     0.279 HD
BRANCH  33  36
HETATM   36  C6  UNL     1       5.734 112.457  75.512  1.00  0.00     0.252 C
BRANCH  36  37
HETATM   37  C5  UNL     1       5.538 112.206  74.012  1.00  0.00     0.158 C
BRANCH  37  38
HETATM   38  N3  UNL     1       5.812 110.813  73.738  1.00  0.00    -0.147 NA
BRANCH  38  39
HETATM   39  N2  UNL     1       7.122 110.497  74.042  1.00  0.00    -0.149 NA
BRANCH  39  40
HETATM   40  C4  UNL     1       7.528 109.249  73.485  1.00  0.00     0.130 C
BRANCH  40  41
HETATM   41  C3  UNL     1       7.048 108.092  74.344  1.00  0.00     0.019 C
BRANCH  41  42
HETATM   42  C2  UNL     1       7.403 108.244  75.791  1.00  0.00     0.028 C
BRANCH  42  43
HETATM   43  C1  UNL     1       6.129 107.998  76.592  1.00  0.00     0.229 C
BRANCH  43  44
HETATM   44  N1  UNL     1       5.120 108.939  76.150  1.00  0.00    -0.079 N
ATOM     45  H13 UNL     1       5.516 109.718  75.623  1.00  0.00     0.274 HD
ATOM     46  H12 UNL     1       4.527 108.558  75.411  1.00  0.00     0.274 HD
ATOM     47  H11 UNL     1       4.586 109.246  76.963  1.00  0.00     0.274 HD
ENDBRANCH  43  44
ENDBRANCH  42  43
ENDBRANCH  41  42
ENDBRANCH  40  41
ENDBRANCH  39  40
ENDBRANCH  38  39
ENDBRANCH  37  38
ENDBRANCH  36  37
ENDBRANCH  33  36
ENDBRANCH   1  33
BRANCH   7  48
HETATM   48  O5  UNL     1       6.667 114.389  78.207  1.00  0.00    -0.389 OA
ATOM     49  H5  UNL     1       6.634 115.196  77.708  1.00  0.00     0.210 HD
ENDBRANCH   7  48
TORSDOF 19
ENDMDL