MODEL 5
REMARK VINA RESULT: -6.969735276      3.095      4.857
REMARK  20 active torsions:
REMARK  status: ('A' for Active; 'I' for Inactive)
REMARK    1  A    between atoms: N1_1  and  C1_5
REMARK    2  A    between atoms: C1_5  and  C2_6
REMARK    3  A    between atoms: C2_6  and  C3_7
REMARK    4  A    between atoms: C3_7  and  C4_8
REMARK    5  A    between atoms: C4_8  and  C5_9
REMARK    6  A    between atoms: C5_9  and  N2_10
REMARK    7  A    between atoms: N2_10  and  C6_12
REMARK    8  A    between atoms: C6_12  and  C7_13
REMARK    9  A    between atoms: C6_12  and  N4_18
REMARK   10  A    between atoms: C7_13  and  N3_14
REMARK   11  A    between atoms: N4_18  and  C8_20
REMARK   12  A    between atoms: C9_21  and  N5_22
REMARK   13  A    between atoms: C10_26  and  O1_27
REMARK   14  A    between atoms: C11_29  and  O2_30
REMARK   15  A    between atoms: C12_32  and  N6_33
REMARK   16  A    between atoms: C12_32  and  O3_37
REMARK   17  A    between atoms: O3_37  and  C13_38
REMARK   18  A    between atoms: C13_38  and  C14_39
REMARK   19  A    between atoms: C14_39  and  N7_40
REMARK   20  A    between atoms: C16_45  and  N10_46
ROOT
HETATM    1  C8  UNL     1       9.921 110.875  80.759  1.00  0.00     0.147 C
HETATM    2  C9  UNL     1      11.229 111.327  80.254  1.00  0.00     0.239 C
HETATM    3  C10 UNL     1      11.339 112.746  79.791  1.00  0.00     0.184 C
HETATM    4  C11 UNL     1      10.094 113.448  79.422  1.00  0.00     0.214 C
HETATM    5  C12 UNL     1       8.884 112.565  79.217  1.00  0.00     0.283 C
HETATM    6  C16 UNL     1       8.706 111.656  80.373  1.00  0.00     0.273 C
ENDROOT
BRANCH   1   7
HETATM    7  N4  UNL     1       9.702 109.512  80.380  1.00  0.00    -0.392 N
ATOM      8  H4  UNL     1      10.068 109.154  79.497  1.00  0.00     0.155 HD
BRANCH   7   9
HETATM    9  C6  UNL     1       8.971 108.671  81.247  1.00  0.00     0.198 C
BRANCH   9  10
HETATM   10  N2  UNL     1       9.033 107.336  80.710  1.00  0.00    -0.400 N
ATOM     11  H2  UNL     1       9.600 106.616  81.158  1.00  0.00     0.155 HD
BRANCH  10  12
HETATM   12  C5  UNL     1       8.286 107.054  79.543  1.00  0.00     0.115 C
BRANCH  12  13
HETATM   13  C4  UNL     1       8.442 105.557  79.291  1.00  0.00     0.019 C
BRANCH  13  14
HETATM   14  C3  UNL     1       8.634 105.236  77.838  1.00  0.00     0.003 C
BRANCH  14  15
HETATM   15  C2  UNL     1       8.224 106.395  76.954  1.00  0.00     0.027 C
BRANCH  15  16
HETATM   16  C1  UNL     1       7.036 106.005  76.126  1.00  0.00     0.229 C
BRANCH  16  17
HETATM   17  N1  UNL     1       7.015 106.641  74.837  1.00  0.00    -0.079 N
ATOM     18  H13 UNL     1       7.309 107.615  74.907  1.00  0.00     0.274 HD
ATOM     19  H12 UNL     1       7.762 106.283  74.242  1.00  0.00     0.274 HD
ATOM     20  H11 UNL     1       6.111 106.566  74.369  1.00  0.00     0.274 HD
ENDBRANCH  16  17
ENDBRANCH  15  16
ENDBRANCH  14  15
ENDBRANCH  13  14
ENDBRANCH  12  13
ENDBRANCH  10  12
ENDBRANCH   9  10
BRANCH   9  21
HETATM   21  C7  UNL     1       9.300 108.804  82.663  1.00  0.00     0.275 C
BRANCH  21  22
HETATM   22  N3  UNL     1       8.211 109.363  83.431  1.00  0.00    -0.076 N
ATOM     23  H33 UNL     1       7.364 109.437  82.869  1.00  0.00     0.274 HD
ATOM     24  H32 UNL     1       7.882 108.704  84.137  1.00  0.00     0.274 HD
ATOM     25  H31 UNL     1       8.453 110.261  83.852  1.00  0.00     0.274 HD
ENDBRANCH  21  22
ENDBRANCH   9  21
ENDBRANCH   7   9
ENDBRANCH   1   7
BRANCH   2  26
HETATM   26  N5  UNL     1      11.733 110.434  79.190  1.00  0.00    -0.070 N
ATOM     27  H53 UNL     1      12.437 109.787  79.546  1.00  0.00     0.274 HD
ATOM     28  H52 UNL     1      11.026 109.757  78.904  1.00  0.00     0.274 HD
ATOM     29  H51 UNL     1      12.083 110.966  78.393  1.00  0.00     0.274 HD
ENDBRANCH   2  26
BRANCH   6  30
HETATM   30  N10 UNL     1       8.302 112.481  81.528  1.00  0.00    -0.068 N
ATOM     31 3H10 UNL     1       8.349 113.481  81.332  1.00  0.00     0.275 HD
ATOM     32 2H10 UNL     1       7.302 112.425  81.721  1.00  0.00     0.275 HD
ATOM     33 1H10 UNL     1       8.872 112.209  82.328  1.00  0.00     0.275 HD
ENDBRANCH   6  30
BRANCH   3  34
HETATM   34  O1  UNL     1      12.178 112.762  78.654  1.00  0.00    -0.391 OA
ATOM     35  H1  UNL     1      12.348 111.860  78.409  1.00  0.00     0.210 HD
ENDBRANCH   3  34
BRANCH   5  36
HETATM   36  N6  UNL     1       8.893 111.895  77.943  1.00  0.00    -0.042 N
ATOM     37  H63 UNL     1       9.463 111.050  77.978  1.00  0.00     0.278 HD
ATOM     38  H62 UNL     1       7.985 111.474  77.745  1.00  0.00     0.278 HD
ATOM     39  H61 UNL     1       9.187 112.504  77.179  1.00  0.00     0.278 HD
ENDBRANCH   5  36
BRANCH   5  40
HETATM   40  O3  UNL     1       7.784 113.443  79.145  1.00  0.00    -0.346 OA
BRANCH  40  41
HETATM   41  C13 UNL     1       6.671 112.907  78.572  1.00  0.00     0.215 C
BRANCH  41  42
HETATM   42  C14 UNL     1       6.165 113.881  77.512  1.00  0.00     0.089 C
BRANCH  42  43
HETATM   43  N7  UNL     1       6.011 113.302  76.245  1.00  0.00    -0.344 N
HETATM   44  C15 UNL     1       6.795 113.043  75.297  1.00  0.00     0.200 C
HETATM   45  N8  UNL     1       6.270 112.433  74.130  1.00  0.00    -0.067 NA
HETATM   46  N9  UNL     1       8.173 113.332  75.331  1.00  0.00    -0.067 NA
ATOM     47  H7  UNL     1       5.048 113.031  76.048  1.00  0.00     0.167 HD
ENDBRANCH  42  43
ENDBRANCH  41  42
ENDBRANCH  40  41
ENDBRANCH   5  40
BRANCH   4  48
HETATM   48  O2  UNL     1       9.719 114.386  80.415  1.00  0.00    -0.388 OA
ATOM     49  H2  UNL     1       9.429 113.952  81.208  1.00  0.00     0.210 HD
ENDBRANCH   4  48
TORSDOF 20
ENDMDL