MODEL 4
REMARK VINA RESULT: -7.400285682      2.508      8.848
REMARK  17 active torsions:
REMARK  status: ('A' for Active; 'I' for Inactive)
REMARK    1  A    between atoms: N1_1  and  C1_5
REMARK    2  A    between atoms: C1_5  and  C2_6
REMARK    3  A    between atoms: C2_6  and  C3_7
REMARK    4  A    between atoms: C3_7  and  C4_8
REMARK    5  A    between atoms: C4_8  and  C5_9
REMARK    6  A    between atoms: C5_9  and  N2_10
REMARK       I    between atoms: N2_10  and  C6_12
REMARK       I    between atoms: C6_12  and  N3_13
REMARK       I    between atoms: C6_12  and  N4_17
REMARK    7  A    between atoms: N4_17  and  N5_19
REMARK    8  A    between atoms: N5_19  and  C7_21
REMARK    9  A    between atoms: C8_22  and  O1_23
REMARK   10  A    between atoms: C9_25  and  N6_26
REMARK   11  A    between atoms: C10_30  and  O2_31
REMARK   12  A    between atoms: O2_31  and  C11_32
REMARK   13  A    between atoms: C12_34  and  C13_35
REMARK   14  A    between atoms: C13_35  and  O4_36
REMARK   15  A    between atoms: C14_38  and  N7_39
REMARK   16  A    between atoms: C15_43  and  N8_44
REMARK   17  A    between atoms: C16_48  and  O5_49
ROOT
HETATM    1  C7  UNL     1       7.182 107.183  80.182  1.00  0.00     0.161 C
HETATM    2  C8  UNL     1       7.632 106.618  78.883  1.00  0.00     0.178 C
HETATM    3  C9  UNL     1       7.854 105.136  79.043  1.00  0.00     0.245 C
HETATM    4  C10 UNL     1       7.289 104.822  80.381  1.00  0.00     0.188 C
HETATM    5  C16 UNL     1       7.434 106.093  81.206  1.00  0.00     0.176 C
ENDROOT
BRANCH   1   6
HETATM    6  N5  UNL     1       7.792 108.431  80.561  1.00  0.00    -0.328 N
ATOM      7  H5  UNL     1       8.112 109.104  79.864  1.00  0.00     0.180 HD
BRANCH   6   8
HETATM    8  N4  UNL     1       7.922 108.669  81.888  1.00  0.00    -0.294 N
HETATM    9  C6  UNL     1       8.838 109.641  82.348  1.00  0.00     0.396 C
HETATM   10  N2  UNL     1       8.642 110.996  82.022  1.00  0.00    -0.379 N
HETATM   11  N3  UNL     1       9.000 109.540  83.827  1.00  0.00    -0.040 N
ATOM     12  H2  UNL     1       8.544 111.704  82.749  1.00  0.00     0.157 HD
ATOM     13  H33 UNL     1       9.741 110.142  84.184  1.00  0.00     0.279 HD
ATOM     14  H32 UNL     1       8.224 109.960  84.337  1.00  0.00     0.279 HD
ATOM     15  H31 UNL     1       9.142 108.558  84.063  1.00  0.00     0.279 HD
ATOM     16  H4  UNL     1       7.357 108.146  82.557  1.00  0.00     0.184 HD
BRANCH  10  17
HETATM   17  C5  UNL     1       8.587 111.344  80.654  1.00  0.00     0.117 C
BRANCH  17  18
HETATM   18  C4  UNL     1       8.265 112.813  80.429  1.00  0.00     0.019 C
BRANCH  18  19
HETATM   19  C3  UNL     1       9.449 113.532  79.819  1.00  0.00     0.003 C
BRANCH  19  20
HETATM   20  C2  UNL     1      10.161 112.696  78.792  1.00  0.00     0.027 C
BRANCH  20  21
HETATM   21  C1  UNL     1      11.659 112.670  79.006  1.00  0.00     0.229 C
BRANCH  21  22
HETATM   22  N1  UNL     1      12.004 112.968  80.375  1.00  0.00    -0.079 N
ATOM     23  H13 UNL     1      11.651 113.882  80.657  1.00  0.00     0.274 HD
ATOM     24  H12 UNL     1      11.477 112.387  81.027  1.00  0.00     0.274 HD
ATOM     25  H11 UNL     1      13.008 112.890  80.533  1.00  0.00     0.274 HD
ENDBRANCH  21  22
ENDBRANCH  20  21
ENDBRANCH  19  20
ENDBRANCH  18  19
ENDBRANCH  17  18
ENDBRANCH  10  17
ENDBRANCH   6   8
ENDBRANCH   1   6
BRANCH   2  26
HETATM   26  O1  UNL     1       6.651 106.797  77.889  1.00  0.00    -0.391 OA
ATOM     27  H1  UNL     1       6.854 107.547  77.343  1.00  0.00     0.210 HD
ENDBRANCH   2  26
BRANCH   5  28
HETATM   28  O5  UNL     1       6.439 106.068  82.177  1.00  0.00    -0.391 OA
ATOM     29  H5  UNL     1       5.671 106.553  81.899  1.00  0.00     0.210 HD
ENDBRANCH   5  28
BRANCH   3  30
HETATM   30  N6  UNL     1       9.256 104.785  78.913  1.00  0.00    -0.070 N
ATOM     31  H63 UNL     1       9.803 105.567  78.552  1.00  0.00     0.274 HD
ATOM     32  H62 UNL     1       9.701 104.687  79.825  1.00  0.00     0.274 HD
ATOM     33  H61 UNL     1       9.384 103.948  78.344  1.00  0.00     0.274 HD
ENDBRANCH   3  30
BRANCH   4  34
HETATM   34  O2  UNL     1       7.911 103.744  81.007  1.00  0.00    -0.349 OA
BRANCH  34  35
HETATM   35  C11 UNL     1       7.267 102.556  80.669  1.00  0.00     0.293 C
HETATM   36  O3  UNL     1       5.904 102.734  80.494  1.00  0.00    -0.349 OA
HETATM   37  C12 UNL     1       5.225 101.964  81.396  1.00  0.00     0.180 C
HETATM   38  C14 UNL     1       6.111 100.783  81.720  1.00  0.00     0.249 C
HETATM   39  C15 UNL     1       7.491 101.441  81.630  1.00  0.00     0.271 C
BRANCH  37  40
HETATM   40  C13 UNL     1       4.840 102.754  82.613  1.00  0.00     0.198 C
BRANCH  40  41
HETATM   41  O4  UNL     1       3.569 103.290  82.546  1.00  0.00    -0.398 OA
ATOM     42  H4  UNL     1       3.532 104.214  82.768  1.00  0.00     0.209 HD
ENDBRANCH  40  41
ENDBRANCH  37  40
BRANCH  38  43
HETATM   43  N7  UNL     1       6.075  99.784  80.672  1.00  0.00    -0.070 N
ATOM     44  H73 UNL     1       5.161  99.750  80.221  1.00  0.00     0.274 HD
ATOM     45  H72 UNL     1       6.638 100.065  79.870  1.00  0.00     0.274 HD
ATOM     46  H71 UNL     1       6.353  98.865  81.017  1.00  0.00     0.274 HD
ENDBRANCH  38  43
BRANCH  39  47
HETATM   47  N8  UNL     1       7.976 101.864  82.909  1.00  0.00    -0.068 N
ATOM     48  H83 UNL     1       7.938 101.095  83.578  1.00  0.00     0.275 HD
ATOM     49  H82 UNL     1       8.985 102.015  82.878  1.00  0.00     0.275 HD
ATOM     50  H81 UNL     1       7.502 102.686  83.282  1.00  0.00     0.275 HD
ENDBRANCH  39  47
ENDBRANCH  34  35
ENDBRANCH   4  34
TORSDOF 17
ENDMDL