MODEL 1
REMARK VINA RESULT: -6.093173523      0.000      0.000
REMARK  19 active torsions:
REMARK  status: ('A' for Active; 'I' for Inactive)
REMARK       I    between atoms: C1_4  and  N3_6
REMARK    1  A    between atoms: N3_6  and  C2_8
REMARK    2  A    between atoms: C3_9  and  C4_10
REMARK    3  A    between atoms: C4_10  and  N4_11
REMARK    4  A    between atoms: C5_15  and  O1_16
REMARK    5  A    between atoms: C6_18  and  O2_19
REMARK    6  A    between atoms: C7_21  and  N5_22
REMARK    7  A    between atoms: C8_26  and  N6_27
REMARK    8  A    between atoms: N6_27  and  C9_29
REMARK    9  A    between atoms: C9_29  and  C10_30
REMARK   10  A    between atoms: C9_29  and  C12_36
REMARK   11  A    between atoms: C10_30  and  C11_31
REMARK   12  A    between atoms: C11_31  and  N7_32
REMARK   13  A    between atoms: C12_36  and  N9_40
REMARK   14  A    between atoms: N9_40  and  C13_42
REMARK   15  A    between atoms: C13_42  and  C14_43
REMARK   16  A    between atoms: C14_43  and  O3_44
REMARK   17  A    between atoms: O3_44  and  N10_45
REMARK   18  A    between atoms: N10_45  and  C15_46
REMARK   19  A    between atoms: C15_46  and  N11_47
ROOT
HETATM    1  C2  UNL     1       9.177 110.678  80.461  1.00  0.00     0.044 C
HETATM    2  C3  UNL     1      10.616 110.999  80.337  1.00  0.00     0.094 C
HETATM    3  C5  UNL     1      11.001 112.352  79.876  1.00  0.00     0.161 C
HETATM    4  C6  UNL     1       9.921 113.343  79.646  1.00  0.00     0.184 C
HETATM    5  C7  UNL     1       8.520 112.882  79.837  1.00  0.00     0.265 C
HETATM    6  C8  UNL     1       8.227 111.468  79.569  1.00  0.00     0.062 C
ENDROOT
BRANCH   6   7
HETATM    7  N6  UNL     1       7.983 110.921  78.341  1.00  0.00    -0.378 N
ATOM      8  H6  UNL     1       8.611 110.176  78.040  1.00  0.00     0.160 HD
BRANCH   7   9
HETATM    9  C9  UNL     1       6.975 111.271  77.465  1.00  0.00     0.150 C
BRANCH   9  10
HETATM   10  C10 UNL     1       7.336 112.254  76.425  1.00  0.00     0.060 C
BRANCH  10  11
HETATM   11  C11 UNL     1       6.848 113.650  76.578  1.00  0.00     0.232 C
BRANCH  11  12
HETATM   12  N7  UNL     1       5.939 113.950  77.618  1.00  0.00    -0.079 N
ATOM     13  H73 UNL     1       6.024 113.238  78.343  1.00  0.00     0.274 HD
ATOM     14  H72 UNL     1       6.268 114.780  78.112  1.00  0.00     0.274 HD
ATOM     15  H71 UNL     1       4.952 114.074  77.394  1.00  0.00     0.274 HD
ENDBRANCH  11  12
ENDBRANCH  10  11
ENDBRANCH   9  10
BRANCH   9  16
HETATM   16  C12 UNL     1       6.201 110.133  76.892  1.00  0.00     0.093 C
HETATM   17  N8  UNL     1       5.059 110.327  76.372  1.00  0.00    -0.387 N
ATOM     18  H82 UNL     1       4.698 111.280  76.320  1.00  0.00     0.157 HD
ATOM     19  H81 UNL     1       4.530 109.548  75.979  1.00  0.00     0.157 HD
BRANCH  16  20
HETATM   20  N9  UNL     1       6.710 108.789  76.964  1.00  0.00    -0.376 N
ATOM     21  H9  UNL     1       6.524 108.238  77.802  1.00  0.00     0.160 HD
BRANCH  20  22
HETATM   22  C13 UNL     1       7.470 108.198  75.898  1.00  0.00     0.149 C
BRANCH  22  23
HETATM   23  C14 UNL     1       8.650 107.382  76.431  1.00  0.00     0.215 C
BRANCH  23  24
HETATM   24  O3  UNL     1       8.920 107.785  77.725  1.00  0.00    -0.283 OA
BRANCH  24  25
HETATM   25  N10 UNL     1       8.657 106.876  78.661  1.00  0.00    -0.074 NA
BRANCH  25  26
HETATM   26  C15 UNL     1       8.522 105.555  78.097  1.00  0.00     0.371 C
BRANCH  26  27
HETATM   27  N11 UNL     1       9.254 104.593  78.932  1.00  0.00    -0.064 N
ATOM     28 3H11 UNL     1      10.179 104.382  78.558  1.00  0.00     0.275 HD
ATOM     29 2H11 UNL     1       9.546 104.998  79.822  1.00  0.00     0.275 HD
ATOM     30 1H11 UNL     1       8.686 103.756  79.057  1.00  0.00     0.275 HD
ENDBRANCH  26  27
ENDBRANCH  25  26
ENDBRANCH  24  25
ENDBRANCH  23  24
ENDBRANCH  22  23
ENDBRANCH  20  22
ENDBRANCH  16  20
ENDBRANCH   9  16
ENDBRANCH   7   9
ENDBRANCH   6   7
BRANCH   1  31
HETATM   31  N3  UNL     1       8.867 109.271  80.537  1.00  0.00    -0.332 N
HETATM   32  C1  UNL     1       8.931 108.566  81.798  1.00  0.00     0.186 C
HETATM   33  N1  UNL     1       9.214 107.324  81.869  1.00  0.00    -0.374 N
HETATM   34  N2  UNL     1       8.652 109.369  82.941  1.00  0.00    -0.064 NA
ATOM     35  H12 UNL     1       9.258 106.826  82.758  1.00  0.00     0.158 HD
ATOM     36  H11 UNL     1       9.413 106.750  81.050  1.00  0.00     0.158 HD
ATOM     37  H3  UNL     1       8.600 108.768  79.691  1.00  0.00     0.168 HD
ENDBRANCH   1  31
BRANCH   5  38
HETATM   38  N5  UNL     1       8.274 113.043  81.323  1.00  0.00    -0.067 N
ATOM     39  H53 UNL     1       9.093 113.346  81.851  1.00  0.00     0.275 HD
ATOM     40  H52 UNL     1       7.684 113.839  81.565  1.00  0.00     0.275 HD
ATOM     41  H51 UNL     1       7.899 112.140  81.614  1.00  0.00     0.275 HD
ENDBRANCH   5  38
BRANCH   2  42
HETATM   42  C4  UNL     1      11.407 109.989  79.485  1.00  0.00     0.243 C
BRANCH  42  43
HETATM   43  N4  UNL     1      12.305 109.185  80.238  1.00  0.00    -0.079 N
ATOM     44  H43 UNL     1      13.270 109.459  80.058  1.00  0.00     0.274 HD
ATOM     45  H42 UNL     1      12.245 109.412  81.230  1.00  0.00     0.274 HD
ATOM     46  H41 UNL     1      12.181 108.183  80.089  1.00  0.00     0.274 HD
ENDBRANCH  42  43
ENDBRANCH   2  42
BRANCH   4  47
HETATM   47  O2  UNL     1      10.080 114.480  80.490  1.00  0.00    -0.390 OA
ATOM     48  H2  UNL     1      10.083 115.283  79.983  1.00  0.00     0.210 HD
ENDBRANCH   4  47
BRANCH   3  49
HETATM   49  O1  UNL     1      11.904 112.298  78.774  1.00  0.00    -0.392 OA
ATOM     50  H1  UNL     1      12.707 111.844  78.999  1.00  0.00     0.210 HD
ENDBRANCH   3  49
TORSDOF 19
ENDMDL