MODEL 4
REMARK VINA RESULT: -6.654375765      2.331      5.177
REMARK  19 active torsions:
REMARK  status: ('A' for Active; 'I' for Inactive)
REMARK    1  A    between atoms: N1_2  and  C2_5
REMARK    2  A    between atoms: C2_5  and  C3_6
REMARK    3  A    between atoms: C3_6  and  C4_7
REMARK    4  A    between atoms: C4_7  and  C5_8
REMARK    5  A    between atoms: C5_8  and  N2_9
REMARK    6  A    between atoms: N2_9  and  C6_11
REMARK    7  A    between atoms: C7_12  and  N3_13
REMARK    8  A    between atoms: N3_13  and  N4_14
REMARK    9  A    between atoms: C8_20  and  O1_21
REMARK   10  A    between atoms: O1_21  and  C9_22
REMARK   11  A    between atoms: C10_24  and  C11_25
REMARK   12  A    between atoms: C11_25  and  N6_26
REMARK   13  A    between atoms: N6_26  and  C12_28
REMARK   14  A    between atoms: C12_28  and  O3_29
REMARK   15  A    between atoms: C12_28  and  C13_31
REMARK   16  A    between atoms: C13_31  and  N7_32
REMARK   17  A    between atoms: C14_36  and  O4_37
REMARK   18  A    between atoms: C15_39  and  N8_40
REMARK   19  A    between atoms: C16_44  and  O5_45
ROOT
HETATM    1  C9  UNL     1      10.095 110.313  79.282  1.00  0.00     0.294 C
HETATM    2  O2  UNL     1       9.000 110.898  79.810  1.00  0.00    -0.349 OA
HETATM    3  C10 UNL     1       9.172 112.173  80.326  1.00  0.00     0.173 C
HETATM    4  C14 UNL     1      10.283 112.899  79.625  1.00  0.00     0.181 C
HETATM    5  C15 UNL     1      11.541 112.198  80.173  1.00  0.00     0.247 C
HETATM    6  C16 UNL     1      11.448 110.784  79.653  1.00  0.00     0.206 C
ENDROOT
BRANCH   1   7
HETATM    7  O1  UNL     1       9.939 108.924  79.481  1.00  0.00    -0.324 OA
BRANCH   7   8
HETATM    8  C8  UNL     1       8.908 108.581  80.271  1.00  0.00     0.351 C
HETATM    9  C6  UNL     1       8.174 107.301  79.969  1.00  0.00     0.182 C
HETATM   10  C7  UNL     1       7.878 107.395  81.487  1.00  0.00     0.326 C
HETATM   11  N5  UNL     1       9.245 107.959  81.570  1.00  0.00    -0.025 N
ATOM     12  H52 UNL     1       9.566 108.502  82.371  1.00  0.00     0.282 HD
ATOM     13  H51 UNL     1      10.072 107.376  81.701  1.00  0.00     0.282 HD
BRANCH   9  14
HETATM   14  N2  UNL     1       8.893 106.111  79.736  1.00  0.00    -0.410 N
ATOM     15  H2  UNL     1       9.619 105.813  80.387  1.00  0.00     0.153 HD
BRANCH  14  16
HETATM   16  C5  UNL     1       8.598 105.334  78.593  1.00  0.00     0.114 C
BRANCH  16  17
HETATM   17  C4  UNL     1       8.393 103.867  78.921  1.00  0.00     0.021 C
BRANCH  17  18
HETATM   18  C3  UNL     1       7.130 103.607  79.685  1.00  0.00     0.029 C
BRANCH  18  19
HETATM   19  C2  UNL     1       7.403 102.586  80.776  1.00  0.00     0.231 C
BRANCH  19  20
HETATM   20  N1  UNL     1       7.967 101.405  80.218  1.00  0.00    -0.079 N
HETATM   21  C1  UNL     1       8.527 100.579  81.239  1.00  0.00     0.266 C
ATOM     22  H12 UNL     1       8.649 101.621  79.490  1.00  0.00     0.276 HD
ATOM     23  H11 UNL     1       7.291 100.896  79.648  1.00  0.00     0.276 HD
ENDBRANCH  19  20
ENDBRANCH  18  19
ENDBRANCH  17  18
ENDBRANCH  16  17
ENDBRANCH  14  16
ENDBRANCH   9  14
BRANCH  10  24
HETATM   24  N3  UNL     1       7.687 106.150  82.144  1.00  0.00    -0.112 NA
BRANCH  24  25
HETATM   25  N4  UNL     1       6.346 105.939  82.394  1.00  0.00    -0.346 N
ATOM     26  H42 UNL     1       5.701 106.668  82.700  1.00  0.00     0.172 HD
ATOM     27  H41 UNL     1       6.103 104.962  82.230  1.00  0.00     0.172 HD
ENDBRANCH  24  25
ENDBRANCH  10  24
ENDBRANCH   7   8
ENDBRANCH   1   7
BRANCH   6  28
HETATM   28  O5  UNL     1      12.336 110.754  78.541  1.00  0.00    -0.388 OA
ATOM     29  H5  UNL     1      13.229 110.948  78.801  1.00  0.00     0.210 HD
ENDBRANCH   6  28
BRANCH   3  30
HETATM   30  C11 UNL     1       7.906 112.976  80.435  1.00  0.00     0.151 C
BRANCH  30  31
HETATM   31  N6  UNL     1       7.574 113.458  79.110  1.00  0.00    -0.393 N
ATOM     32  H6  UNL     1       8.266 113.914  78.516  1.00  0.00     0.155 HD
BRANCH  31  33
HETATM   33  C12 UNL     1       6.241 113.261  78.686  1.00  0.00     0.239 C
BRANCH  33  34
HETATM   34  O3  UNL     1       5.677 114.539  78.486  1.00  0.00    -0.376 OA
ATOM     35  H3  UNL     1       4.773 114.407  78.225  1.00  0.00     0.212 HD
ENDBRANCH  33  34
BRANCH  33  36
HETATM   36  C13 UNL     1       6.066 112.529  77.377  1.00  0.00     0.282 C
BRANCH  36  37
HETATM   37  N7  UNL     1       6.985 111.391  77.410  1.00  0.00    -0.075 N
ATOM     38  H73 UNL     1       7.662 111.442  78.171  1.00  0.00     0.274 HD
ATOM     39  H72 UNL     1       6.538 110.520  77.696  1.00  0.00     0.274 HD
ATOM     40  H71 UNL     1       7.417 111.340  76.488  1.00  0.00     0.274 HD
ENDBRANCH  36  37
ENDBRANCH  33  36
ENDBRANCH  31  33
ENDBRANCH  30  31
ENDBRANCH   3  30
BRANCH   5  41
HETATM   41  N8  UNL     1      12.705 112.883  79.699  1.00  0.00    -0.070 N
ATOM     42  H83 UNL     1      12.869 112.727  78.704  1.00  0.00     0.274 HD
ATOM     43  H82 UNL     1      12.574 113.893  79.667  1.00  0.00     0.274 HD
ATOM     44  H81 UNL     1      13.507 112.614  80.269  1.00  0.00     0.274 HD
ENDBRANCH   5  41
BRANCH   4  45
HETATM   45  O4  UNL     1      10.350 114.224  79.952  1.00  0.00    -0.391 OA
ATOM     46  H4  UNL     1      10.300 114.381  80.887  1.00  0.00     0.210 HD
ENDBRANCH   4  45
TORSDOF 19
ENDMDL