MODEL 3
REMARK VINA RESULT: -6.653066008      1.928      4.908
REMARK  20 active torsions:
REMARK  status: ('A' for Active; 'I' for Inactive)
REMARK    1  A    between atoms: N1_1  and  C1_5
REMARK    2  A    between atoms: C1_5  and  C2_6
REMARK    3  A    between atoms: C2_6  and  N2_7
REMARK    4  A    between atoms: N2_7  and  C3_10
REMARK    5  A    between atoms: C3_10  and  C4_11
REMARK    6  A    between atoms: C4_11  and  C5_12
REMARK    7  A    between atoms: C5_12  and  C6_13
REMARK    8  A    between atoms: C6_13  and  N3_14
REMARK    9  A    between atoms: N3_14  and  C7_17
REMARK   10  A    between atoms: C7_17  and  C8_18
REMARK   11  A    between atoms: C8_18  and  N4_19
REMARK   12  A    between atoms: N4_19  and  C9_21
REMARK   13  A    between atoms: C10_22  and  O1_23
REMARK   14  A    between atoms: C11_25  and  O2_26
REMARK   15  A    between atoms: C12_28  and  O3_29
REMARK   16  A    between atoms: C13_31  and  N5_32
REMARK       I    between atoms: N5_32  and  C14_34
REMARK       I    between atoms: C14_34  and  N8_40
REMARK   17  A    between atoms: N6_35  and  N7_37
REMARK   18  A    between atoms: N8_40  and  N9_41
REMARK   19  A    between atoms: N8_40  and  O4_44
REMARK   20  A    between atoms: C15_46  and  O5_47
ROOT
HETATM    1  C9  UNL     1       6.938 107.882  76.892  1.00  0.00     0.139 C
HETATM    2  C10 UNL     1       8.066 106.911  76.590  1.00  0.00     0.174 C
HETATM    3  C11 UNL     1       8.074 105.872  77.673  1.00  0.00     0.179 C
HETATM    4  C12 UNL     1       7.758 106.462  79.032  1.00  0.00     0.175 C
HETATM    5  C13 UNL     1       8.078 107.921  79.099  1.00  0.00     0.161 C
HETATM    6  C15 UNL     1       7.177 108.678  78.136  1.00  0.00     0.168 C
ENDROOT
BRANCH   1   7
HETATM    7  N4  UNL     1       6.494 108.571  75.741  1.00  0.00    -0.411 N
ATOM      8  H4  UNL     1       7.126 108.687  74.950  1.00  0.00     0.153 HD
BRANCH   7   9
HETATM    9  C8  UNL     1       5.197 109.097  75.670  1.00  0.00     0.142 C
BRANCH   9  10
HETATM   10  C7  UNL     1       5.349 110.608  75.411  1.00  0.00     0.251 C
BRANCH  10  11
HETATM   11  N3  UNL     1       5.259 111.353  76.642  1.00  0.00    -0.074 N
ATOM     12  H32 UNL     1       5.659 110.827  77.419  1.00  0.00     0.277 HD
ATOM     13  H31 UNL     1       4.293 111.413  76.964  1.00  0.00     0.277 HD
BRANCH  11  14
HETATM   14  C6  UNL     1       5.864 112.682  76.540  1.00  0.00     0.232 C
BRANCH  14  15
HETATM   15  C5  UNL     1       5.833 113.336  77.921  1.00  0.00     0.029 C
BRANCH  15  16
HETATM   16  C4  UNL     1       7.220 113.729  78.305  1.00  0.00     0.029 C
BRANCH  16  17
HETATM   17  C3  UNL     1       7.716 113.026  79.560  1.00  0.00     0.232 C
BRANCH  17  18
HETATM   18  N2  UNL     1       8.812 112.173  79.154  1.00  0.00    -0.074 N
ATOM     19  H22 UNL     1       8.483 111.403  78.571  1.00  0.00     0.277 HD
ATOM     20  H21 UNL     1       9.173 111.637  79.943  1.00  0.00     0.277 HD
BRANCH  18  21
HETATM   21  C2  UNL     1       9.849 112.895  78.511  1.00  0.00     0.259 C
BRANCH  21  22
HETATM   22  C1  UNL     1      11.215 112.381  78.910  1.00  0.00     0.257 C
BRANCH  22  23
HETATM   23  N1  UNL     1      11.534 112.820  80.276  1.00  0.00    -0.078 N
ATOM     24  H13 UNL     1      12.432 113.301  80.324  1.00  0.00     0.274 HD
ATOM     25  H12 UNL     1      10.938 113.591  80.580  1.00  0.00     0.274 HD
ATOM     26  H11 UNL     1      11.489 112.026  80.914  1.00  0.00     0.274 HD
ENDBRANCH  22  23
ENDBRANCH  21  22
ENDBRANCH  18  21
ENDBRANCH  17  18
ENDBRANCH  16  17
ENDBRANCH  15  16
ENDBRANCH  14  15
ENDBRANCH  11  14
ENDBRANCH  10  11
ENDBRANCH   9  10
ENDBRANCH   7   9
ENDBRANCH   1   7
BRANCH   2  27
HETATM   27  O1  UNL     1       9.297 107.446  76.416  1.00  0.00    -0.391 OA
ATOM     28  H1  UNL     1       9.557 107.632  75.521  1.00  0.00     0.210 HD
ENDBRANCH   2  27
BRANCH   6  29
HETATM   29  O5  UNL     1       7.744 109.932  77.848  1.00  0.00    -0.391 OA
ATOM     30  H5  UNL     1       7.923 110.425  78.639  1.00  0.00     0.210 HD
ENDBRANCH   6  29
BRANCH   3  31
HETATM   31  O2  UNL     1       9.245 105.150  77.767  1.00  0.00    -0.390 OA
ATOM     32  H2  UNL     1       9.744 105.308  78.558  1.00  0.00     0.210 HD
ENDBRANCH   3  31
BRANCH   5  33
HETATM   33  N5  UNL     1       8.010 108.398  80.457  1.00  0.00    -0.212 N
HETATM   34  C14 UNL     1       9.018 108.496  81.412  1.00  0.00     0.734 C
HETATM   35  N6  UNL     1       9.078 107.711  82.427  1.00  0.00    -0.135 N
HETATM   36  N8  UNL     1      10.015 109.498  81.362  1.00  0.00     0.010 N
ATOM     37  H6  UNL     1       9.828 107.810  83.110  1.00  0.00     0.205 HD
ATOM     38  H5  UNL     1       7.088 108.709  80.764  1.00  0.00     0.178 HD
BRANCH  35  39
HETATM   39  N7  UNL     1       8.108 106.724  82.588  1.00  0.00    -0.331 N
ATOM     40  H72 UNL     1       8.380 105.743  82.522  1.00  0.00     0.177 HD
ATOM     41  H71 UNL     1       7.142 106.994  82.771  1.00  0.00     0.177 HD
ENDBRANCH  35  39
BRANCH  36  42
HETATM   42  N9  UNL     1      11.380 109.271  81.152  1.00  0.00    -0.304 N
ATOM     43  H92 UNL     1      11.665 108.752  80.321  1.00  0.00     0.180 HD
ATOM     44  H91 UNL     1      12.132 109.598  81.757  1.00  0.00     0.180 HD
ENDBRANCH  36  42
BRANCH  36  45
HETATM   45  O4  UNL     1       9.589 110.789  81.560  1.00  0.00    -0.255 OA
ATOM     46  H4  UNL     1      10.262 111.460  81.547  1.00  0.00     0.247 HD
ENDBRANCH  36  45
ENDBRANCH   5  33
BRANCH   4  47
HETATM   47  O3  UNL     1       8.586 105.830  79.980  1.00  0.00    -0.391 OA
ATOM     48  H3  UNL     1       8.027 105.378  80.600  1.00  0.00     0.210 HD
ENDBRANCH   4  47
TORSDOF 20
ENDMDL