MODEL 5
REMARK VINA RESULT: -6.193595614      1.173      1.586
REMARK  5 active torsions:
REMARK  status: ('A' for Active; 'I' for Inactive)
REMARK    1  A    between atoms: C2_2  and  C3_3
REMARK    2  A    between atoms: C3_3  and  C4_4
REMARK    3  A    between atoms: C7_7  and  C8_8
REMARK    4  A    between atoms: C8_8  and  C9_9
REMARK    5  A    between atoms: C9_9  and  N1_10
ROOT
HETATM    1  C4  UNL     1      -1.684   1.202   5.056  1.00  0.00    -0.007 C
HETATM    2  C5  UNL     1      -0.942   1.667   3.802  1.00  0.00     0.005 C
HETATM    3  C6  UNL     1       0.302   1.705   4.678  1.00  0.00     0.005 C
HETATM    4  C7  UNL     1      -0.381   0.663   5.553  1.00  0.00    -0.009 C
ENDROOT
BRANCH   4   5
HETATM    5  C8  UNL     1      -0.036  -0.728   5.137  1.00  0.00     0.032 C
BRANCH   5   6
HETATM    6  C9  UNL     1       0.518  -1.462   6.352  1.00  0.00     0.230 C
BRANCH   6   7
HETATM    7  N1  UNL     1       1.903  -1.082   6.596  1.00  0.00    -0.079 N
ATOM      8  H13 UNL     1       1.969  -0.276   7.217  1.00  0.00     0.274 HD
ATOM      9  H12 UNL     1       2.385  -1.766   7.180  1.00  0.00     0.274 HD
ATOM     10  H11 UNL     1       2.394  -0.923   5.716  1.00  0.00     0.274 HD
ENDBRANCH   6   7
ENDBRANCH   5   6
ENDBRANCH   4   5
BRANCH   1  11
HETATM   11  C3  UNL     1      -2.726   0.204   4.660  1.00  0.00     0.031 C
BRANCH  11  12
HETATM   12  C2  UNL     1      -3.746   0.928   3.836  1.00  0.00    -0.037 C
HETATM   13  C1  UNL     1      -4.918   1.270   4.335  1.00  0.00     0.007 C
ENDBRANCH  11  12
ENDBRANCH   1  11
TORSDOF 5
ENDMDL