MODEL 4
REMARK VINA RESULT: -5.745291483      2.867      4.875
REMARK  5 active torsions:
REMARK  status: ('A' for Active; 'I' for Inactive)
REMARK    1  A    between atoms: N1_1  and  C1_5
REMARK    2  A    between atoms: C1_5  and  C2_6
REMARK    3  A    between atoms: C2_6  and  C3_7
REMARK    4  A    between atoms: C4_8  and  C5_9
REMARK    5  A    between atoms: C5_9  and  C6_10
ROOT
HETATM    1  C2  UNL     1      -3.955   0.980   4.696  1.00  0.00     0.054 C
ENDROOT
BRANCH   1   2
HETATM    2  C1  UNL     1      -4.495  -0.035   3.688  1.00  0.00     0.233 C
BRANCH   2   3
HETATM    3  N1  UNL     1      -5.926  -0.014   3.769  1.00  0.00    -0.079 N
ATOM      4  H13 UNL     1      -6.376  -0.181   2.869  1.00  0.00     0.274 HD
ATOM      5  H12 UNL     1      -6.306  -0.823   4.263  1.00  0.00     0.274 HD
ATOM      6  H11 UNL     1      -6.202   0.872   4.191  1.00  0.00     0.274 HD
ENDBRANCH   2   3
ENDBRANCH   1   2
BRANCH   1   7
HETATM    7  C3  UNL     1      -2.491   1.081   4.650  1.00  0.00    -0.029 C
HETATM    8  C4  UNL     1      -1.902   1.672   3.632  1.00  0.00    -0.030 C
BRANCH   8   9
HETATM    9  C5  UNL     1      -0.411   1.806   3.527  1.00  0.00     0.031 C
BRANCH   9  10
HETATM   10  C6  UNL     1       0.189   0.688   4.328  1.00  0.00    -0.011 A
HETATM   11  C7  UNL     1       1.622   0.801   4.773  1.00  0.00     0.005 A
HETATM   12  C8  UNL     1       1.184  -0.240   3.743  1.00  0.00     0.005 A
ENDBRANCH   9  10
ENDBRANCH   8   9
ENDBRANCH   1   7
TORSDOF 5
ENDMDL