MODEL 2
REMARK VINA RESULT: -6.267657362      1.292      1.785
REMARK  4 active torsions:
REMARK  status: ('A' for Active; 'I' for Inactive)
REMARK    1  A    between atoms: C2_2  and  C3_3
REMARK    2  A    between atoms: C3_3  and  C4_4
REMARK    3  A    between atoms: C4_4  and  C5_5
REMARK    4  A    between atoms: C5_5  and  C6_6
ROOT
HETATM    1  C6  UNL     1      -2.312   0.930   4.491  1.00  0.00     0.192 C
HETATM    2  N1  UNL     1      -2.492  -0.498   4.297  1.00  0.00    -0.066 N
ATOM      3  H11 UNL     1      -2.477  -1.153   5.079  1.00  0.00     0.278 HD
ATOM      4  H12 UNL     1      -1.779  -1.074   3.849  1.00  0.00     0.278 HD
HETATM    5  C7  UNL     1      -3.690  -0.155   3.639  1.00  0.00     0.193 A
HETATM    6  C8  UNL     1      -4.903   0.510   4.042  1.00  0.00     0.042 A
HETATM    7  C9  UNL     1      -3.751   0.896   4.787  1.00  0.00     0.049 A
ENDROOT
BRANCH   1   8
HETATM    8  C5  UNL     1      -1.770   1.761   3.409  1.00  0.00     0.034 C
BRANCH   8   9
HETATM    9  C4  UNL     1      -0.254   1.744   3.392  1.00  0.00     0.006 C
BRANCH   9  10
HETATM   10  C3  UNL     1       0.312   1.625   4.787  1.00  0.00     0.026 C
BRANCH  10  11
HETATM   11  C2  UNL     1       1.445   0.642   4.742  1.00  0.00    -0.037 C
HETATM   12  C1  UNL     1       1.471  -0.394   3.925  1.00  0.00     0.007 C
ENDBRANCH  10  11
ENDBRANCH   9  10
ENDBRANCH   8   9
ENDBRANCH   1   8
TORSDOF 4
ENDMDL