MODEL 3
REMARK VINA RESULT: -6.166764705      2.587      4.665
REMARK  5 active torsions:
REMARK  status: ('A' for Active; 'I' for Inactive)
REMARK    1  A    between atoms: C2_2  and  C3_3
REMARK    2  A    between atoms: C3_3  and  N1_4
REMARK    3  A    between atoms: N1_4  and  C4_7
REMARK    4  A    between atoms: C4_7  and  C5_8
REMARK    5  A    between atoms: C5_8  and  C6_9
ROOT
HETATM    1  N1  UNL     1      -2.133   0.693   2.290  1.00  0.00    -0.072 N
ATOM      2  H11 UNL     1      -2.704   1.512   2.500  1.00  0.00     0.277 HD
ATOM      3  H12 UNL     1      -2.383   0.598   1.305  1.00  0.00     0.277 HD
ENDROOT
BRANCH   1   4
HETATM    4  C3  UNL     1      -2.505  -0.464   3.075  1.00  0.00     0.259 C
BRANCH   4   5
HETATM    5  C2  UNL     1      -3.593  -0.239   4.024  1.00  0.00    -0.010 C
HETATM    6  C1  UNL     1      -3.989   0.969   4.351  1.00  0.00     0.008 C
ENDBRANCH   4   5
ENDBRANCH   1   4
BRANCH   1   7
HETATM    7  C4  UNL     1      -0.693   0.938   2.489  1.00  0.00     0.233 C
BRANCH   7   8
HETATM    8  C5  UNL     1      -0.585   1.979   3.554  1.00  0.00     0.032 C
BRANCH   8   9
HETATM    9  C6  UNL     1       0.298   1.585   4.713  1.00  0.00    -0.013 C
HETATM   10  C7  UNL     1       1.161   0.359   4.480  1.00  0.00     0.005 C
HETATM   11  C8  UNL     1       0.858  -0.036   5.912  1.00  0.00     0.001 C
HETATM   12  C9  UNL     1      -0.426   0.761   5.774  1.00  0.00     0.005 C
ENDBRANCH   8   9
ENDBRANCH   7   8
ENDBRANCH   1   7
TORSDOF 5
ENDMDL