MODEL 3
REMARK VINA RESULT: -5.961846335      0.734      1.142
REMARK  4 active torsions:
REMARK  status: ('A' for Active; 'I' for Inactive)
REMARK    1  A    between atoms: C2_2  and  C3_3
REMARK    2  A    between atoms: C3_3  and  C4_4
REMARK    3  A    between atoms: C4_4  and  C5_5
REMARK    4  A    between atoms: C5_5  and  C6_6
ROOT
HETATM    1  C6  UNL     1       0.974  -1.121   5.949  1.00  0.00     0.025 A
HETATM    2  C7  UNL     1      -0.108  -1.801   6.431  1.00  0.00     0.113 A
HETATM    3  N1  UNL     1       0.148  -2.069   7.724  1.00  0.00    -0.360 N
ATOM      4  H1  UNL     1      -0.482  -2.570   8.350  1.00  0.00     0.166 HD
HETATM    5  C8  UNL     1       1.351  -1.585   8.076  1.00  0.00     0.180 A
HETATM    6  N2  UNL     1       1.844  -1.004   6.968  1.00  0.00    -0.355 N
ATOM      7  H2  UNL     1       2.751  -0.540   6.908  1.00  0.00     0.166 HD
ENDROOT
BRANCH   1   8
HETATM    8  C5  UNL     1       1.237  -0.577   4.595  1.00  0.00     0.059 C
BRANCH   8   9
HETATM    9  C4  UNL     1       1.550   0.903   4.652  1.00  0.00     0.010 C
BRANCH   9  10
HETATM   10  C3  UNL     1       0.212   1.617   4.809  1.00  0.00     0.026 C
BRANCH  10  11
HETATM   11  C2  UNL     1      -0.533   1.691   3.534  1.00  0.00    -0.037 C
HETATM   12  C1  UNL     1      -1.847   1.677   3.538  1.00  0.00     0.007 C
ENDBRANCH  10  11
ENDBRANCH   9  10
ENDBRANCH   8   9
ENDBRANCH   1   8
TORSDOF 4
ENDMDL