MODEL 5
REMARK VINA RESULT: -5.214340740      1.517      1.924
REMARK  4 active torsions:
REMARK  status: ('A' for Active; 'I' for Inactive)
REMARK    1  A    between atoms: C2_2  and  C3_3
REMARK    2  A    between atoms: C3_3  and  C4_4
REMARK    3  A    between atoms: C4_4  and  C5_6
REMARK    4  A    between atoms: C5_6  and  C6_7
ROOT
HETATM    1  C4  UNL     1      -1.140   1.598   4.179  1.00  0.00     0.065 C
HETATM    2  S1  UNL     1      -1.166   0.795   2.562  1.00  0.00    -0.092 SA
ENDROOT
BRANCH   1   3
HETATM    3  C3  UNL     1      -2.143   0.905   5.070  1.00  0.00     0.042 C
BRANCH   3   4
HETATM    4  C2  UNL     1      -3.334   0.450   4.344  1.00  0.00    -0.036 C
HETATM    5  C1  UNL     1      -4.460   1.142   4.401  1.00  0.00     0.007 C
ENDBRANCH   3   4
ENDBRANCH   1   3
BRANCH   1   6
HETATM    6  C5  UNL     1       0.257   1.578   4.752  1.00  0.00     0.042 C
BRANCH   6   7
HETATM    7  C6  UNL     1       0.967   0.415   4.156  1.00  0.00    -0.036 C
HETATM    8  C7  UNL     1       1.563  -0.517   4.871  1.00  0.00     0.007 C
ENDBRANCH   6   7
ENDBRANCH   1   6
TORSDOF 4
ENDMDL