MODEL 4
REMARK VINA RESULT: -6.053889996      0.959      1.465
REMARK  4 active torsions:
REMARK  status: ('A' for Active; 'I' for Inactive)
REMARK    1  A    between atoms: C2_2  and  C3_3
REMARK    2  A    between atoms: C3_3  and  C4_4
REMARK    3  A    between atoms: C4_4  and  C5_5
REMARK    4  A    between atoms: C5_5  and  C6_6
ROOT
HETATM    1  C6  UNL     1       0.916  -1.051   6.055  1.00  0.00     0.027 A
HETATM    2  C7  UNL     1      -0.220  -1.557   6.603  1.00  0.00     0.045 A
HETATM    3  C8  UNL     1       0.058  -1.792   7.927  1.00  0.00     0.109 A
HETATM    4  N1  UNL     1       1.326  -1.439   8.179  1.00  0.00    -0.312 N
ATOM      5  H1  UNL     1       1.812  -1.500   9.074  1.00  0.00     0.186 HD
HETATM    6  N2  UNL     1       1.821  -0.997   7.038  1.00  0.00    -0.305 N
ATOM      7  H2  UNL     1       2.775  -0.655   6.921  1.00  0.00     0.186 HD
ENDROOT
BRANCH   1   8
HETATM    8  C5  UNL     1       1.194  -0.617   4.659  1.00  0.00     0.059 C
BRANCH   8   9
HETATM    9  C4  UNL     1       1.577   0.868   4.643  1.00  0.00     0.010 C
BRANCH   9  10
HETATM   10  C3  UNL     1       0.280   1.633   4.814  1.00  0.00     0.026 C
BRANCH  10  11
HETATM   11  C2  UNL     1      -0.546   1.642   3.598  1.00  0.00    -0.037 C
HETATM   12  C1  UNL     1      -1.870   1.645   3.649  1.00  0.00     0.007 C
ENDBRANCH  10  11
ENDBRANCH   9  10
ENDBRANCH   8   9
ENDBRANCH   1   8
TORSDOF 4
ENDMDL