MODEL 5
REMARK VINA RESULT: -5.608591172      2.094      2.887
REMARK  5 active torsions:
REMARK  status: ('A' for Active; 'I' for Inactive)
REMARK    1  A    between atoms: C2_2  and  C3_3
REMARK    2  A    between atoms: C3_3  and  N1_4
REMARK    3  A    between atoms: N1_4  and  C4_7
REMARK    4  A    between atoms: C4_7  and  C5_8
REMARK    5  A    between atoms: C5_8  and  C6_9
ROOT
HETATM    1  N1  UNL     1      -1.157  -1.163   6.094  1.00  0.00    -0.072 N
ATOM      2  H11 UNL     1      -1.647  -1.448   6.942  1.00  0.00     0.277 HD
ATOM      3  H12 UNL     1      -0.786  -2.073   5.823  1.00  0.00     0.277 HD
ENDROOT
BRANCH   1   4
HETATM    4  C3  UNL     1      -0.112  -0.219   6.370  1.00  0.00     0.259 C
BRANCH   4   5
HETATM    5  C2  UNL     1       1.161  -0.610   5.662  1.00  0.00    -0.010 C
HETATM    6  C1  UNL     1       1.695   0.216   4.748  1.00  0.00     0.008 C
ENDBRANCH   4   5
ENDBRANCH   1   4
BRANCH   1   7
HETATM    7  C4  UNL     1      -2.053  -0.639   5.113  1.00  0.00     0.233 C
BRANCH   7   8
HETATM    8  C5  UNL     1      -2.085   0.897   5.149  1.00  0.00     0.032 C
BRANCH   8   9
HETATM    9  C6  UNL     1      -2.172   1.334   3.708  1.00  0.00    -0.013 A
HETATM   10  C7  UNL     1      -0.951   2.098   3.207  1.00  0.00     0.005 A
HETATM   11  C8  UNL     1      -1.309   0.763   2.656  1.00  0.00     0.005 A
ENDBRANCH   8   9
ENDBRANCH   7   8
ENDBRANCH   1   7
TORSDOF 5
ENDMDL