MODEL 5
REMARK VINA RESULT: -5.422277783      2.077      4.209
REMARK  4 active torsions:
REMARK  status: ('A' for Active; 'I' for Inactive)
REMARK    1  A    between atoms: C2_2  and  C3_3
REMARK    2  A    between atoms: C3_3  and  N1_4
REMARK    3  A    between atoms: N1_4  and  C4_6
REMARK    4  A    between atoms: C4_6  and  C5_7
ROOT
HETATM    1  C4  UNL     1      -0.413   1.891   3.762  1.00  0.00     0.159 C
ENDROOT
BRANCH   1   2
HETATM    2  N1  UNL     1      -0.870   1.013   2.655  1.00  0.00    -0.395 N
ATOM      3  H1  UNL     1      -0.264   0.745   1.879  1.00  0.00     0.159 HD
BRANCH   2   4
HETATM    4  C3  UNL     1      -2.203   0.581   2.759  1.00  0.00     0.082 C
BRANCH   4   5
HETATM    5  C2  UNL     1      -3.177   1.424   3.400  1.00  0.00     0.006 C
HETATM    6  C1  UNL     1      -3.896   0.905   4.413  1.00  0.00     0.012 C
ENDBRANCH   4   5
ENDBRANCH   2   4
ENDBRANCH   1   2
BRANCH   1   7
HETATM    7  C5  UNL     1       0.258   0.900   4.689  1.00  0.00    -0.017 A
HETATM    8  C6  UNL     1      -0.212   0.377   5.882  1.00  0.00     0.035 A
HETATM    9  C7  UNL     1       0.844  -0.315   6.420  1.00  0.00     0.142 A
HETATM   10  O1  UNL     1       1.873  -0.229   5.641  1.00  0.00    -0.334 OA
HETATM   11  C8  UNL     1       1.568   0.481   4.590  1.00  0.00     0.150 A
ENDBRANCH   1   7
TORSDOF 4
ENDMDL