MODEL 2
REMARK VINA RESULT: -5.789704207      1.011      1.258
REMARK  5 active torsions:
REMARK  status: ('A' for Active; 'I' for Inactive)
REMARK    1  A    between atoms: C2_3  and  C3_4
REMARK    2  A    between atoms: C3_4  and  C4_5
REMARK    3  A    between atoms: C4_5  and  C5_6
REMARK    4  A    between atoms: C6_7  and  N2_8
REMARK    5  A    between atoms: N2_8  and  C7_10
ROOT
HETATM    1  N1  UNL     1      -3.420  -0.634   4.453  1.00  0.00    -0.197 NA
HETATM    2  C1  UNL     1      -3.118   0.346   3.944  1.00  0.00     0.059 C
HETATM    3  C2  UNL     1      -2.719   1.596   3.290  1.00  0.00     0.124 C
ENDROOT
BRANCH   3   4
HETATM    4  C3  UNL     1      -1.270   1.835   3.554  1.00  0.00     0.018 C
BRANCH   4   5
HETATM    5  C4  UNL     1      -0.442   0.941   2.640  1.00  0.00     0.029 C
BRANCH   5   6
HETATM    6  C5  UNL     1       0.545   0.247   3.472  1.00  0.00    -0.010 C
HETATM    7  C6  UNL     1       0.770   0.561   4.738  1.00  0.00     0.085 C
BRANCH   7   8
HETATM    8  N2  UNL     1       1.730  -0.128   5.518  1.00  0.00    -0.363 N
ATOM      9  H2  UNL     1       2.721  -0.029   5.298  1.00  0.00     0.165 HD
BRANCH   8  10
HETATM   10  C7  UNL     1       1.335  -0.949   6.595  1.00  0.00     0.173 C
HETATM   11  N3  UNL     1       1.994  -0.908   7.695  1.00  0.00    -0.395 N
ATOM     12  H32 UNL     1       2.794  -0.280   7.774  1.00  0.00     0.156 HD
ATOM     13  H31 UNL     1       1.708  -1.502   8.474  1.00  0.00     0.156 HD
ENDBRANCH   8  10
ENDBRANCH   7   8
ENDBRANCH   5   6
ENDBRANCH   4   5
ENDBRANCH   3   4
TORSDOF 5
ENDMDL