MODEL 5
REMARK VINA RESULT: -7.411882665      1.274      2.032
REMARK  10 active torsions:
REMARK  status: ('A' for Active; 'I' for Inactive)
REMARK    1  A    between atoms: C2_3  and  N2_4
REMARK    2  A    between atoms: C2_3  and  C3_8
REMARK    3  A    between atoms: C2_3  and  C4_13
REMARK    4  A    between atoms: C3_8  and  N3_9
REMARK    5  A    between atoms: C4_13  and  C5_14
REMARK    6  A    between atoms: C5_14  and  O1_15
REMARK    7  A    between atoms: O1_15  and  N4_16
REMARK    8  A    between atoms: N4_16  and  C6_18
REMARK    9  A    between atoms: C7_21  and  N6_22
REMARK   10  A    between atoms: C8_27  and  N8_28
ROOT
HETATM    1  N1  UNL     1      18.406  12.227  29.044  1.00  0.00    -0.195 NA
HETATM    2  C1  UNL     1      17.418  11.659  28.847  1.00  0.00     0.100 C
HETATM    3  C2  UNL     1      16.158  10.927  28.599  1.00  0.00     0.235 C
ENDROOT
BRANCH   3   4
HETATM    4  N2  UNL     1      16.439   9.563  28.171  1.00  0.00    -0.056 N
ATOM      5  H23 UNL     1      15.584   9.043  27.969  1.00  0.00     0.276 HD
ATOM      6  H22 UNL     1      16.856   9.535  27.241  1.00  0.00     0.276 HD
ATOM      7  H21 UNL     1      17.018   9.086  28.863  1.00  0.00     0.276 HD
ENDBRANCH   3   4
BRANCH   3   8
HETATM    8  C3  UNL     1      15.412  11.611  27.495  1.00  0.00     0.283 C
BRANCH   8   9
HETATM    9  N3  UNL     1      14.090  11.007  27.423  1.00  0.00    -0.076 N
ATOM     10  H33 UNL     1      13.713  10.766  28.339  1.00  0.00     0.274 HD
ATOM     11  H32 UNL     1      13.365  11.670  27.150  1.00  0.00     0.274 HD
ATOM     12  H31 UNL     1      14.155  10.206  26.795  1.00  0.00     0.274 HD
ENDBRANCH   8   9
ENDBRANCH   3   8
BRANCH   3  13
HETATM   13  C4  UNL     1      15.377  10.830  29.884  1.00  0.00     0.085 C
BRANCH  13  14
HETATM   14  C5  UNL     1      15.490   9.419  30.417  1.00  0.00     0.205 C
BRANCH  14  15
HETATM   15  O1  UNL     1      16.652   9.411  31.260  1.00  0.00    -0.266 OA
BRANCH  15  16
HETATM   16  N4  UNL     1      17.380   8.249  31.260  1.00  0.00    -0.095 N
ATOM     17  H4  UNL     1      16.926   7.361  31.472  1.00  0.00     0.213 HD
BRANCH  16  18
HETATM   18  C6  UNL     1      18.629   8.286  30.993  1.00  0.00     0.731 A
HETATM   19  N5  UNL     1      19.169   9.367  30.422  1.00  0.00    -0.020 N
HETATM   20  C7  UNL     1      20.484   9.385  30.150  1.00  0.00     0.705 A
ATOM     21  H5  UNL     1      18.587  10.173  30.194  1.00  0.00     0.203 HD
HETATM   22  N7  UNL     1      21.262   8.330  30.445  1.00  0.00    -0.022 N
HETATM   23  C8  UNL     1      20.738   7.240  31.018  1.00  0.00     0.705 A
ATOM     24  H7  UNL     1      22.259   8.361  30.231  1.00  0.00     0.203 HD
HETATM   25  N9  UNL     1      19.406   7.237  31.287  1.00  0.00    -0.020 N
ATOM     26  H9  UNL     1      18.988   6.415  31.723  1.00  0.00     0.203 HD
BRANCH  20  27
HETATM   27  N6  UNL     1      21.037  10.436  29.588  1.00  0.00    -0.234 N
ATOM     28  H62 UNL     1      21.036  11.318  30.098  1.00  0.00     0.174 HD
ATOM     29  H61 UNL     1      21.458  10.368  28.662  1.00  0.00     0.174 HD
ENDBRANCH  20  27
BRANCH  23  30
HETATM   30  N8  UNL     1      21.400   6.193  31.334  1.00  0.00    -0.234 N
ATOM     31  H82 UNL     1      21.476   5.459  30.630  1.00  0.00     0.174 HD
ATOM     32  H81 UNL     1      21.855   6.043  32.234  1.00  0.00     0.174 HD
ENDBRANCH  23  30
ENDBRANCH  16  18
ENDBRANCH  15  16
ENDBRANCH  14  15
ENDBRANCH  13  14
ENDBRANCH   3  13
TORSDOF 10
ENDMDL