MODEL 5
REMARK VINA RESULT: -6.399917704      1.090      1.350
REMARK  9 active torsions:
REMARK  status: ('A' for Active; 'I' for Inactive)
REMARK    1  A    between atoms: O1_2  and  C2_3
REMARK    2  A    between atoms: C2_3  and  C3_4
REMARK    3  A    between atoms: C3_4  and  C4_5
REMARK    4  A    between atoms: C4_5  and  N1_6
REMARK    5  A    between atoms: N1_6  and  C5_9
REMARK    6  A    between atoms: C5_9  and  C6_10
REMARK    7  A    between atoms: C7_13  and  N3_14
REMARK    8  A    between atoms: C8_19  and  N5_20
REMARK    9  A    between atoms: N7_26  and  N8_28
ROOT
HETATM    1  C6  UNL     1      16.257  10.439  29.424  1.00  0.00     0.098 C
HETATM    2  N2  UNL     1      16.992  11.422  29.861  1.00  0.00    -0.190 N
ATOM      3  H2  UNL     1      17.484  11.234  30.735  1.00  0.00     0.184 HD
HETATM    4  C7  UNL     1      17.214  12.681  29.330  1.00  0.00     0.690 C
HETATM    5  N4  UNL     1      16.858  13.070  28.080  1.00  0.00    -0.023 N
ATOM      6  H4  UNL     1      17.148  14.013  27.822  1.00  0.00     0.203 HD
HETATM    7  C8  UNL     1      16.164  12.388  27.105  1.00  0.00     0.692 C
HETATM    8  N6  UNL     1      15.336  11.336  27.395  1.00  0.00    -0.173 N
ATOM      9  H6  UNL     1      14.590  11.195  26.714  1.00  0.00     0.186 HD
HETATM   10  C9  UNL     1      15.324  10.472  28.392  1.00  0.00     0.160 C
HETATM   11  N7  UNL     1      14.437   9.639  28.444  1.00  0.00    -0.290 N
ATOM     12  H7  UNL     1      14.634   9.118  29.298  1.00  0.00     0.188 HD
ENDROOT
BRANCH   1  13
HETATM   13  C5  UNL     1      16.379   9.084  29.996  1.00  0.00     0.293 C
BRANCH  13  14
HETATM   14  N1  UNL     1      17.791   8.724  30.175  1.00  0.00    -0.070 N
ATOM     15  H12 UNL     1      17.898   7.938  30.817  1.00  0.00     0.277 HD
ATOM     16  H11 UNL     1      18.292   9.434  30.711  1.00  0.00     0.277 HD
BRANCH  14  17
HETATM   17  C4  UNL     1      18.437   8.465  28.910  1.00  0.00     0.235 C
BRANCH  17  18
HETATM   18  C3  UNL     1      19.752   9.297  28.894  1.00  0.00     0.054 C
BRANCH  18  19
HETATM   19  C2  UNL     1      20.643   8.714  29.959  1.00  0.00     0.168 C
BRANCH  19  20
HETATM   20  O1  UNL     1      20.394   7.367  30.164  1.00  0.00    -0.396 OA
HETATM   21  C1  UNL     1      21.039   6.968  31.326  1.00  0.00     0.201 C
ENDBRANCH  19  20
ENDBRANCH  18  19
ENDBRANCH  17  18
ENDBRANCH  14  17
ENDBRANCH  13  14
ENDBRANCH   1  13
BRANCH   4  22
HETATM   22  N3  UNL     1      17.805  13.482  30.057  1.00  0.00    -0.234 N
ATOM     23  H32 UNL     1      17.492  13.596  31.021  1.00  0.00     0.174 HD
ATOM     24  H31 UNL     1      18.569  14.002  29.626  1.00  0.00     0.174 HD
ENDBRANCH   4  22
BRANCH  11  25
HETATM   25  N8  UNL     1      13.379   9.080  27.970  1.00  0.00    -0.344 N
ATOM     26  H82 UNL     1      12.659   9.766  28.197  1.00  0.00     0.176 HD
ATOM     27  H81 UNL     1      12.906   8.313  27.493  1.00  0.00     0.176 HD
ENDBRANCH  11  25
BRANCH   7  28
HETATM   28  N5  UNL     1      16.314  12.765  25.965  1.00  0.00    -0.234 N
ATOM     29  H52 UNL     1      16.170  13.743  25.713  1.00  0.00     0.174 HD
ATOM     30  H51 UNL     1      16.593  12.061  25.283  1.00  0.00     0.174 HD
ENDBRANCH   7  28
TORSDOF 9
ENDMDL