MODEL 1
REMARK VINA RESULT: -7.624770099      0.000      0.000
REMARK  10 active torsions:
REMARK  status: ('A' for Active; 'I' for Inactive)
REMARK       I    between atoms: C1_4  and  N2_5
REMARK       I    between atoms: C1_4  and  N4_10
REMARK    1  A    between atoms: N2_5  and  N3_7
REMARK    2  A    between atoms: N4_10  and  C2_11
REMARK    3  A    between atoms: N4_10  and  C5_16
REMARK    4  A    between atoms: C2_11  and  C3_12
REMARK    5  A    between atoms: C3_12  and  C4_13
REMARK    6  A    between atoms: C4_13  and  O1_14
REMARK    7  A    between atoms: C5_16  and  C6_17
REMARK    8  A    between atoms: C6_17  and  C7_18
REMARK    9  A    between atoms: C7_18  and  N5_19
REMARK   10  A    between atoms: C8_24  and  N8_25
ROOT
HETATM    1  N1  UNL     1      14.742  10.905  29.917  1.00  0.00    -0.233 N
ATOM      2  H11 UNL     1      15.343  11.275  30.653  1.00  0.00     0.174 HD
ATOM      3  H12 UNL     1      13.816  10.538  30.133  1.00  0.00     0.174 HD
HETATM    4  C1  UNL     1      15.217  10.931  28.729  1.00  0.00     0.688 C
HETATM    5  N2  UNL     1      14.376  10.412  27.697  1.00  0.00    -0.139 N
ATOM      6  H2  UNL     1      14.336  10.897  26.801  1.00  0.00     0.205 HD
HETATM    7  N4  UNL     1      16.502  11.440  28.430  1.00  0.00    -0.217 N
ENDROOT
BRANCH   7   8
HETATM    8  C2  UNL     1      16.609  12.738  27.836  1.00  0.00     0.143 C
BRANCH   8   9
HETATM    9  C3  UNL     1      17.193  12.799  26.473  1.00  0.00     0.046 C
BRANCH   9  10
HETATM   10  C4  UNL     1      16.249  13.319  25.427  1.00  0.00     0.165 C
BRANCH  10  11
HETATM   11  O1  UNL     1      14.992  12.767  25.653  1.00  0.00    -0.401 OA
ATOM     12  H1  UNL     1      14.335  13.421  25.447  1.00  0.00     0.209 HD
ENDBRANCH  10  11
ENDBRANCH   9  10
ENDBRANCH   8   9
ENDBRANCH   7   8
BRANCH   7  13
HETATM   13  C5  UNL     1      17.669  10.674  28.699  1.00  0.00     0.143 C
BRANCH  13  14
HETATM   14  C6  UNL     1      17.442   9.240  29.008  1.00  0.00     0.044 C
BRANCH  14  15
HETATM   15  C7  UNL     1      17.841   8.959  30.417  1.00  0.00     0.173 C
BRANCH  15  16
HETATM   16  N5  UNL     1      19.130   8.405  30.626  1.00  0.00    -0.205 N
HETATM   17  N6  UNL     1      20.259   9.081  30.558  1.00  0.00    -0.211 N
HETATM   18  N7  UNL     1      21.284   8.314  30.796  1.00  0.00    -0.115 N
ATOM     19  H6  UNL     1      20.323  10.077  30.346  1.00  0.00     0.210 HD
HETATM   20  C8  UNL     1      20.809   7.080  31.031  1.00  0.00     0.707 A
ATOM     21  H7  UNL     1      22.264   8.597  30.804  1.00  0.00     0.207 HD
HETATM   22  N9  UNL     1      19.483   7.157  30.921  1.00  0.00    -0.113 N
ATOM     23  H9  UNL     1      18.838   6.376  31.044  1.00  0.00     0.207 HD
BRANCH  20  24
HETATM   24  N8  UNL     1      21.471   6.012  31.308  1.00  0.00    -0.232 N
ATOM     25  H82 UNL     1      22.465   5.977  31.533  1.00  0.00     0.174 HD
ATOM     26  H81 UNL     1      21.129   5.052  31.350  1.00  0.00     0.174 HD
ENDBRANCH  20  24
ENDBRANCH  15  16
ENDBRANCH  14  15
ENDBRANCH  13  14
ENDBRANCH   7  13
BRANCH   5  27
HETATM   27  N3  UNL     1      13.617   9.276  27.875  1.00  0.00    -0.331 N
ATOM     28  H32 UNL     1      13.653   8.814  28.784  1.00  0.00     0.177 HD
ATOM     29  H31 UNL     1      13.030   8.896  27.133  1.00  0.00     0.177 HD
ENDBRANCH   5  27
TORSDOF 10
ENDMDL