MODEL 2
REMARK VINA RESULT: -6.847754953      1.936      3.324
REMARK  9 active torsions:
REMARK  status: ('A' for Active; 'I' for Inactive)
REMARK    1  A    between atoms: N1_1  and  C1_4
REMARK    2  A    between atoms: C2_7  and  N3_8
REMARK    3  A    between atoms: N5_15  and  N6_16
REMARK    4  A    between atoms: N6_16  and  C5_18
REMARK    5  A    between atoms: C5_18  and  C6_19
REMARK    6  A    between atoms: C6_19  and  N7_20
REMARK    7  A    between atoms: N7_20  and  C7_22
REMARK    8  A    between atoms: C7_22  and  C8_23
REMARK    9  A    between atoms: C8_23  and  O1_24
ROOT
HETATM    1  C1  UNL     1      17.177  12.754  28.443  1.00  0.00     0.679 A
HETATM    2  N2  UNL     1      16.431  12.921  27.353  1.00  0.00    -0.175 N
ATOM      3  H2  UNL     1      16.615  13.710  26.734  1.00  0.00     0.186 HD
HETATM    4  C2  UNL     1      15.439  12.066  27.056  1.00  0.00     0.145 A
HETATM    5  C3  UNL     1      15.200  11.000  27.906  1.00  0.00     0.124 A
HETATM    6  N4  UNL     1      14.319  10.007  27.878  1.00  0.00    -0.345 N
ATOM      7  H4  UNL     1      13.609   9.858  27.161  1.00  0.00     0.167 HD
HETATM    8  C4  UNL     1      14.523   9.237  28.947  1.00  0.00     0.209 A
HETATM    9  N5  UNL     1      15.556   9.702  29.717  1.00  0.00    -0.233 N
HETATM   10  C9  UNL     1      15.968  10.799  29.059  1.00  0.00     0.174 A
HETATM   11  N8  UNL     1      16.944  11.713  29.272  1.00  0.00    -0.173 N
ATOM     12  H8  UNL     1      17.531  11.610  30.100  1.00  0.00     0.186 HD
ENDROOT
BRANCH   9  13
HETATM   13  N6  UNL     1      16.037   9.132  30.871  1.00  0.00    -0.305 N
ATOM     14  H6  UNL     1      15.333   9.061  31.607  1.00  0.00     0.186 HD
BRANCH  13  15
HETATM   15  C5  UNL     1      17.293   8.624  31.255  1.00  0.00     0.100 C
BRANCH  15  16
HETATM   16  C6  UNL     1      18.278   8.386  30.103  1.00  0.00     0.160 C
BRANCH  16  17
HETATM   17  N7  UNL     1      19.292   7.467  30.512  1.00  0.00    -0.415 N
ATOM     18  H7  UNL     1      19.071   6.518  30.812  1.00  0.00     0.153 HD
BRANCH  17  19
HETATM   19  C7  UNL     1      20.632   7.954  30.475  1.00  0.00     0.140 C
BRANCH  19  20
HETATM   20  C8  UNL     1      20.882   9.231  29.762  1.00  0.00     0.183 C
BRANCH  20  21
HETATM   21  O1  UNL     1      22.091   9.822  30.096  1.00  0.00    -0.399 OA
ATOM     22  H1  UNL     1      22.844   9.272  29.915  1.00  0.00     0.209 HD
ENDBRANCH  20  21
ENDBRANCH  19  20
ENDBRANCH  17  19
ENDBRANCH  16  17
ENDBRANCH  15  16
ENDBRANCH  13  15
ENDBRANCH   9  13
BRANCH   4  23
HETATM   23  N3  UNL     1      14.681  12.174  26.030  1.00  0.00    -0.383 N
ATOM     24  H32 UNL     1      13.747  12.556  26.180  1.00  0.00     0.157 HD
ATOM     25  H31 UNL     1      14.958  11.911  25.084  1.00  0.00     0.157 HD
ENDBRANCH   4  23
BRANCH   1  26
HETATM   26  N1  UNL     1      18.162  13.574  28.733  1.00  0.00    -0.234 N
ATOM     27  H12 UNL     1      17.990  14.578  28.675  1.00  0.00     0.174 HD
ATOM     28  H11 UNL     1      19.077  13.228  29.024  1.00  0.00     0.174 HD
ENDBRANCH   1  26
TORSDOF 9
ENDMDL