MODEL 3
REMARK VINA RESULT: -7.388348410      1.943      3.266
REMARK  10 active torsions:
REMARK  status: ('A' for Active; 'I' for Inactive)
REMARK    1  A    between atoms: N1_1  and  C1_4
REMARK    2  A    between atoms: C2_9  and  C3_10
REMARK    3  A    between atoms: C3_10  and  C4_11
REMARK    4  A    between atoms: C4_11  and  N4_12
REMARK    5  A    between atoms: N4_12  and  C5_13
REMARK    6  A    between atoms: N4_12  and  N5_17
REMARK    7  A    between atoms: C5_13  and  C6_14
REMARK    8  A    between atoms: C6_14  and  O1_15
REMARK       I    between atoms: C7_19  and  N7_21
REMARK    9  A    between atoms: N7_21  and  N8_23
REMARK   10  A    between atoms: N9_26  and  N10_27
ROOT
HETATM    1  C4  UNL     1      17.401   9.595  28.522  1.00  0.00     0.150 C
ENDROOT
BRANCH   1   2
HETATM    2  C3  UNL     1      18.895   9.800  28.667  1.00  0.00     0.102 C
BRANCH   2   3
HETATM    3  C2  UNL     1      19.426   8.748  29.578  1.00  0.00     0.137 A
HETATM    4  N3  UNL     1      18.797   7.614  29.944  1.00  0.00    -0.273 N
HETATM    5  N2  UNL     1      19.527   6.891  30.755  1.00  0.00    -0.129 N
ATOM      6  H3  UNL     1      17.865   7.350  29.626  1.00  0.00     0.189 HD
HETATM    7  C1  UNL     1      20.668   7.572  30.925  1.00  0.00     0.712 A
ATOM      8  H2  UNL     1      19.279   5.994  31.172  1.00  0.00     0.205 HD
HETATM    9  N9  UNL     1      20.614   8.709  30.209  1.00  0.00    -0.078 N
BRANCH   7  10
HETATM   10  N1  UNL     1      21.666   7.204  31.658  1.00  0.00    -0.232 N
ATOM     11  H12 UNL     1      21.591   6.832  32.604  1.00  0.00     0.174 HD
ATOM     12  H11 UNL     1      22.650   7.239  31.388  1.00  0.00     0.174 HD
ENDBRANCH   7  10
BRANCH   9  13
HETATM   13  N10 UNL     1      21.575   9.698  30.100  1.00  0.00    -0.323 N
ATOM     14 2H10 UNL     1      21.858  10.300  30.873  1.00  0.00     0.178 HD
ATOM     15 1H10 UNL     1      22.118   9.963  29.278  1.00  0.00     0.178 HD
ENDBRANCH   9  13
ENDBRANCH   2   3
ENDBRANCH   1   2
BRANCH   1  16
HETATM   16  N4  UNL     1      16.710  10.786  28.130  1.00  0.00    -0.323 N
BRANCH  16  17
HETATM   17  C5  UNL     1      15.284  10.735  27.852  1.00  0.00     0.168 C
BRANCH  17  18
HETATM   18  C6  UNL     1      14.704   9.480  28.481  1.00  0.00     0.185 C
BRANCH  18  19
HETATM   19  O1  UNL     1      13.560   9.075  27.789  1.00  0.00    -0.399 OA
ATOM     20  H1  UNL     1      13.018   8.525  28.341  1.00  0.00     0.209 HD
ENDBRANCH  18  19
ENDBRANCH  17  18
ENDBRANCH  16  17
BRANCH  16  21
HETATM   21  N5  UNL     1      17.438  11.976  28.026  1.00  0.00    -0.275 N
HETATM   22  C7  UNL     1      17.518  12.853  28.954  1.00  0.00     0.221 C
HETATM   23  N6  UNL     1      16.854  12.693  30.224  1.00  0.00    -0.061 NA
HETATM   24  N7  UNL     1      18.268  14.035  28.784  1.00  0.00    -0.279 N
ATOM     25  H7  UNL     1      18.190  14.565  27.917  1.00  0.00     0.189 HD
ATOM     26  H5  UNL     1      17.936  12.156  27.154  1.00  0.00     0.189 HD
BRANCH  24  27
HETATM   27  N8  UNL     1      19.113  14.481  29.792  1.00  0.00    -0.343 N
ATOM     28  H82 UNL     1      19.373  13.836  30.537  1.00  0.00     0.176 HD
ATOM     29  H81 UNL     1      19.465  15.438  29.784  1.00  0.00     0.176 HD
ENDBRANCH  24  27
ENDBRANCH  16  21
ENDBRANCH   1  16
TORSDOF 10
ENDMDL