MODEL 4
REMARK VINA RESULT: -6.324013874      2.708      5.144
REMARK  9 active torsions:
REMARK  status: ('A' for Active; 'I' for Inactive)
REMARK    1  A    between atoms: C1_4  and  N2_5
REMARK    2  A    between atoms: N2_5  and  C2_7
REMARK    3  A    between atoms: C3_9  and  C4_10
REMARK    4  A    between atoms: C4_10  and  S1_11
REMARK    5  A    between atoms: S1_11  and  C5_12
REMARK    6  A    between atoms: C5_12  and  C6_13
REMARK    7  A    between atoms: C6_13  and  N3_14
REMARK    8  A    between atoms: C7_21  and  O2_22
REMARK    9  A    between atoms: C8_24  and  O3_25
ROOT
HETATM    1  C2  UNL     1      18.445   8.741  29.493  1.00  0.00     0.257 C
HETATM    2  O1  UNL     1      17.782   9.895  29.129  1.00  0.00    -0.331 OA
HETATM    3  C3  UNL     1      18.470  10.463  28.071  1.00  0.00     0.335 C
HETATM    4  N4  UNL     1      19.656  11.080  28.603  1.00  0.00    -0.019 N
ATOM      5  H41 UNL     1      19.410  11.886  29.177  1.00  0.00     0.283 HD
ATOM      6  H42 UNL     1      20.178  11.546  27.861  1.00  0.00     0.283 HD
HETATM    7  C7  UNL     1      20.508  10.192  29.329  1.00  0.00     0.355 C
HETATM    8  C8  UNL     1      19.915   8.877  29.675  1.00  0.00     0.223 C
ENDROOT
BRANCH   3   9
HETATM    9  C4  UNL     1      17.628  11.561  27.449  1.00  0.00     0.135 C
BRANCH   9  10
HETATM   10  S1  UNL     1      16.131  11.875  28.424  1.00  0.00    -0.163 SA
BRANCH  10  11
HETATM   11  C5  UNL     1      14.753  11.024  27.619  1.00  0.00     0.101 C
BRANCH  11  12
HETATM   12  C6  UNL     1      14.769   9.533  27.937  1.00  0.00     0.239 C
BRANCH  12  13
HETATM   13  N3  UNL     1      13.765   9.287  28.956  1.00  0.00    -0.079 N
ATOM     14  H33 UNL     1      14.157   8.891  29.810  1.00  0.00     0.274 HD
ATOM     15  H32 UNL     1      13.396  10.146  29.364  1.00  0.00     0.274 HD
ATOM     16  H31 UNL     1      13.040   8.700  28.543  1.00  0.00     0.274 HD
ENDBRANCH  12  13
ENDBRANCH  11  12
ENDBRANCH  10  11
ENDBRANCH   9  10
ENDBRANCH   3   9
BRANCH   1  17
HETATM   17  N2  UNL     1      17.843   8.180  30.696  1.00  0.00    -0.358 N
ATOM     18  H2  UNL     1      18.395   7.543  31.270  1.00  0.00     0.162 HD
BRANCH  17  19
HETATM   19  C1  UNL     1      16.515   8.486  31.100  1.00  0.00     0.170 C
HETATM   20  N1  UNL     1      16.208   9.699  31.460  1.00  0.00    -0.395 N
ATOM     21  H12 UNL     1      16.932  10.417  31.447  1.00  0.00     0.156 HD
ATOM     22  H11 UNL     1      15.255   9.919  31.751  1.00  0.00     0.156 HD
ENDBRANCH  17  19
ENDBRANCH   1  17
BRANCH   7  23
HETATM   23  O2  UNL     1      21.002  10.858  30.452  1.00  0.00    -0.368 OA
ATOM     24  H2  UNL     1      20.352  10.816  31.144  1.00  0.00     0.212 HD
ENDBRANCH   7  23
BRANCH   8  25
HETATM   25  O3  UNL     1      20.250   8.609  31.024  1.00  0.00    -0.387 OA
ATOM     26  H3  UNL     1      20.514   7.700  31.109  1.00  0.00     0.210 HD
ENDBRANCH   8  25
TORSDOF 9
ENDMDL