MODEL 4
REMARK VINA RESULT: -6.596576968      3.845      5.966
REMARK  12 active torsions:
REMARK  status: ('A' for Active; 'I' for Inactive)
REMARK    1  A    between atoms: N1_1  and  C1_4
REMARK    2  A    between atoms: C2_7  and  C3_8
REMARK    3  A    between atoms: C3_8  and  N3_9
REMARK    4  A    between atoms: C3_8  and  N4_13
REMARK    5  A    between atoms: N6_19  and  C4_20
REMARK    6  A    between atoms: C4_20  and  C5_21
REMARK    7  A    between atoms: C5_21  and  C6_22
REMARK    8  A    between atoms: C6_22  and  C7_23
REMARK    9  A    between atoms: C7_23  and  C8_24
REMARK   10  A    between atoms: C8_24  and  O1_25
REMARK   11  A    between atoms: C9_27  and  N7_28
REMARK   12  A    between atoms: N7_28  and  N8_30
ROOT
HETATM    1  C1  UNL     1      17.170   8.799  30.598  1.00  0.00     0.148 A
HETATM    2  N2  UNL     1      18.452   8.415  30.565  1.00  0.00    -0.325 N
ATOM      3  H2  UNL     1      18.765   7.589  31.073  1.00  0.00     0.169 HD
HETATM    4  C2  UNL     1      19.313   9.153  29.843  1.00  0.00     0.156 A
HETATM    5  N5  UNL     1      18.904  10.258  29.163  1.00  0.00    -0.282 N
ATOM      6  H5  UNL     1      19.589  10.791  28.626  1.00  0.00     0.188 HD
HETATM    7  N6  UNL     1      17.647  10.660  29.176  1.00  0.00    -0.271 N
HETATM    8  C9  UNL     1      16.785   9.925  29.897  1.00  0.00     0.181 A
ENDROOT
BRANCH   4   9
HETATM    9  C3  UNL     1      20.753   8.766  29.774  1.00  0.00     0.446 C
BRANCH   9  10
HETATM   10  N3  UNL     1      21.056   7.632  30.607  1.00  0.00    -0.043 N
ATOM     11  H33 UNL     1      21.790   7.058  30.194  1.00  0.00     0.277 HD
ATOM     12  H32 UNL     1      21.533   7.919  31.461  1.00  0.00     0.277 HD
ATOM     13  H31 UNL     1      20.227   7.074  30.817  1.00  0.00     0.277 HD
ENDBRANCH   9  10
BRANCH   9  14
HETATM   14  N4  UNL     1      21.544   9.913  30.197  1.00  0.00    -0.043 N
ATOM     15  H43 UNL     1      22.508   9.873  29.868  1.00  0.00     0.277 HD
ATOM     16  H42 UNL     1      21.275  10.775  29.723  1.00  0.00     0.277 HD
ATOM     17  H41 UNL     1      21.476   9.983  31.213  1.00  0.00     0.277 HD
ENDBRANCH   9  14
ENDBRANCH   4   9
BRANCH   1  18
HETATM   18  N1  UNL     1      16.310   8.122  31.277  1.00  0.00    -0.382 N
ATOM     19  H12 UNL     1      16.295   7.103  31.229  1.00  0.00     0.157 HD
ATOM     20  H11 UNL     1      15.635   8.603  31.872  1.00  0.00     0.157 HD
ENDBRANCH   1  18
BRANCH   7  21
HETATM   21  C4  UNL     1      17.202  11.809  28.473  1.00  0.00     0.151 C
BRANCH  21  22
HETATM   22  C5  UNL     1      17.491  11.779  26.991  1.00  0.00     0.022 C
BRANCH  22  23
HETATM   23  C6  UNL     1      17.243  13.181  26.487  1.00  0.00     0.004 C
BRANCH  23  24
HETATM   24  C7  UNL     1      16.091  13.299  25.537  1.00  0.00     0.026 C
BRANCH  24  25
HETATM   25  C8  UNL     1      16.236  14.552  24.731  1.00  0.00     0.164 C
BRANCH  25  26
HETATM   26  O1  UNL     1      15.061  15.318  24.781  1.00  0.00    -0.401 OA
ATOM     27  H1  UNL     1      14.670  15.395  23.919  1.00  0.00     0.209 HD
ENDBRANCH  25  26
ENDBRANCH  24  25
ENDBRANCH  23  24
ENDBRANCH  22  23
ENDBRANCH  21  22
ENDBRANCH   7  21
BRANCH   8  28
HETATM   28  N7  UNL     1      15.565  10.275  29.940  1.00  0.00    -0.288 N
ATOM     29  H7  UNL     1      15.348  11.086  30.519  1.00  0.00     0.188 HD
BRANCH  28  30
HETATM   30  N8  UNL     1      14.506   9.687  29.296  1.00  0.00    -0.343 N
ATOM     31  H82 UNL     1      14.646   9.513  28.301  1.00  0.00     0.176 HD
ATOM     32  H81 UNL     1      13.611   9.412  29.699  1.00  0.00     0.176 HD
ENDBRANCH  28  30
ENDBRANCH   8  28
TORSDOF 12
ENDMDL