MODEL 4
REMARK VINA RESULT: -6.678327761      1.619      3.519
REMARK  9 active torsions:
REMARK  status: ('A' for Active; 'I' for Inactive)
REMARK    1  A    between atoms: N1_1  and  C1_4
REMARK    2  A    between atoms: C2_7  and  N3_8
REMARK    3  A    between atoms: N6_16  and  C4_17
REMARK    4  A    between atoms: C4_17  and  C5_18
REMARK    5  A    between atoms: C5_18  and  C6_19
REMARK    6  A    between atoms: C6_19  and  N7_20
REMARK    7  A    between atoms: N7_20  and  C7_22
REMARK    8  A    between atoms: C7_22  and  C8_23
REMARK    9  A    between atoms: C8_23  and  O1_24
ROOT
HETATM    1  C1  UNL     1      16.034   9.033  30.308  1.00  0.00     0.679 A
HETATM    2  N2  UNL     1      14.917   8.707  29.641  1.00  0.00    -0.175 N
ATOM      3  H2  UNL     1      14.370   7.889  29.910  1.00  0.00     0.186 HD
HETATM    4  C2  UNL     1      14.531   9.490  28.603  1.00  0.00     0.147 A
HETATM    5  C3  UNL     1      15.305  10.598  28.267  1.00  0.00     0.140 A
HETATM    6  N4  UNL     1      15.175  11.545  27.297  1.00  0.00    -0.279 N
ATOM      7  H4  UNL     1      14.428  11.599  26.604  1.00  0.00     0.189 HD
HETATM    8  N5  UNL     1      16.198  12.389  27.416  1.00  0.00    -0.238 N
ATOM      9  H5  UNL     1      16.356  13.199  26.818  1.00  0.00     0.208 HD
HETATM   10  N6  UNL     1      16.975  12.031  28.410  1.00  0.00    -0.260 N
HETATM   11  C9  UNL     1      16.454  10.923  28.963  1.00  0.00     0.171 A
HETATM   12  N8  UNL     1      16.785  10.097  29.994  1.00  0.00    -0.173 N
ATOM     13  H8  UNL     1      17.623  10.293  30.540  1.00  0.00     0.186 HD
ENDROOT
BRANCH  10  14
HETATM   14  C4  UNL     1      18.156  12.665  28.876  1.00  0.00     0.154 C
BRANCH  14  15
HETATM   15  C5  UNL     1      19.403  12.168  28.126  1.00  0.00     0.041 C
BRANCH  15  16
HETATM   16  C6  UNL     1      20.160  11.297  29.124  1.00  0.00     0.115 C
BRANCH  16  17
HETATM   17  N7  UNL     1      19.986   9.917  28.885  1.00  0.00    -0.419 N
ATOM     18  H7  UNL     1      19.410   9.569  28.118  1.00  0.00     0.153 HD
BRANCH  17  19
HETATM   19  C7  UNL     1      20.658   9.049  29.770  1.00  0.00     0.139 C
BRANCH  19  20
HETATM   20  C8  UNL     1      19.864   8.175  30.667  1.00  0.00     0.183 C
BRANCH  20  21
HETATM   21  O1  UNL     1      19.235   8.878  31.685  1.00  0.00    -0.399 OA
ATOM     22  H1  UNL     1      19.037   8.336  32.440  1.00  0.00     0.209 HD
ENDBRANCH  20  21
ENDBRANCH  19  20
ENDBRANCH  17  19
ENDBRANCH  16  17
ENDBRANCH  15  16
ENDBRANCH  14  15
ENDBRANCH  10  14
BRANCH   4  23
HETATM   23  N3  UNL     1      13.461   9.219  27.937  1.00  0.00    -0.383 N
ATOM     24  H32 UNL     1      13.269   9.694  27.056  1.00  0.00     0.157 HD
ATOM     25  H31 UNL     1      12.793   8.531  28.285  1.00  0.00     0.157 HD
ENDBRANCH   4  23
BRANCH   1  26
HETATM   26  N1  UNL     1      16.355   8.238  31.306  1.00  0.00    -0.234 N
ATOM     27  H12 UNL     1      17.329   8.040  31.537  1.00  0.00     0.174 HD
ATOM     28  H11 UNL     1      15.570   7.843  31.824  1.00  0.00     0.174 HD
ENDBRANCH   1  26
TORSDOF 9
ENDMDL