MODEL 3
REMARK VINA RESULT: -6.483364633      1.527      2.401
REMARK  11 active torsions:
REMARK  status: ('A' for Active; 'I' for Inactive)
REMARK    1  A    between atoms: N1_1  and  C1_4
REMARK    2  A    between atoms: C2_9  and  C3_10
REMARK    3  A    between atoms: C3_10  and  N4_11
REMARK    4  A    between atoms: N4_11  and  C4_12
REMARK    5  A    between atoms: N4_11  and  C6_16
REMARK    6  A    between atoms: C4_12  and  C5_13
REMARK    7  A    between atoms: C5_13  and  O1_14
REMARK    8  A    between atoms: C6_16  and  C7_17
REMARK    9  A    between atoms: C7_17  and  O2_18
REMARK   10  A    between atoms: C8_20  and  N5_21
REMARK   11  A    between atoms: N5_21  and  N6_23
ROOT
HETATM    1  C1  UNL     1      20.677   7.882  30.740  1.00  0.00     0.692 A
HETATM    2  N2  UNL     1      21.123   8.955  30.172  1.00  0.00    -0.132 N
ATOM      3  H2  UNL     1      22.094   9.241  30.294  1.00  0.00     0.205 HD
HETATM    4  N3  UNL     1      20.270   9.699  29.408  1.00  0.00    -0.281 N
ATOM      5  H3  UNL     1      20.645  10.546  28.979  1.00  0.00     0.187 HD
HETATM    6  C2  UNL     1      19.040   9.424  29.185  1.00  0.00     0.109 A
HETATM    7  C8  UNL     1      18.560   8.191  29.812  1.00  0.00     0.164 A
HETATM    8  N7  UNL     1      19.398   7.507  30.545  1.00  0.00    -0.172 N
ATOM      9  H7  UNL     1      19.069   6.651  30.990  1.00  0.00     0.186 HD
ENDROOT
BRANCH   6  10
HETATM   10  C3  UNL     1      18.065   9.884  28.190  1.00  0.00     0.120 C
BRANCH  10  11
HETATM   11  N4  UNL     1      17.470  11.121  28.286  1.00  0.00    -0.384 N
BRANCH  11  12
HETATM   12  C4  UNL     1      16.735  11.402  29.461  1.00  0.00     0.148 C
BRANCH  12  13
HETATM   13  C5  UNL     1      15.260  11.273  29.320  1.00  0.00     0.183 C
BRANCH  13  14
HETATM   14  O1  UNL     1      14.768  10.110  29.938  1.00  0.00    -0.399 OA
ATOM     15  H1  UNL     1      14.736  10.193  30.884  1.00  0.00     0.209 HD
ENDBRANCH  13  14
ENDBRANCH  12  13
ENDBRANCH  11  12
BRANCH  11  16
HETATM   16  C6  UNL     1      18.278  12.184  27.818  1.00  0.00     0.148 C
BRANCH  16  17
HETATM   17  C7  UNL     1      17.604  13.085  26.790  1.00  0.00     0.183 C
BRANCH  17  18
HETATM   18  O2  UNL     1      17.228  12.361  25.656  1.00  0.00    -0.399 OA
ATOM     19  H2  UNL     1      16.507  11.773  25.849  1.00  0.00     0.209 HD
ENDBRANCH  17  18
ENDBRANCH  16  17
ENDBRANCH  11  16
ENDBRANCH  10  11
ENDBRANCH   6  10
BRANCH   7  20
HETATM   20  N5  UNL     1      17.291   7.983  29.779  1.00  0.00    -0.290 N
ATOM     21  H5  UNL     1      16.733   7.738  28.961  1.00  0.00     0.188 HD
BRANCH  20  22
HETATM   22  N6  UNL     1      16.793   8.170  31.178  1.00  0.00    -0.344 N
ATOM     23  H62 UNL     1      16.160   7.546  31.678  1.00  0.00     0.176 HD
ATOM     24  H61 UNL     1      17.211   9.035  31.521  1.00  0.00     0.176 HD
ENDBRANCH  20  22
ENDBRANCH   7  20
BRANCH   1  25
HETATM   25  N1  UNL     1      21.384   7.053  31.445  1.00  0.00    -0.233 N
ATOM     26  H12 UNL     1      22.267   6.775  31.018  1.00  0.00     0.174 HD
ATOM     27  H11 UNL     1      21.152   6.726  32.383  1.00  0.00     0.174 HD
ENDBRANCH   1  25
TORSDOF 11
ENDMDL