MODEL 3
REMARK VINA RESULT: -6.787223207      2.406      3.611
REMARK  11 active torsions:
REMARK  status: ('A' for Active; 'I' for Inactive)
REMARK    1  A    between atoms: N1_1  and  C1_5
REMARK    2  A    between atoms: C1_5  and  C2_6
REMARK    3  A    between atoms: C2_6  and  C3_7
REMARK    4  A    between atoms: C3_7  and  C4_8
REMARK    5  A    between atoms: C4_8  and  C5_9
REMARK    6  A    between atoms: C5_9  and  N2_10
REMARK    7  A    between atoms: N2_10  and  C6_12
REMARK    8  A    between atoms: C7_17  and  C8_18
REMARK    9  A    between atoms: N6_20  and  O1_22
REMARK   10  A    between atoms: N7_24  and  N8_25
REMARK   11  A    between atoms: N8_25  and  N9_27
ROOT
HETATM    1  C6  UNL     1      16.141  10.733  30.235  1.00  0.00     0.717 A
HETATM    2  N3  UNL     1      16.518  12.012  30.275  1.00  0.00    -0.129 N
ATOM      3  H3  UNL     1      17.000  12.469  31.049  1.00  0.00     0.205 HD
HETATM    4  N4  UNL     1      16.160  12.581  29.141  1.00  0.00    -0.266 N
ATOM      5  H4  UNL     1      16.323  13.558  28.898  1.00  0.00     0.189 HD
HETATM    6  C7  UNL     1      15.541  11.670  28.345  1.00  0.00     0.205 A
HETATM    7  N7  UNL     1      15.543  10.525  29.054  1.00  0.00    -0.050 N
ENDROOT
BRANCH   1   8
HETATM    8  N2  UNL     1      16.312   9.869  31.143  1.00  0.00    -0.223 N
ATOM      9  H2  UNL     1      15.914  10.065  32.062  1.00  0.00     0.177 HD
BRANCH   8  10
HETATM   10  C5  UNL     1      17.030   8.624  30.976  1.00  0.00     0.138 C
BRANCH  10  11
HETATM   11  C4  UNL     1      18.471   8.755  31.410  1.00  0.00     0.020 C
BRANCH  11  12
HETATM   12  C3  UNL     1      19.396   9.001  30.264  1.00  0.00     0.003 C
BRANCH  12  13
HETATM   13  C2  UNL     1      20.556   8.062  30.304  1.00  0.00     0.027 C
BRANCH  13  14
HETATM   14  C1  UNL     1      20.355   7.021  31.396  1.00  0.00     0.229 C
BRANCH  14  15
HETATM   15  N1  UNL     1      21.423   6.054  31.327  1.00  0.00    -0.079 N
ATOM     16  H13 UNL     1      22.264   6.436  30.894  1.00  0.00     0.274 HD
ATOM     17  H12 UNL     1      21.816   5.844  32.245  1.00  0.00     0.274 HD
ATOM     18  H11 UNL     1      21.086   5.218  30.849  1.00  0.00     0.274 HD
ENDBRANCH  14  15
ENDBRANCH  13  14
ENDBRANCH  12  13
ENDBRANCH  11  12
ENDBRANCH  10  11
ENDBRANCH   8  10
ENDBRANCH   1   8
BRANCH   7  19
HETATM   19  N8  UNL     1      14.986   9.343  28.559  1.00  0.00    -0.226 N
ATOM     20  H8  UNL     1      15.553   8.737  27.965  1.00  0.00     0.209 HD
BRANCH  19  21
HETATM   21  N9  UNL     1      13.679   8.972  28.856  1.00  0.00    -0.330 N
ATOM     22  H92 UNL     1      12.970   9.703  28.904  1.00  0.00     0.178 HD
ATOM     23  H91 UNL     1      13.425   7.999  29.025  1.00  0.00     0.178 HD
ENDBRANCH  19  21
ENDBRANCH   7  19
BRANCH   6  24
HETATM   24  C8  UNL     1      14.994  11.878  27.018  1.00  0.00     0.184 C
HETATM   25  N5  UNL     1      13.878  11.132  26.556  1.00  0.00    -0.077 NA
HETATM   26  N6  UNL     1      15.536  12.759  26.255  1.00  0.00    -0.252 N
ATOM     27  H6  UNL     1      16.336  13.296  26.586  1.00  0.00     0.195 HD
BRANCH  26  28
HETATM   28  O1  UNL     1      15.032  12.980  24.978  1.00  0.00    -0.288 OA
ATOM     29  H1  UNL     1      15.553  12.757  24.215  1.00  0.00     0.244 HD
ENDBRANCH  26  28
ENDBRANCH   6  24
TORSDOF 11
ENDMDL