MODEL 4
REMARK VINA RESULT: -10.521449910      1.713      1.957
REMARK  13 active torsions:
REMARK  status: ('A' for Active; 'I' for Inactive)
REMARK    1  A    between atoms: N1_1  and  C1_4
REMARK    2  A    between atoms: C2_7  and  N3_8
REMARK    3  A    between atoms: N3_8  and  C3_10
REMARK    4  A    between atoms: C3_10  and  C4_11
REMARK    5  A    between atoms: C4_11  and  O1_12
REMARK    6  A    between atoms: C6_15  and  O2_16
REMARK    7  A    between atoms: C7_18  and  O3_19
REMARK    8  A    between atoms: O3_19  and  S1_20
REMARK    9  A    between atoms: S1_20  and  N4_21
REMARK   10  A    between atoms: C9_30  and  C10_31
REMARK       I    between atoms: C10_31  and  N7_33
REMARK   11  A    between atoms: N7_33  and  C11_34
REMARK   12  A    between atoms: C11_34  and  C12_35
REMARK   13  A    between atoms: C12_35  and  C13_36
ROOT
HETATM    1  C1  UNL     1      24.273  46.800  66.003  1.00  0.00     0.162 A
HETATM    2  N2  UNL     1      25.262  46.679  65.073  1.00  0.00    -0.172 N
ATOM      3  H2  UNL     1      25.355  45.792  64.578  1.00  0.00     0.186 HD
HETATM    4  C2  UNL     1      26.125  47.674  64.775  1.00  0.00     0.695 A
HETATM    5  N5  UNL     1      26.021  48.845  65.414  1.00  0.00    -0.122 N
ATOM      6  H5  UNL     1      26.669  49.602  65.194  1.00  0.00     0.206 HD
HETATM    7  N6  UNL     1      25.095  49.024  66.317  1.00  0.00    -0.197 N
HETATM    8  C9  UNL     1      24.832  50.111  67.100  1.00  0.00     0.228 A
HETATM    9  N9  UNL     1      23.805  49.764  67.866  1.00  0.00    -0.277 N
ATOM     10  H9  UNL     1      23.369  50.368  68.564  1.00  0.00     0.189 HD
HETATM   11  N10 UNL     1      23.427  48.526  67.599  1.00  0.00    -0.279 N
ATOM     12  H10 UNL     1      22.664  48.018  68.047  1.00  0.00     0.189 HD
HETATM   13  C16 UNL     1      24.225  48.062  66.637  1.00  0.00     0.189 A
ENDROOT
BRANCH   4  14
HETATM   14  N3  UNL     1      27.126  47.415  63.791  1.00  0.00    -0.222 N
ATOM     15  H3  UNL     1      27.893  46.787  64.030  1.00  0.00     0.177 HD
BRANCH  14  16
HETATM   16  C3  UNL     1      27.101  48.000  62.485  1.00  0.00     0.176 C
BRANCH  16  17
HETATM   17  C4  UNL     1      27.745  47.009  61.536  1.00  0.00     0.079 C
HETATM   18  C5  UNL     1      28.963  47.551  60.876  1.00  0.00     0.074 C
HETATM   19  C6  UNL     1      29.108  46.735  59.579  1.00  0.00     0.151 C
HETATM   20  C7  UNL     1      27.907  45.808  59.580  1.00  0.00     0.175 C
HETATM   21  C8  UNL     1      26.872  46.690  60.307  1.00  0.00     0.075 C
BRANCH  17  22
HETATM   22  O1  UNL     1      27.988  45.798  62.120  1.00  0.00    -0.388 OA
ATOM     23  H1  UNL     1      28.886  45.705  62.415  1.00  0.00     0.210 HD
ENDBRANCH  17  22
BRANCH  19  24
HETATM   24  O2  UNL     1      30.272  45.969  59.654  1.00  0.00    -0.393 OA
ATOM     25  H2  UNL     1      30.993  46.466  59.286  1.00  0.00     0.210 HD
ENDBRANCH  19  24
BRANCH  20  26
HETATM   26  O3  UNL     1      27.510  45.373  58.355  1.00  0.00    -0.252 OA
BRANCH  26  27
HETATM   27  S1  UNL     1      27.684  43.673  58.343  1.00  0.00     0.356 S
HETATM   28  O4  UNL     1      28.911  43.279  59.122  1.00  0.00    -0.176 OA
HETATM   29  O5  UNL     1      26.504  43.061  59.040  1.00  0.00    -0.176 OA
BRANCH  27  30
HETATM   30  N4  UNL     1      27.738  43.150  56.712  1.00  0.00    -0.306 N
ATOM     31  H42 UNL     1      27.615  42.187  56.401  1.00  0.00     0.171 HD
ATOM     32  H41 UNL     1      27.912  43.964  56.122  1.00  0.00     0.171 HD
ENDBRANCH  27  30
ENDBRANCH  26  27
ENDBRANCH  20  26
ENDBRANCH  16  17
ENDBRANCH  14  16
ENDBRANCH   4  14
BRANCH   1  33
HETATM   33  N1  UNL     1      23.516  45.901  66.232  1.00  0.00    -0.382 N
ATOM     34  H12 UNL     1      23.463  45.409  67.124  1.00  0.00     0.157 HD
ATOM     35  H11 UNL     1      22.853  45.570  65.531  1.00  0.00     0.157 HD
ENDBRANCH   1  33
BRANCH   8  36
HETATM   36  C10 UNL     1      25.539  51.436  67.053  1.00  0.00     0.362 C
HETATM   37  O6  UNL     1      26.692  51.323  66.494  1.00  0.00    -0.247 OA
HETATM   38  N7  UNL     1      24.969  52.542  67.550  1.00  0.00    -0.381 NA
BRANCH  38  39
HETATM   39  C11 UNL     1      24.376  53.692  68.066  1.00  0.00     0.166 C
BRANCH  39  40
HETATM   40  C12 UNL     1      22.880  53.791  67.875  1.00  0.00     0.127 C
BRANCH  40  41
HETATM   41  C13 UNL     1      22.451  54.951  67.100  1.00  0.00     0.085 A
HETATM   42  C14 UNL     1      21.404  55.141  66.226  1.00  0.00     0.074 A
HETATM   43  C15 UNL     1      21.497  56.470  65.779  1.00  0.00     0.103 A
HETATM   44 BR1  UNL     1      20.335  57.354  64.563  1.00  0.00    -0.029 Br
HETATM   45  N8  UNL     1      22.563  56.976  66.395  1.00  0.00    -0.254 N
HETATM   46  O7  UNL     1      23.111  56.100  67.155  1.00  0.00    -0.241 OA
ATOM     47  H8  UNL     1      22.898  57.932  66.278  1.00  0.00     0.195 HD
ENDBRANCH  40  41
ENDBRANCH  39  40
ENDBRANCH  38  39
ENDBRANCH   8  36
TORSDOF 13
ENDMDL