MODEL 2
REMARK VINA RESULT: -10.136137180      0.742      1.117
REMARK  11 active torsions:
REMARK  status: ('A' for Active; 'I' for Inactive)
REMARK    1  A    between atoms: C2_2  and  O1_3
REMARK    2  A    between atoms: C2_2  and  C3_5
REMARK    3  A    between atoms: C2_2  and  C4_8
REMARK    4  A    between atoms: C3_5  and  O2_6
REMARK    5  A    between atoms: C4_8  and  N1_9
REMARK       I    between atoms: C5_11  and  N2_12
REMARK       I    between atoms: C5_11  and  N4_20
REMARK    6  A    between atoms: N2_12  and  N3_14
REMARK    7  A    between atoms: N3_14  and  S1_16
REMARK    8  A    between atoms: N4_20  and  C7_22
REMARK    9  A    between atoms: N5_26  and  C10_27
REMARK   10  A    between atoms: N6_33  and  N7_34
REMARK       I    between atoms: N7_34  and  C13_36
REMARK   11  A    between atoms: C13_36  and  C14_38
ROOT
HETATM    1  C7  UNL     1      24.133  50.596  65.182  1.00  0.00     0.083 A
HETATM    2  C8  UNL     1      23.739  50.219  66.433  1.00  0.00     0.107 A
HETATM    3  C9  UNL     1      24.242  49.077  66.939  1.00  0.00     0.258 A
HETATM    4  O5  UNL     1      23.879  48.714  68.110  1.00  0.00    -0.267 OA
HETATM    5  N5  UNL     1      25.132  48.226  66.319  1.00  0.00    -0.222 N
HETATM    6  C11 UNL     1      25.520  48.604  65.081  1.00  0.00     0.146 A
HETATM    7  C12 UNL     1      26.407  47.849  64.342  1.00  0.00     0.297 A
HETATM    8  O6  UNL     1      26.829  46.811  64.870  1.00  0.00    -0.264 OA
HETATM    9  N6  UNL     1      26.802  48.217  63.099  1.00  0.00    -0.211 N
HETATM   10  C16 UNL     1      26.281  49.382  62.599  1.00  0.00     0.211 A
HETATM   11  N11 UNL     1      25.423  50.146  63.271  1.00  0.00    -0.347 N
ATOM     12  H11 UNL     1      25.067  51.004  62.849  1.00  0.00     0.167 HD
HETATM   13  C17 UNL     1      25.023  49.788  64.512  1.00  0.00     0.094 A
ENDROOT
BRANCH   1  14
HETATM   14  N4  UNL     1      23.637  51.785  64.604  1.00  0.00    -0.188 N
HETATM   15  C5  UNL     1      22.719  52.656  65.294  1.00  0.00     0.693 C
HETATM   16  N1  UNL     1      21.457  52.414  65.310  1.00  0.00    -0.222 N
HETATM   17  N2  UNL     1      23.186  53.810  65.974  1.00  0.00    -0.123 N
ATOM     18  H1  UNL     1      21.108  51.587  64.824  1.00  0.00     0.177 HD
ATOM     19  H2  UNL     1      23.743  54.496  65.463  1.00  0.00     0.206 HD
ATOM     20  H4  UNL     1      23.939  52.036  63.663  1.00  0.00     0.184 HD
BRANCH  16  21
HETATM   21  C4  UNL     1      20.526  53.259  65.983  1.00  0.00     0.177 C
BRANCH  21  22
HETATM   22  C2  UNL     1      19.176  53.283  65.295  1.00  0.00     0.091 C
HETATM   23  C1  UNL     1      19.282  52.747  63.885  1.00  0.00     0.050 C
BRANCH  22  24
HETATM   24  O1  UNL     1      18.680  54.590  65.216  1.00  0.00    -0.386 OA
ATOM     25  H1  UNL     1      18.674  54.949  66.095  1.00  0.00     0.210 HD
ENDBRANCH  22  24
BRANCH  22  26
HETATM   26  C3  UNL     1      18.225  52.401  66.077  1.00  0.00     0.203 C
BRANCH  26  27
HETATM   27  O2  UNL     1      18.847  51.239  66.499  1.00  0.00    -0.398 OA
ATOM     28  H2  UNL     1      18.957  50.626  65.782  1.00  0.00     0.209 HD
ENDBRANCH  26  27
ENDBRANCH  22  26
ENDBRANCH  21  22
ENDBRANCH  16  21
BRANCH  17  29
HETATM   29  N3  UNL     1      22.908  54.035  67.321  1.00  0.00    -0.213 N
ATOM     30  H3  UNL     1      21.986  54.293  67.672  1.00  0.00     0.200 HD
BRANCH  29  31
HETATM   31  S1  UNL     1      24.294  53.830  68.332  1.00  0.00     0.240 S
HETATM   32  C6  UNL     1      25.097  55.367  68.691  1.00  0.00     0.187 C
HETATM   33  O3  UNL     1      23.814  53.238  69.644  1.00  0.00    -0.205 OA
HETATM   34  O4  UNL     1      25.277  52.932  67.649  1.00  0.00    -0.205 OA
ENDBRANCH  29  31
ENDBRANCH  17  29
ENDBRANCH   1  14
BRANCH   5  35
HETATM   35  C10 UNL     1      25.599  47.052  66.936  1.00  0.00     0.354 C
HETATM   36  F1  UNL     1      26.780  47.080  67.648  1.00  0.00    -0.152 F
HETATM   37  F2  UNL     1      24.722  46.032  67.222  1.00  0.00    -0.152 F
ENDBRANCH   5  35
BRANCH   9  38
HETATM   38  N7  UNL     1      27.683  47.518  62.312  1.00  0.00    -0.254 N
HETATM   39  C13 UNL     1      27.598  46.408  61.476  1.00  0.00     0.292 C
HETATM   40  O7  UNL     1      26.538  45.734  61.223  1.00  0.00    -0.264 OA
ATOM     41  H7  UNL     1      28.627  47.905  62.349  1.00  0.00     0.191 HD
BRANCH  39  42
HETATM   42  C14 UNL     1      28.805  45.898  60.767  1.00  0.00     0.171 A
HETATM   43  N8  UNL     1      30.031  45.961  61.364  1.00  0.00    -0.232 N
HETATM   44  O8  UNL     1      30.881  45.487  60.536  1.00  0.00    -0.155 OA
ATOM     45  H8  UNL     1      30.232  46.319  62.297  1.00  0.00     0.197 HD
HETATM   46  N9  UNL     1      30.351  45.113  59.441  1.00  0.00    -0.224 N
HETATM   47  C15 UNL     1      28.995  45.364  59.548  1.00  0.00     0.155 A
ATOM     48  H9  UNL     1      30.833  44.707  58.640  1.00  0.00     0.198 HD
HETATM   49  N10 UNL     1      28.186  45.150  58.612  1.00  0.00    -0.382 N
ATOM     50 2H10 UNL     1      27.186  45.334  58.691  1.00  0.00     0.157 HD
ATOM     51 1H10 UNL     1      28.331  44.744  57.687  1.00  0.00     0.157 HD
ENDBRANCH  39  42
ENDBRANCH   9  38
TORSDOF 11
ENDMDL