MODEL 2
REMARK VINA RESULT: -10.072658617      1.276      1.426
REMARK  15 active torsions:
REMARK  status: ('A' for Active; 'I' for Inactive)
REMARK    1  A    between atoms: N1_2  and  C3_4
REMARK    2  A    between atoms: C4_7  and  N3_8
REMARK    3  A    between atoms: N3_8  and  N4_10
REMARK    4  A    between atoms: N4_10  and  N5_12
REMARK    5  A    between atoms: N5_12  and  N6_13
REMARK    6  A    between atoms: N5_12  and  O1_16
REMARK    7  A    between atoms: N7_18  and  N8_19
REMARK    8  A    between atoms: C6_22  and  N9_23
REMARK    9  A    between atoms: N9_23  and  C7_25
REMARK   10  A    between atoms: C7_25  and  C8_26
REMARK   11  A    between atoms: C8_26  and  C9_27
REMARK   12  A    between atoms: C9_27  and  N10_28
REMARK   13  A    between atoms: N10_28  and  C10_30
REMARK   14  A    between atoms: C11_31  and  N11_32
REMARK   15  A    between atoms: C16_44  and  N14_45
ROOT
HETATM    1  C7  UNL     1      26.588  49.136  61.206  1.00  0.00     0.139 C
ENDROOT
BRANCH   1   2
HETATM    2  N9  UNL     1      26.164  47.766  61.129  1.00  0.00    -0.223 N
ATOM      3  H9  UNL     1      25.497  47.450  61.832  1.00  0.00     0.177 HD
BRANCH   2   4
HETATM    4  C6  UNL     1      26.543  46.909  60.267  1.00  0.00     0.728 A
HETATM    5  N7  UNL     1      27.665  46.196  60.578  1.00  0.00     0.086 N
HETATM    6  C4  UNL     1      28.164  45.271  59.766  1.00  0.00     0.750 A
HETATM    7  N2  UNL     1      27.480  45.078  58.591  1.00  0.00    -0.018 N
HETATM    8  C3  UNL     1      26.392  45.752  58.263  1.00  0.00     0.708 A
ATOM      9  H2  UNL     1      27.830  44.376  57.938  1.00  0.00     0.203 HD
HETATM   10  N16 UNL     1      25.916  46.681  59.111  1.00  0.00    -0.020 N
ATOM     11  H16 UNL     1      25.078  47.211  58.871  1.00  0.00     0.203 HD
BRANCH   5  12
HETATM   12  N8  UNL     1      28.317  46.446  61.803  1.00  0.00    -0.309 N
ATOM     13  H82 UNL     1      28.712  45.663  62.322  1.00  0.00     0.178 HD
ATOM     14  H81 UNL     1      28.378  47.407  62.139  1.00  0.00     0.178 HD
ENDBRANCH   5  12
BRANCH   6  15
HETATM   15  N3  UNL     1      29.300  44.480  59.967  1.00  0.00    -0.108 N
HETATM   16  C5  UNL     1      29.275  43.071  60.236  1.00  0.00     0.199 C
BRANCH  15  17
HETATM   17  N4  UNL     1      30.584  45.068  59.909  1.00  0.00    -0.185 N
ATOM     18  H4  UNL     1      30.912  45.529  59.060  1.00  0.00     0.213 HD
BRANCH  17  19
HETATM   19  N5  UNL     1      31.386  45.002  61.036  1.00  0.00    -0.086 N
BRANCH  19  20
HETATM   20  N6  UNL     1      32.774  44.863  60.827  1.00  0.00    -0.302 N
ATOM     21  H62 UNL     1      33.406  45.188  61.559  1.00  0.00     0.181 HD
ATOM     22  H61 UNL     1      33.069  44.442  59.946  1.00  0.00     0.181 HD
ENDBRANCH  19  20
BRANCH  19  23
HETATM   23  O1  UNL     1      30.974  45.056  62.208  1.00  0.00    -0.253 OA
ATOM     24  H1  UNL     1      31.477  44.807  62.974  1.00  0.00     0.248 HD
ENDBRANCH  19  23
ENDBRANCH  17  19
ENDBRANCH  15  17
ENDBRANCH   6  15
BRANCH   8  25
HETATM   25  N1  UNL     1      25.741  45.487  57.019  1.00  0.00    -0.225 N
HETATM   26  C1  UNL     1      26.351  44.557  56.108  1.00  0.00     0.168 C
HETATM   27  C2  UNL     1      24.512  46.133  56.681  1.00  0.00     0.168 C
ENDBRANCH   8  25
ENDBRANCH   2   4
ENDBRANCH   1   2
BRANCH   1  28
HETATM   28  C8  UNL     1      25.681  49.869  62.203  1.00  0.00     0.040 C
BRANCH  28  29
HETATM   29  C9  UNL     1      26.556  50.562  63.189  1.00  0.00     0.121 C
BRANCH  29  30
HETATM   30  N10 UNL     1      26.577  50.037  64.508  1.00  0.00    -0.382 N
ATOM     31  H10 UNL     1      27.204  50.514  65.156  1.00  0.00     0.160 HD
BRANCH  30  32
HETATM   32  C10 UNL     1      25.858  48.953  65.052  1.00  0.00     0.143 A
HETATM   33  C11 UNL     1      24.675  49.249  65.732  1.00  0.00     0.163 A
HETATM   34  N13 UNL     1      23.965  48.236  66.236  1.00  0.00    -0.174 N
HETATM   35  C16 UNL     1      24.355  46.937  66.108  1.00  0.00     0.680 A
ATOM     36  H13 UNL     1      23.099  48.443  66.735  1.00  0.00     0.186 HD
HETATM   37  N15 UNL     1      25.497  46.678  65.450  1.00  0.00    -0.154 N
HETATM   38  C17 UNL     1      26.269  47.647  64.912  1.00  0.00     0.289 A
ATOM     39  H15 UNL     1      25.794  45.708  65.352  1.00  0.00     0.187 HD
HETATM   40  O4  UNL     1      27.332  47.316  64.301  1.00  0.00    -0.265 OA
BRANCH  33  41
HETATM   41  N11 UNL     1      24.202  50.581  65.908  1.00  0.00    -0.256 N
HETATM   42  C12 UNL     1      24.694  51.305  66.951  1.00  0.00     0.128 A
HETATM   43  C13 UNL     1      24.268  52.601  67.165  1.00  0.00     0.095 A
HETATM   44 BR1  UNL     1      24.905  53.677  68.597  1.00  0.00    -0.044 Br
HETATM   45  C14 UNL     1      23.334  53.109  66.277  1.00  0.00     0.268 A
HETATM   46  O2  UNL     1      22.940  54.295  66.466  1.00  0.00    -0.267 OA
HETATM   47  N12 UNL     1      22.853  52.374  65.241  1.00  0.00    -0.274 N
HETATM   48  C15 UNL     1      23.300  51.118  65.079  1.00  0.00     0.335 A
ATOM     49  H12 UNL     1      22.166  52.768  64.599  1.00  0.00     0.173 HD
HETATM   50  O3  UNL     1      22.885  50.401  64.136  1.00  0.00    -0.246 OA
ENDBRANCH  33  41
BRANCH  35  51
HETATM   51  N14 UNL     1      23.679  45.973  66.589  1.00  0.00    -0.234 N
ATOM     52 2H14 UNL     1      22.820  45.682  66.123  1.00  0.00     0.174 HD
ATOM     53 1H14 UNL     1      23.964  45.474  67.431  1.00  0.00     0.174 HD
ENDBRANCH  35  51
ENDBRANCH  30  32
ENDBRANCH  29  30
ENDBRANCH  28  29
ENDBRANCH   1  28
TORSDOF 15
ENDMDL