MODEL 3
REMARK VINA RESULT: -7.569649607      3.860      9.566
REMARK  15 active torsions:
REMARK  status: ('A' for Active; 'I' for Inactive)
REMARK    1  A    between atoms: C2_2  and  O1_3
REMARK    2  A    between atoms: C2_2  and  C3_5
REMARK    3  A    between atoms: C6_14  and  C7_15
REMARK    4  A    between atoms: C8_18  and  S1_19
REMARK    5  A    between atoms: S1_19  and  C9_20
REMARK    6  A    between atoms: C9_20  and  C10_22
REMARK    7  A    between atoms: C10_22  and  N5_23
REMARK    8  A    between atoms: C10_22  and  N6_33
REMARK    9  A    between atoms: N5_23  and  C11_25
REMARK   10  A    between atoms: C11_25  and  O5_26
REMARK   11  A    between atoms: C11_25  and  C12_28
REMARK   12  A    between atoms: C12_28  and  O6_29
REMARK   13  A    between atoms: C12_28  and  O7_31
REMARK   14  A    between atoms: C15_41  and  C16_42
REMARK   15  A    between atoms: C16_42  and  C17_43
ROOT
HETATM    1  C3  UNL     1      28.006  48.209  60.050  1.00  0.00     0.007 C
HETATM    2  C4  UNL     1      28.646  47.217  60.581  1.00  0.00     0.136 A
HETATM    3  N1  UNL     1      29.723  46.383  60.185  1.00  0.00    -0.314 N
ATOM      4  H1  UNL     1      30.208  46.400  59.288  1.00  0.00     0.170 HD
HETATM    5  C5  UNL     1      29.999  45.506  61.295  1.00  0.00     0.209 A
HETATM    6  N2  UNL     1      31.003  44.506  61.327  1.00  0.00    -0.062 NA
HETATM    7  N3  UNL     1      29.203  45.758  62.259  1.00  0.00    -0.264 N
ATOM      8  H3  UNL     1      29.195  45.274  63.157  1.00  0.00     0.190 HD
HETATM    9  N4  UNL     1      28.322  46.824  61.888  1.00  0.00    -0.229 N
HETATM   10  C6  UNL     1      27.313  47.487  62.608  1.00  0.00     0.149 C
HETATM   11  C8  UNL     1      26.623  48.481  62.074  1.00  0.00     0.034 C
HETATM   12  C15 UNL     1      26.778  48.871  60.680  1.00  0.00     0.087 C
ENDROOT
BRANCH  11  13
HETATM   13  S1  UNL     1      25.411  49.208  63.200  1.00  0.00    -0.050 SA
BRANCH  13  14
HETATM   14  C9  UNL     1      26.172  50.189  64.477  1.00  0.00     0.234 C
HETATM   15  O4  UNL     1      27.116  50.917  64.231  1.00  0.00    -0.281 OA
BRANCH  14  16
HETATM   16  C10 UNL     1      25.652  50.125  65.900  1.00  0.00     0.286 C
BRANCH  16  17
HETATM   17  N5  UNL     1      24.906  48.943  66.041  1.00  0.00    -0.364 N
ATOM     18  H5  UNL     1      24.460  48.524  65.225  1.00  0.00     0.158 HD
BRANCH  17  19
HETATM   19  C11 UNL     1      24.770  48.330  67.310  1.00  0.00     0.270 C
BRANCH  19  20
HETATM   20  O5  UNL     1      23.623  48.780  67.996  1.00  0.00    -0.372 OA
ATOM     21  H5  UNL     1      23.741  49.650  68.357  1.00  0.00     0.212 HD
ENDBRANCH  19  20
BRANCH  19  22
HETATM   22  C12 UNL     1      24.860  46.845  67.381  1.00  0.00     0.302 C
BRANCH  22  23
HETATM   23  O6  UNL     1      26.201  46.485  67.098  1.00  0.00    -0.367 OA
ATOM     24  H6  UNL     1      26.219  45.547  66.947  1.00  0.00     0.212 HD
ENDBRANCH  22  23
BRANCH  22  25
HETATM   25  O7  UNL     1      24.128  46.321  66.301  1.00  0.00    -0.367 OA
ATOM     26  H7  UNL     1      24.619  45.588  65.949  1.00  0.00     0.212 HD
ENDBRANCH  22  25
ENDBRANCH  19  22
ENDBRANCH  17  19
ENDBRANCH  16  17
BRANCH  16  27
HETATM   27  N6  UNL     1      24.940  51.358  66.139  1.00  0.00    -0.253 N
HETATM   28  C13 UNL     1      24.991  52.053  67.284  1.00  0.00     0.177 A
HETATM   29  C14 UNL     1      24.164  53.153  67.128  1.00  0.00     0.221 A
HETATM   30  F1  UNL     1      23.909  54.126  68.022  1.00  0.00    -0.183 F
HETATM   31  N7  UNL     1      23.670  53.034  65.889  1.00  0.00    -0.260 N
HETATM   32  N8  UNL     1      24.119  51.970  65.275  1.00  0.00    -0.236 N
ATOM     33  H7  UNL     1      23.019  53.699  65.472  1.00  0.00     0.191 HD
ATOM     34  H8  UNL     1      23.890  51.666  64.328  1.00  0.00     0.208 HD
ENDBRANCH  16  27
ENDBRANCH  14  16
ENDBRANCH  13  14
ENDBRANCH  11  13
BRANCH  10  35
HETATM   35  C7  UNL     1      27.045  47.038  63.989  1.00  0.00     0.230 C
HETATM   36  O2  UNL     1      25.926  46.565  64.263  1.00  0.00    -0.643 OA
HETATM   37  O3  UNL     1      27.991  47.123  64.996  1.00  0.00    -0.643 OA
ENDBRANCH  10  35
BRANCH  12  38
HETATM   38  C16 UNL     1      25.651  48.282  59.870  1.00  0.00    -0.001 C
BRANCH  38  39
HETATM   39  C17 UNL     1      25.721  47.028  59.209  1.00  0.00    -0.039 A
HETATM   40  C18 UNL     1      26.038  45.892  59.955  1.00  0.00     0.011 A
HETATM   41  C19 UNL     1      26.152  44.645  59.386  1.00  0.00     0.001 A
HETATM   42  C20 UNL     1      25.951  44.476  58.027  1.00  0.00     0.000 A
HETATM   43  C21 UNL     1      25.639  45.567  57.260  1.00  0.00     0.001 A
HETATM   44  C22 UNL     1      25.530  46.801  57.850  1.00  0.00     0.011 A
ENDBRANCH  38  39
ENDBRANCH  12  38
BRANCH   1  45
HETATM   45  C2  UNL     1      28.358  48.749  58.690  1.00  0.00     0.148 C
HETATM   46  C1  UNL     1      27.620  50.076  58.498  1.00  0.00     0.044 C
BRANCH  45  47
HETATM   47  O1  UNL     1      29.714  49.010  58.547  1.00  0.00    -0.391 OA
ATOM     48  H1  UNL     1      30.079  48.313  58.013  1.00  0.00     0.210 HD
ENDBRANCH  45  47
ENDBRANCH   1  45
TORSDOF 15
ENDMDL