MODEL 5
REMARK VINA RESULT: -7.174524530     10.192     12.894
REMARK  14 active torsions:
REMARK  status: ('A' for Active; 'I' for Inactive)
REMARK    1  A    between atoms: C4_7  and  N3_8
REMARK    2  A    between atoms: N3_8  and  O1_10
REMARK    3  A    between atoms: C6_13  and  N4_14
REMARK    4  A    between atoms: C6_13  and  C16_41
REMARK    5  A    between atoms: N4_14  and  N5_16
REMARK    6  A    between atoms: N5_16  and  C7_18
REMARK       I    between atoms: N9_25  and  C9_26
REMARK    7  A    between atoms: C9_26  and  C10_28
REMARK    8  A    between atoms: C10_28  and  N10_29
REMARK    9  A    between atoms: C10_28  and  C11_33
REMARK   10  A    between atoms: C11_33  and  C12_34
REMARK   11  A    between atoms: C13_37  and  C14_38
REMARK   12  A    between atoms: C18_47  and  C19_48
REMARK   13  A    between atoms: C19_48  and  O7_50
REMARK   14  A    between atoms: O7_50  and  C20_51
ROOT
HETATM    1  N4  UNL     1      22.588  49.009  53.603  1.00  0.00    -0.296 N
ATOM      2  H4  UNL     1      23.561  49.217  53.376  1.00  0.00     0.187 HD
ENDROOT
BRANCH   1   3
HETATM    3  C6  UNL     1      21.495  49.633  52.884  1.00  0.00     0.093 C
HETATM    4  C5  UNL     1      21.711  49.958  51.642  1.00  0.00     0.069 A
HETATM    5  C2  UNL     1      20.936  50.550  50.673  1.00  0.00     0.055 A
HETATM    6  C4  UNL     1      22.948  49.738  50.982  1.00  0.00     0.156 A
HETATM    7  C1  UNL     1      19.694  50.966  50.740  1.00  0.00     0.045 C
HETATM    8  N1  UNL     1      21.700  50.652  49.539  1.00  0.00    -0.297 N
HETATM    9  N2  UNL     1      22.898  50.169  49.723  1.00  0.00    -0.279 N
ATOM     10  H1  UNL     1      21.373  51.055  48.662  1.00  0.00     0.187 HD
HETATM   11  C3  UNL     1      23.993  50.104  48.738  1.00  0.00     0.179 C
BRANCH   6  12
HETATM   12  N3  UNL     1      24.005  49.200  51.489  1.00  0.00    -0.251 N
ATOM     13  H3  UNL     1      24.120  48.190  51.393  1.00  0.00     0.196 HD
BRANCH  12  14
HETATM   14  O1  UNL     1      24.974  49.894  52.141  1.00  0.00    -0.288 OA
ATOM     15  H1  UNL     1      24.812  50.465  52.883  1.00  0.00     0.244 HD
ENDBRANCH  12  14
ENDBRANCH   6  12
BRANCH   3  16
HETATM   16  C16 UNL     1      20.308  49.811  53.659  1.00  0.00     0.095 A
HETATM   17  N11 UNL     1      19.233  48.975  53.779  1.00  0.00    -0.348 N
HETATM   18  C17 UNL     1      18.299  49.499  54.564  1.00  0.00     0.181 A
ATOM     19  H11 UNL     1      19.157  48.066  53.323  1.00  0.00     0.167 HD
HETATM   20  N12 UNL     1      18.784  50.691  54.953  1.00  0.00    -0.346 N
HETATM   21  C18 UNL     1      19.991  50.924  54.435  1.00  0.00     0.138 A
ATOM     22  H12 UNL     1      18.291  51.337  55.569  1.00  0.00     0.167 HD
BRANCH  21  23
HETATM   23  C19 UNL     1      20.826  52.121  54.640  1.00  0.00     0.312 C
HETATM   24  O6  UNL     1      21.997  52.006  55.019  1.00  0.00    -0.258 OA
BRANCH  23  25
HETATM   25  O7  UNL     1      20.307  53.367  54.411  1.00  0.00    -0.317 OA
BRANCH  25  26
HETATM   26  C20 UNL     1      19.770  53.787  53.171  1.00  0.00     0.175 C
HETATM   27  C21 UNL     1      18.302  54.043  53.345  1.00  0.00     0.034 C
ENDBRANCH  25  26
ENDBRANCH  23  25
ENDBRANCH  21  23
ENDBRANCH   3  16
ENDBRANCH   1   3
BRANCH   1  28
HETATM   28  N5  UNL     1      22.256  48.109  54.619  1.00  0.00    -0.286 N
ATOM     29  H5  UNL     1      21.647  48.395  55.386  1.00  0.00     0.188 HD
BRANCH  28  30
HETATM   30  C7  UNL     1      22.789  46.764  54.570  1.00  0.00     0.131 C
HETATM   31  N6  UNL     1      23.817  46.500  55.255  1.00  0.00    -0.316 N
HETATM   32  C8  UNL     1      24.436  45.229  55.285  1.00  0.00     0.208 C
ATOM     33  H6  UNL     1      24.224  47.246  55.819  1.00  0.00     0.170 HD
HETATM   34  N7  UNL     1      25.574  45.037  56.094  1.00  0.00    -0.062 NA
HETATM   35  N8  UNL     1      23.887  44.333  54.550  1.00  0.00    -0.267 N
HETATM   36  N9  UNL     1      22.779  44.522  53.758  1.00  0.00    -0.237 N
ATOM     37  H8  UNL     1      24.307  43.404  54.552  1.00  0.00     0.190 HD
HETATM   38  C9  UNL     1      22.287  43.494  52.865  1.00  0.00     0.270 C
HETATM   39  C13 UNL     1      22.072  45.760  53.772  1.00  0.00     0.249 C
HETATM   40  O2  UNL     1      21.269  43.753  52.161  1.00  0.00    -0.269 OA
BRANCH  38  41
HETATM   41  C10 UNL     1      22.906  42.177  52.737  1.00  0.00     0.286 C
BRANCH  41  42
HETATM   42  N10 UNL     1      22.898  41.807  51.323  1.00  0.00    -0.066 N
ATOM     43 3H10 UNL     1      22.644  40.830  51.173  1.00  0.00     0.275 HD
ATOM     44 2H10 UNL     1      22.125  42.231  50.809  1.00  0.00     0.275 HD
ATOM     45 1H10 UNL     1      23.809  42.041  50.929  1.00  0.00     0.275 HD
ENDBRANCH  41  42
BRANCH  41  46
HETATM   46  C11 UNL     1      22.295  41.090  53.585  1.00  0.00     0.155 C
BRANCH  46  47
HETATM   47  C12 UNL     1      22.601  39.800  52.880  1.00  0.00     0.175 C
HETATM   48  O3  UNL     1      23.804  39.378  53.004  1.00  0.00    -0.648 OA
HETATM   49  O4  UNL     1      21.675  39.100  52.147  1.00  0.00    -0.648 OA
ENDBRANCH  46  47
ENDBRANCH  41  46
ENDBRANCH  38  41
BRANCH  39  50
HETATM   50  C14 UNL     1      20.708  45.611  54.417  1.00  0.00     0.155 C
HETATM   51  C15 UNL     1      20.577  44.786  55.626  1.00  0.00     0.093 C
HETATM   52  O5  UNL     1      19.735  46.161  53.955  1.00  0.00    -0.296 OA
ENDBRANCH  39  50
ENDBRANCH  28  30
ENDBRANCH   1  28
TORSDOF 14
ENDMDL