MODEL 5
REMARK VINA RESULT: -10.483115836      3.673     10.967
REMARK  12 active torsions:
REMARK  status: ('A' for Active; 'I' for Inactive)
REMARK       I    between atoms: N2_3  and  C2_5
REMARK    1  A    between atoms: C2_5  and  C3_7
REMARK    2  A    between atoms: C3_7  and  N3_8
REMARK    3  A    between atoms: C4_12  and  N4_13
REMARK       I    between atoms: N4_13  and  C5_14
REMARK    4  A    between atoms: C5_14  and  C6_16
REMARK    5  A    between atoms: C6_16  and  N5_17
REMARK    6  A    between atoms: C6_16  and  C7_21
REMARK    7  A    between atoms: C7_21  and  N6_22
REMARK    8  A    between atoms: C10_27  and  N8_28
REMARK    9  A    between atoms: C14_41  and  O3_42
REMARK   10  A    between atoms: O3_42  and  C15_43
REMARK   11  A    between atoms: C15_43  and  C16_44
REMARK   12  A    between atoms: C21_50  and  C22_51
ROOT
HETATM    1  N1  UNL     1      28.623  49.151  67.112  1.00  0.00    -0.172 NA
HETATM    2  C1  UNL     1      27.493  49.346  66.901  1.00  0.00     0.184 C
HETATM    3  N2  UNL     1      26.159  49.565  66.630  1.00  0.00    -0.261 N
ATOM      4  H2  UNL     1      25.588  48.757  66.385  1.00  0.00     0.181 HD
HETATM    5  C2  UNL     1      25.520  50.841  66.668  1.00  0.00     0.274 C
HETATM    6  O1  UNL     1      26.249  51.808  66.972  1.00  0.00    -0.269 OA
ENDROOT
BRANCH   5   7
HETATM    7  C3  UNL     1      24.084  50.917  66.350  1.00  0.00     0.287 C
HETATM    8  C4  UNL     1      23.732  50.510  64.939  1.00  0.00     0.242 C
HETATM    9  C13 UNL     1      22.849  51.670  64.433  1.00  0.00     0.278 C
HETATM   10  N11 UNL     1      22.310  52.261  65.646  1.00  0.00    -0.043 N
HETATM   11  C14 UNL     1      23.485  52.271  66.535  1.00  0.00     0.370 C
ATOM     12 2H11 UNL     1      21.857  53.165  65.519  1.00  0.00     0.280 HD
ATOM     13 1H11 UNL     1      21.487  51.792  66.025  1.00  0.00     0.280 HD
BRANCH   7  14
HETATM   14  N3  UNL     1      23.381  49.959  67.242  1.00  0.00    -0.054 N
ATOM     15  H33 UNL     1      23.783  49.918  68.178  1.00  0.00     0.276 HD
ATOM     16  H32 UNL     1      22.449  50.276  67.512  1.00  0.00     0.276 HD
ATOM     17  H31 UNL     1      23.374  49.054  66.772  1.00  0.00     0.276 HD
ENDBRANCH   7  14
BRANCH   8  18
HETATM   18  N4  UNL     1      24.692  50.241  64.044  1.00  0.00    -0.403 NA
HETATM   19  C5  UNL     1      25.700  49.958  63.103  1.00  0.00     0.319 C
HETATM   20  O2  UNL     1      26.365  50.791  62.484  1.00  0.00    -0.255 OA
BRANCH  19  21
HETATM   21  C6  UNL     1      26.006  48.508  62.811  1.00  0.00     0.307 C
BRANCH  21  22
HETATM   22  N5  UNL     1      26.276  47.747  63.994  1.00  0.00    -0.064 N
ATOM     23  H53 UNL     1      26.846  48.280  64.650  1.00  0.00     0.275 HD
ATOM     24  H52 UNL     1      25.432  47.637  64.558  1.00  0.00     0.275 HD
ATOM     25  H51 UNL     1      26.701  46.841  63.794  1.00  0.00     0.275 HD
ENDBRANCH  21  22
BRANCH  21  26
HETATM   26  C7  UNL     1      27.103  48.319  61.822  1.00  0.00     0.175 C
BRANCH  26  27
HETATM   27  N6  UNL     1      26.535  47.886  60.534  1.00  0.00    -0.325 N
HETATM   28  C8  UNL     1      25.883  48.649  59.647  1.00  0.00     0.185 A
HETATM   29  N7  UNL     1      25.524  47.905  58.572  1.00  0.00    -0.346 N
HETATM   30  C9  UNL     1      25.962  46.656  58.800  1.00  0.00     0.122 A
ATOM     31  H7  UNL     1      25.019  48.231  57.748  1.00  0.00     0.167 HD
HETATM   32  C10 UNL     1      25.878  45.507  58.039  1.00  0.00     0.131 A
HETATM   33  C12 UNL     1      26.594  46.664  60.033  1.00  0.00     0.140 A
HETATM   34  N9  UNL     1      26.413  44.382  58.503  1.00  0.00    -0.337 N
HETATM   35  C11 UNL     1      27.028  44.365  59.694  1.00  0.00     0.183 A
ATOM     36  H9  UNL     1      26.357  43.528  57.950  1.00  0.00     0.168 HD
HETATM   37  N10 UNL     1      27.121  45.478  60.450  1.00  0.00    -0.336 N
ATOM     38  H10 UNL     1      27.596  45.432  61.352  1.00  0.00     0.168 HD
BRANCH  32  39
HETATM   39  N8  UNL     1      25.287  45.544  56.883  1.00  0.00    -0.383 N
ATOM     40  H82 UNL     1      24.531  46.203  56.696  1.00  0.00     0.157 HD
ATOM     41  H81 UNL     1      25.575  44.898  56.149  1.00  0.00     0.157 HD
ENDBRANCH  32  39
ENDBRANCH  26  27
ENDBRANCH  21  26
ENDBRANCH  19  21
ENDBRANCH   8  18
BRANCH  11  42
HETATM   42  O3  UNL     1      23.161  52.623  67.806  1.00  0.00    -0.352 OA
BRANCH  42  43
HETATM   43  C15 UNL     1      23.842  53.816  68.193  1.00  0.00     0.210 C
BRANCH  43  44
HETATM   44  C16 UNL     1      23.246  54.977  67.515  1.00  0.00    -0.018 A
HETATM   45  C17 UNL     1      22.028  54.797  66.855  1.00  0.00     0.052 A
HETATM   46  C18 UNL     1      21.449  55.882  66.243  1.00  0.00     0.117 A
HETATM   47  F1  UNL     1      20.261  55.795  65.588  1.00  0.00    -0.206 F
HETATM   48  C19 UNL     1      22.031  57.145  66.256  1.00  0.00     0.043 A
HETATM   49  C20 UNL     1      23.233  57.287  66.915  1.00  0.00     0.019 A
HETATM   50  C21 UNL     1      23.849  56.203  67.550  1.00  0.00     0.019 A
BRANCH  50  51
HETATM   51  C22 UNL     1      25.113  56.371  68.240  1.00  0.00     0.148 A
HETATM   52  N12 UNL     1      25.765  57.569  68.284  1.00  0.00    -0.268 N
HETATM   53  N13 UNL     1      26.884  57.421  68.958  1.00  0.00    -0.227 N
ATOM     54  H12 UNL     1      25.436  58.438  67.863  1.00  0.00     0.190 HD
HETATM   55  N14 UNL     1      26.961  56.162  69.343  1.00  0.00    -0.227 N
ATOM     56  H13 UNL     1      27.571  58.151  69.148  1.00  0.00     0.210 HD
HETATM   57  N15 UNL     1      25.898  55.535  68.912  1.00  0.00    -0.268 N
ATOM     58  H14 UNL     1      27.720  55.748  69.885  1.00  0.00     0.210 HD
ATOM     59  H15 UNL     1      25.700  54.547  69.070  1.00  0.00     0.190 HD
ENDBRANCH  50  51
ENDBRANCH  43  44
ENDBRANCH  42  43
ENDBRANCH  11  42
ENDBRANCH   5   7
TORSDOF 12
ENDMDL