MODEL 2
REMARK VINA RESULT: -11.143938039      1.404      2.111
REMARK  14 active torsions:
REMARK  status: ('A' for Active; 'I' for Inactive)
REMARK    1  A    between atoms: C3_6  and  C4_7
REMARK    2  A    between atoms: C4_7  and  O2_8
REMARK    3  A    between atoms: C4_7  and  C5_10
REMARK       I    between atoms: C5_10  and  N2_12
REMARK    4  A    between atoms: N2_12  and  C6_14
REMARK    5  A    between atoms: C6_14  and  C7_15
REMARK    6  A    between atoms: C7_15  and  O4_16
REMARK    7  A    between atoms: C7_15  and  C8_18
REMARK    8  A    between atoms: C8_18  and  C9_19
REMARK    9  A    between atoms: C10_23  and  O7_24
REMARK   10  A    between atoms: O7_24  and  C11_25
REMARK   11  A    between atoms: C16_31  and  N4_32
REMARK   12  A    between atoms: C17_36  and  C18_37
REMARK       I    between atoms: C18_37  and  N5_39
REMARK   13  A    between atoms: N5_39  and  N6_41
REMARK   14  A    between atoms: C19_44  and  O12_45
ROOT
HETATM    1  C8  UNL     1      27.286  46.769  59.818  1.00  0.00     0.199 C
HETATM    2  O6  UNL     1      26.669  47.363  60.962  1.00  0.00    -0.312 OA
HETATM    3  C10 UNL     1      27.110  46.828  62.151  1.00  0.00     0.421 C
HETATM    4  O10 UNL     1      28.401  46.279  62.066  1.00  0.00    -0.321 OA
HETATM    5  C17 UNL     1      28.264  45.100  61.326  1.00  0.00     0.252 C
HETATM    6  C19 UNL     1      27.429  45.317  60.085  1.00  0.00     0.203 C
ENDROOT
BRANCH   1   7
HETATM    7  C7  UNL     1      26.308  47.099  58.717  1.00  0.00     0.182 C
BRANCH   7   8
HETATM    8  C6  UNL     1      25.733  46.009  57.923  1.00  0.00     0.158 C
BRANCH   8   9
HETATM    9  N2  UNL     1      24.745  46.290  56.939  1.00  0.00    -0.356 N
HETATM   10  C5  UNL     1      24.640  45.547  55.699  1.00  0.00     0.252 C
HETATM   11  O3  UNL     1      25.455  44.630  55.508  1.00  0.00    -0.270 OA
ATOM     12  H2  UNL     1      24.083  47.046  57.114  1.00  0.00     0.162 HD
BRANCH  10  13
HETATM   13  C4  UNL     1      23.600  45.882  54.717  1.00  0.00     0.263 C
BRANCH  13  14
HETATM   14  C3  UNL     1      22.358  45.106  54.900  1.00  0.00     0.097 A
HETATM   15  N1  UNL     1      21.343  45.485  55.756  1.00  0.00    -0.260 N
HETATM   16  O1  UNL     1      20.397  44.632  55.728  1.00  0.00    -0.241 OA
ATOM     17  H1  UNL     1      21.350  46.329  56.330  1.00  0.00     0.194 HD
HETATM   18  C2  UNL     1      20.649  43.650  54.906  1.00  0.00     0.098 A
HETATM   19  C1  UNL     1      19.803  42.471  54.596  1.00  0.00     0.081 C
HETATM   20  C20 UNL     1      21.904  43.940  54.366  1.00  0.00     0.105 A
HETATM   21  N7  UNL     1      22.536  43.109  53.403  1.00  0.00    -0.098 NA
ENDBRANCH  13  14
BRANCH  13  22
HETATM   22  O2  UNL     1      23.255  47.257  54.829  1.00  0.00    -0.380 OA
ATOM     23  H2  UNL     1      23.888  47.747  54.316  1.00  0.00     0.211 HD
ENDBRANCH  13  22
ENDBRANCH  10  13
ENDBRANCH   8   9
ENDBRANCH   7   8
BRANCH   7  24
HETATM   24  O4  UNL     1      25.153  47.644  59.419  1.00  0.00    -0.390 OA
ATOM     25  H4  UNL     1      25.303  48.581  59.388  1.00  0.00     0.210 HD
ENDBRANCH   7  24
ENDBRANCH   1   7
BRANCH   1  26
HETATM   26  C9  UNL     1      28.550  47.480  59.635  1.00  0.00     0.271 C
HETATM   27  N3  UNL     1      28.679  48.834  60.040  1.00  0.00    -0.059 NA
HETATM   28  O5  UNL     1      29.577  46.964  59.127  1.00  0.00    -0.273 OA
ENDBRANCH   1  26
BRANCH   6  29
HETATM   29  O12 UNL     1      26.169  44.767  60.325  1.00  0.00    -0.389 OA
ATOM     30  H12 UNL     1      25.915  44.229  59.583  1.00  0.00     0.210 HD
ENDBRANCH   6  29
BRANCH   3  31
HETATM   31  O7  UNL     1      27.110  47.755  63.192  1.00  0.00    -0.294 OA
BRANCH  31  32
HETATM   32  C11 UNL     1      26.209  47.910  64.202  1.00  0.00     0.110 A
HETATM   33  C12 UNL     1      25.755  46.862  64.951  1.00  0.00     0.040 A
HETATM   34  C13 UNL     1      24.828  47.122  65.971  1.00  0.00     0.006 A
HETATM   35  C14 UNL     1      24.376  48.384  66.225  1.00  0.00     0.045 A
HETATM   36  C15 UNL     1      24.834  49.435  65.469  1.00  0.00     0.152 A
HETATM   37  F1  UNL     1      24.377  50.673  65.735  1.00  0.00    -0.203 F
HETATM   38  C16 UNL     1      25.743  49.202  64.466  1.00  0.00     0.174 A
BRANCH  38  39
HETATM   39  N4  UNL     1      26.240  50.269  63.662  1.00  0.00    -0.110 N
HETATM   40  O8  UNL     1      27.241  50.957  63.986  1.00  0.00    -0.532 OA
HETATM   41  O9  UNL     1      25.597  50.551  62.490  1.00  0.00    -0.532 OA
ENDBRANCH  38  39
ENDBRANCH  31  32
ENDBRANCH   3  31
BRANCH   5  42
HETATM   42  C18 UNL     1      29.581  44.494  61.024  1.00  0.00     0.267 C
HETATM   43  O11 UNL     1      29.636  43.329  60.569  1.00  0.00    -0.269 OA
HETATM   44  N5  UNL     1      30.797  45.186  61.234  1.00  0.00    -0.274 N
ATOM     45  H5  UNL     1      30.751  46.135  61.605  1.00  0.00     0.189 HD
BRANCH  44  46
HETATM   46  N6  UNL     1      32.047  44.652  60.965  1.00  0.00    -0.343 N
ATOM     47  H62 UNL     1      32.205  44.298  60.021  1.00  0.00     0.176 HD
ATOM     48  H61 UNL     1      32.802  44.597  61.649  1.00  0.00     0.176 HD
ENDBRANCH  44  46
ENDBRANCH   5  42
TORSDOF 14
ENDMDL