MODEL 2
REMARK VINA RESULT: -7.416531096      2.640      5.609
REMARK  13 active torsions:
REMARK  status: ('A' for Active; 'I' for Inactive)
REMARK    1  A    between atoms: N1_1  and  C1_5
REMARK    2  A    between atoms: C1_5  and  C2_6
REMARK    3  A    between atoms: C1_5  and  C3_9
REMARK    4  A    between atoms: C2_6  and  O1_7
REMARK       I    between atoms: C3_9  and  N2_11
REMARK    5  A    between atoms: N2_11  and  N3_13
REMARK    6  A    between atoms: C4_15  and  C5_16
REMARK    7  A    between atoms: C6_17  and  C7_18
REMARK       I    between atoms: C7_18  and  N4_20
REMARK    8  A    between atoms: N4_20  and  C8_22
REMARK    9  A    between atoms: C8_22  and  C9_23
REMARK   10  A    between atoms: C12_29  and  O6_30
REMARK   11  A    between atoms: N6_36  and  C15_37
REMARK   12  A    between atoms: C17_40  and  C18_41
REMARK   13  A    between atoms: C18_41  and  N7_42
ROOT
HETATM    1  C5  UNL     1      22.636  46.100  54.439  1.00  0.00     0.066 A
HETATM    2  C6  UNL     1      21.506  45.404  54.040  1.00  0.00     0.066 A
HETATM    3  C10 UNL     1      20.403  46.118  53.653  1.00  0.00     0.067 A
HETATM    4  C11 UNL     1      19.254  45.481  53.241  1.00  0.00     0.165 A
HETATM    5  F1  UNL     1      19.202  44.141  53.212  1.00  0.00    -0.202 F
HETATM    6  C12 UNL     1      18.174  46.263  52.858  1.00  0.00     0.120 A
HETATM    7  C13 UNL     1      18.304  47.632  52.907  1.00  0.00     0.129 A
HETATM    8  N5  UNL     1      19.433  48.230  53.310  1.00  0.00    -0.348 N
ATOM      9  H5  UNL     1      19.490  49.248  53.332  1.00  0.00     0.167 HD
HETATM   10  C14 UNL     1      20.474  47.500  53.680  1.00  0.00     0.127 A
HETATM   11  N6  UNL     1      21.548  48.207  54.059  1.00  0.00    -0.270 N
HETATM   12  C20 UNL     1      22.637  47.478  54.442  1.00  0.00     0.264 A
HETATM   13  O8  UNL     1      23.710  48.030  54.820  1.00  0.00    -0.267 OA
ENDROOT
BRANCH   1  14
HETATM   14  C4  UNL     1      23.805  45.330  54.850  1.00  0.00     0.125 C
HETATM   15  N3  UNL     1      24.485  45.646  55.911  1.00  0.00    -0.308 N
ATOM     16  H3  UNL     1      24.211  46.447  56.481  1.00  0.00     0.186 HD
BRANCH  15  17
HETATM   17  N2  UNL     1      25.589  44.883  56.260  1.00  0.00    -0.269 N
HETATM   18  C3  UNL     1      26.338  45.160  57.430  1.00  0.00     0.268 C
HETATM   19  O2  UNL     1      25.984  46.131  58.170  1.00  0.00    -0.269 OA
ATOM     20  H2  UNL     1      25.868  44.104  55.662  1.00  0.00     0.190 HD
BRANCH  18  21
HETATM   21  C1  UNL     1      27.512  44.397  57.861  1.00  0.00     0.299 C
BRANCH  21  22
HETATM   22  N1  UNL     1      27.909  43.388  56.899  1.00  0.00    -0.064 N
ATOM     23  H13 UNL     1      28.650  42.790  57.264  1.00  0.00     0.275 HD
ATOM     24  H12 UNL     1      27.186  42.680  56.776  1.00  0.00     0.275 HD
ATOM     25  H11 UNL     1      28.173  43.816  56.011  1.00  0.00     0.275 HD
ENDBRANCH  21  22
BRANCH  21  26
HETATM   26  C2  UNL     1      27.303  43.778  59.247  1.00  0.00     0.206 C
BRANCH  26  27
HETATM   27  O1  UNL     1      25.979  43.419  59.375  1.00  0.00    -0.398 OA
ATOM     28  H1  UNL     1      25.721  42.930  58.603  1.00  0.00     0.209 HD
ENDBRANCH  26  27
ENDBRANCH  21  26
ENDBRANCH  18  21
ENDBRANCH  15  17
ENDBRANCH   1  14
BRANCH   2  29
HETATM   29  C7  UNL     1      21.543  43.954  54.051  1.00  0.00     0.254 C
HETATM   30  O3  UNL     1      21.062  43.267  54.982  1.00  0.00    -0.268 OA
HETATM   31  N4  UNL     1      22.148  43.276  52.964  1.00  0.00    -0.347 N
ATOM     32  H4  UNL     1      22.542  43.828  52.202  1.00  0.00     0.163 HD
BRANCH  31  33
HETATM   33  C8  UNL     1      22.232  41.832  52.889  1.00  0.00     0.236 C
BRANCH  33  34
HETATM   34  C9  UNL     1      21.347  41.285  51.833  1.00  0.00     0.191 C
HETATM   35  O4  UNL     1      20.121  41.120  52.049  1.00  0.00    -0.647 OA
HETATM   36  O5  UNL     1      21.833  40.939  50.584  1.00  0.00    -0.647 OA
ENDBRANCH  33  34
ENDBRANCH  31  33
ENDBRANCH   2  29
BRANCH  11  37
HETATM   37  C15 UNL     1      21.704  49.595  54.118  1.00  0.00     0.243 C
HETATM   38  C16 UNL     1      22.946  50.292  54.295  1.00  0.00     0.131 C
HETATM   39  S1  UNL     1      23.604  50.017  52.584  1.00  0.00    -0.131 SA
HETATM   40  C17 UNL     1      22.145  49.918  51.834  1.00  0.00     0.205 C
HETATM   41  O7  UNL     1      21.240  50.092  52.856  1.00  0.00    -0.348 OA
BRANCH  40  42
HETATM   42  C18 UNL     1      21.896  49.688  50.360  1.00  0.00     0.194 C
BRANCH  42  43
HETATM   43  N7  UNL     1      23.155  49.559  49.693  1.00  0.00    -0.268 N
HETATM   44  C19 UNL     1      23.740  50.508  48.952  1.00  0.00     0.220 A
HETATM   45  N8  UNL     1      24.921  50.027  48.480  1.00  0.00    -0.279 N
HETATM   46  N9  UNL     1      25.040  48.795  48.938  1.00  0.00    -0.227 N
ATOM     47  H8  UNL     1      25.586  50.523  47.887  1.00  0.00     0.189 HD
HETATM   48  N10 UNL     1      23.961  48.520  49.674  1.00  0.00    -0.225 N
ATOM     49  H9  UNL     1      25.821  48.164  48.761  1.00  0.00     0.210 HD
ATOM     50  H10 UNL     1      23.788  47.635  50.151  1.00  0.00     0.210 HD
ENDBRANCH  42  43
ENDBRANCH  40  42
ENDBRANCH  11  37
BRANCH   6  51
HETATM   51  O6  UNL     1      17.010  45.636  52.442  1.00  0.00    -0.356 OA
ATOM     52  H6  UNL     1      16.765  45.688  51.526  1.00  0.00     0.218 HD
ENDBRANCH   6  51
TORSDOF 13
ENDMDL