MODEL 3
REMARK VINA RESULT: -10.466101797      1.026      1.386
REMARK  13 active torsions:
REMARK  status: ('A' for Active; 'I' for Inactive)
REMARK    1  A    between atoms: C2_3  and  N2_4
REMARK    2  A    between atoms: C3_9  and  S1_10
REMARK    3  A    between atoms: S1_10  and  C4_13
REMARK    4  A    between atoms: C4_13  and  N5_14
REMARK    5  A    between atoms: N5_14  and  C5_17
REMARK    6  A    between atoms: C5_17  and  C6_18
REMARK    7  A    between atoms: C6_18  and  N6_19
REMARK       I    between atoms: N6_19  and  C7_21
REMARK    8  A    between atoms: C7_21  and  C8_23
REMARK    9  A    between atoms: C12_30  and  N8_31
REMARK   10  A    between atoms: C13_34  and  N9_35
REMARK   11  A    between atoms: N9_35  and  C14_37
REMARK   12  A    between atoms: C17_44  and  O4_45
REMARK   13  A    between atoms: C18_47  and  O5_48
ROOT
HETATM    1  N1  UNL     1      21.317  44.843  55.521  1.00  0.00    -0.195 NA
HETATM    2  C1  UNL     1      22.293  45.291  55.122  1.00  0.00     0.082 C
HETATM    3  C2  UNL     1      23.545  45.861  54.626  1.00  0.00     0.294 C
ENDROOT
BRANCH   3   4
HETATM    4  N2  UNL     1      24.634  45.337  55.450  1.00  0.00    -0.204 N
HETATM    5  N3  UNL     1      25.595  44.560  55.024  1.00  0.00    -0.223 N
HETATM    6  N4  UNL     1      26.407  44.285  56.053  1.00  0.00    -0.259 N
ATOM      7  H3  UNL     1      25.708  44.220  54.070  1.00  0.00     0.210 HD
HETATM    8  C3  UNL     1      25.943  44.906  57.149  1.00  0.00     0.236 A
ATOM      9  H4  UNL     1      27.242  43.700  56.010  1.00  0.00     0.191 HD
HETATM   10  N12 UNL     1      24.837  45.557  56.758  1.00  0.00    -0.256 N
ATOM     11  H12 UNL     1      24.244  46.130  57.359  1.00  0.00     0.191 HD
BRANCH   8  12
HETATM   12  S1  UNL     1      26.687  44.840  58.728  1.00  0.00     0.234 S
HETATM   13  O1  UNL     1      26.064  45.834  59.672  1.00  0.00    -0.218 OA
HETATM   14  O2  UNL     1      26.540  43.485  59.354  1.00  0.00    -0.218 OA
BRANCH  12  15
HETATM   15  C4  UNL     1      28.428  45.201  58.630  1.00  0.00     0.380 C
BRANCH  15  16
HETATM   16  N5  UNL     1      28.776  45.993  59.779  1.00  0.00    -0.060 N
ATOM     17  H52 UNL     1      27.943  46.264  60.303  1.00  0.00     0.278 HD
ATOM     18  H51 UNL     1      29.238  45.425  60.489  1.00  0.00     0.278 HD
BRANCH  16  19
HETATM   19  C5  UNL     1      29.574  47.149  59.439  1.00  0.00     0.253 C
BRANCH  19  20
HETATM   20  C6  UNL     1      28.916  48.461  59.689  1.00  0.00     0.150 C
BRANCH  20  21
HETATM   21  N6  UNL     1      28.485  48.618  61.091  1.00  0.00    -0.355 N
HETATM   22  C7  UNL     1      27.132  48.858  61.337  1.00  0.00     0.257 C
HETATM   23  O3  UNL     1      26.297  48.927  60.362  1.00  0.00    -0.267 OA
ATOM     24  H6  UNL     1      29.155  48.553  61.857  1.00  0.00     0.162 HD
BRANCH  22  25
HETATM   25  C8  UNL     1      26.541  49.039  62.638  1.00  0.00     0.097 A
HETATM   26  C9  UNL     1      26.631  48.126  63.647  1.00  0.00     0.061 A
HETATM   27 CL1  UNL     1      27.622  46.654  63.541  1.00  0.00    -0.082 Cl
HETATM   28  C10 UNL     1      25.956  48.387  64.837  1.00  0.00    -0.008 A
HETATM   29  C11 UNL     1      25.218  49.520  65.015  1.00  0.00     0.044 A
HETATM   30  C19 UNL     1      26.096  47.351  65.898  1.00  0.00     0.076 C
HETATM   31  N7  UNL     1      25.131  50.416  64.030  1.00  0.00    -0.343 N
HETATM   32  C13 UNL     1      24.552  49.658  66.329  1.00  0.00     0.166 C
HETATM   33  C12 UNL     1      25.766  50.197  62.876  1.00  0.00     0.116 A
ATOM     34  H7  UNL     1      24.582  51.266  64.157  1.00  0.00     0.167 HD
HETATM   35  C17 UNL     1      23.900  48.319  66.611  1.00  0.00     0.175 C
HETATM   36  C18 UNL     1      25.033  47.370  66.936  1.00  0.00     0.153 C
BRANCH  33  37
HETATM   37  N8  UNL     1      25.679  51.061  61.934  1.00  0.00    -0.385 N
ATOM     38  H82 UNL     1      25.882  50.781  60.975  1.00  0.00     0.157 HD
ATOM     39  H81 UNL     1      25.407  52.012  62.185  1.00  0.00     0.157 HD
ENDBRANCH  33  37
BRANCH  32  40
HETATM   40  N9  UNL     1      23.669  50.756  66.478  1.00  0.00    -0.350 N
ATOM     41  H9  UNL     1      22.784  50.790  65.973  1.00  0.00     0.163 HD
BRANCH  40  42
HETATM   42  C14 UNL     1      24.062  51.828  67.368  1.00  0.00     0.171 C
HETATM   43  N10 UNL     1      25.074  52.597  67.245  1.00  0.00    -0.361 N
HETATM   44  C15 UNL     1      25.217  53.569  68.275  1.00  0.00     0.142 C
ATOM     45  H10 UNL     1      25.731  52.520  66.469  1.00  0.00     0.162 HD
HETATM   46  C16 UNL     1      23.917  53.466  69.019  1.00  0.00     0.142 C
HETATM   47  N11 UNL     1      23.371  52.206  68.545  1.00  0.00    -0.361 N
ATOM     48  H11 UNL     1      22.617  51.680  68.987  1.00  0.00     0.162 HD
ENDBRANCH  40  42
ENDBRANCH  32  40
BRANCH  35  49
HETATM   49  O4  UNL     1      23.078  48.375  67.724  1.00  0.00    -0.391 OA
ATOM     50  H4  UNL     1      23.002  47.528  68.147  1.00  0.00     0.210 HD
ENDBRANCH  35  49
BRANCH  36  51
HETATM   51  O5  UNL     1      24.525  46.131  67.278  1.00  0.00    -0.393 OA
ATOM     52  H5  UNL     1      24.220  46.145  68.178  1.00  0.00     0.210 HD
ENDBRANCH  36  51
ENDBRANCH  22  25
ENDBRANCH  20  21
ENDBRANCH  19  20
ENDBRANCH  16  19
ENDBRANCH  15  16
ENDBRANCH  12  15
ENDBRANCH   8  12
ENDBRANCH   3   4
TORSDOF 13
ENDMDL