MODEL 1
REMARK VINA RESULT: -10.246515011      0.000      0.000
REMARK  13 active torsions:
REMARK  status: ('A' for Active; 'I' for Inactive)
REMARK    1  A    between atoms: C2_2  and  C5_5
REMARK       I    between atoms: C5_5  and  N1_7
REMARK    2  A    between atoms: N2_10  and  C8_11
REMARK    3  A    between atoms: N5_16  and  C9_17
REMARK    4  A    between atoms: C9_17  and  C10_18
REMARK    5  A    between atoms: C11_20  and  O3_21
REMARK    6  A    between atoms: O3_21  and  C12_22
REMARK    7  A    between atoms: C12_22  and  C13_23
REMARK    8  A    between atoms: C13_23  and  N6_24
REMARK    9  A    between atoms: C15_27  and  C16_28
REMARK   10  A    between atoms: C18_39  and  O4_40
REMARK   11  A    between atoms: C18_39  and  C19_42
REMARK   12  A    between atoms: C19_42  and  O5_43
REMARK   13  A    between atoms: C20_45  and  O6_46
ROOT
HETATM    1  C10 UNL     1      26.925  44.709  58.741  1.00  0.00     0.178 C
HETATM    2  O2  UNL     1      26.664  44.861  60.127  1.00  0.00    -0.348 OA
HETATM    3  C11 UNL     1      27.587  45.761  60.580  1.00  0.00     0.299 C
HETATM    4  C18 UNL     1      28.837  45.588  59.743  1.00  0.00     0.156 C
HETATM    5  C20 UNL     1      28.427  44.603  58.671  1.00  0.00     0.190 C
ENDROOT
BRANCH   1   6
HETATM    6  C9  UNL     1      26.463  45.887  57.963  1.00  0.00     0.206 C
BRANCH   6   7
HETATM    7  N5  UNL     1      25.670  45.492  56.826  1.00  0.00    -0.202 N
HETATM    8  N4  UNL     1      26.078  44.556  55.955  1.00  0.00    -0.211 N
HETATM    9  N3  UNL     1      25.137  44.412  55.044  1.00  0.00    -0.115 N
ATOM     10  H4  UNL     1      26.961  44.046  55.993  1.00  0.00     0.210 HD
HETATM   11  C8  UNL     1      24.118  45.239  55.299  1.00  0.00     0.712 A
ATOM     12  H3  UNL     1      25.180  43.764  54.257  1.00  0.00     0.207 HD
HETATM   13  N11 UNL     1      24.482  45.896  56.416  1.00  0.00    -0.113 N
ATOM     14  H11 UNL     1      23.919  46.607  56.881  1.00  0.00     0.207 HD
BRANCH  11  15
HETATM   15  N2  UNL     1      22.927  45.368  54.537  1.00  0.00    -0.212 N
HETATM   16  C7  UNL     1      22.356  46.631  54.124  1.00  0.00     0.161 C
HETATM   17  C6  UNL     1      20.891  46.689  54.492  1.00  0.00     0.146 C
HETATM   18  N1  UNL     1      20.217  45.431  54.280  1.00  0.00    -0.348 N
HETATM   19  C5  UNL     1      18.998  45.408  53.582  1.00  0.00     0.227 C
HETATM   20  C22 UNL     1      20.842  44.247  54.802  1.00  0.00     0.146 C
HETATM   21  O1  UNL     1      18.536  46.533  53.161  1.00  0.00    -0.273 OA
HETATM   22  C21 UNL     1      22.228  44.167  54.140  1.00  0.00     0.161 C
BRANCH  19  23
HETATM   23  C2  UNL     1      18.184  44.207  53.282  1.00  0.00     0.030 C
HETATM   24  C1  UNL     1      18.933  43.148  52.522  1.00  0.00     0.025 C
HETATM   25  C3  UNL     1      17.600  43.682  54.584  1.00  0.00     0.025 C
HETATM   26  C4  UNL     1      17.011  44.613  52.390  1.00  0.00     0.025 C
ENDBRANCH  19  23
ENDBRANCH  11  15
ENDBRANCH   6   7
ENDBRANCH   1   6
BRANCH   5  27
HETATM   27  O6  UNL     1      28.866  43.317  58.990  1.00  0.00    -0.390 OA
ATOM     28  H6  UNL     1      29.103  42.826  58.212  1.00  0.00     0.210 HD
ENDBRANCH   5  27
BRANCH   3  29
HETATM   29  O3  UNL     1      27.954  45.589  61.902  1.00  0.00    -0.356 OA
BRANCH  29  30
HETATM   30  C12 UNL     1      27.853  46.713  62.677  1.00  0.00     0.192 C
BRANCH  30  31
HETATM   31  C13 UNL     1      26.377  47.136  62.635  1.00  0.00     0.176 C
BRANCH  31  32
HETATM   32  N6  UNL     1      26.096  48.234  63.482  1.00  0.00    -0.153 N
HETATM   33  C14 UNL     1      25.783  48.157  64.801  1.00  0.00     0.235 A
HETATM   34  F1  UNL     1      25.693  46.983  65.517  1.00  0.00    -0.183 F
HETATM   35  C15 UNL     1      25.578  49.398  65.287  1.00  0.00     0.146 A
HETATM   36  N9  UNL     1      25.770  50.255  64.239  1.00  0.00    -0.184 N
HETATM   37  C17 UNL     1      26.083  49.526  63.159  1.00  0.00     0.681 A
ATOM     38  H9  UNL     1      25.690  51.271  64.274  1.00  0.00     0.184 HD
HETATM   39  N10 UNL     1      26.325  50.073  61.991  1.00  0.00    -0.234 N
ATOM     40 2H10 UNL     1      26.562  49.518  61.169  1.00  0.00     0.174 HD
ATOM     41 1H10 UNL     1      26.314  51.062  61.744  1.00  0.00     0.174 HD
BRANCH  35  42
HETATM   42  C16 UNL     1      25.224  49.791  66.642  1.00  0.00     0.142 C
HETATM   43  N7  UNL     1      25.639  50.826  67.234  1.00  0.00    -0.386 N
ATOM     44  H72 UNL     1      26.272  51.418  66.696  1.00  0.00     0.157 HD
ATOM     45  H71 UNL     1      25.391  51.103  68.185  1.00  0.00     0.157 HD
HETATM   46  N8  UNL     1      24.319  48.946  67.412  1.00  0.00    -0.081 NA
ENDBRANCH  35  42
ENDBRANCH  31  32
ENDBRANCH  30  31
ENDBRANCH  29  30
ENDBRANCH   3  29
BRANCH   4  47
HETATM   47  O4  UNL     1      29.230  46.807  59.249  1.00  0.00    -0.380 OA
ATOM     48  H4  UNL     1      28.629  47.082  58.567  1.00  0.00     0.211 HD
ENDBRANCH   4  47
BRANCH   4  49
HETATM   49  C19 UNL     1      29.960  44.989  60.552  1.00  0.00     0.210 C
BRANCH  49  50
HETATM   50  O5  UNL     1      30.874  46.000  60.834  1.00  0.00    -0.398 OA
ATOM     51  H5  UNL     1      31.686  45.593  61.112  1.00  0.00     0.209 HD
ENDBRANCH  49  50
ENDBRANCH   4  49
TORSDOF 13
ENDMDL