MODEL 5
REMARK VINA RESULT: -6.148028312      3.827      8.370
REMARK  10 active torsions:
REMARK  status: ('A' for Active; 'I' for Inactive)
REMARK    1  A    between atoms: N2_4  and  O1_6
REMARK    2  A    between atoms: O1_6  and  C1_7
REMARK    3  A    between atoms: C1_7  and  C2_8
REMARK    4  A    between atoms: C2_8  and  O2_9
REMARK    5  A    between atoms: C2_8  and  C3_11
REMARK    6  A    between atoms: C3_11  and  C4_12
REMARK    7  A    between atoms: C4_12  and  N3_13
REMARK    8  A    between atoms: N4_15  and  N5_17
REMARK    9  A    between atoms: N5_17  and  C5_19
REMARK   10  A    between atoms: C5_19  and  N6_21
ROOT
HETATM    1  N3  UNL     1      60.439  -8.057  11.460  1.00  0.00    -0.322 N
ATOM      2  H3  UNL     1      59.588  -7.525  11.279  1.00  0.00     0.181 HD
HETATM    3  N4  UNL     1      61.478  -7.866  10.764  1.00  0.00    -0.245 N
ATOM      4  H4  UNL     1      61.455  -7.171  10.018  1.00  0.00     0.208 HD
ENDROOT
BRANCH   1   5
HETATM    5  C4  UNL     1      60.478  -9.043  12.517  1.00  0.00     0.143 C
BRANCH   5   6
HETATM    6  C3  UNL     1      59.142  -9.034  13.206  1.00  0.00     0.055 C
BRANCH   6   7
HETATM    7  C2  UNL     1      58.113  -8.246  12.426  1.00  0.00     0.146 C
BRANCH   7   8
HETATM    8  C1  UNL     1      56.780  -8.919  12.629  1.00  0.00     0.234 C
BRANCH   8   9
HETATM    9  O1  UNL     1      56.585  -9.281  13.971  1.00  0.00    -0.263 OA
BRANCH   9  10
HETATM   10  N2  UNL     1      56.190  -8.331  14.859  1.00  0.00    -0.214 N
HETATM   11  N1  UNL     1      55.906  -8.580  16.056  1.00  0.00    -0.326 N
ATOM     12  H12 UNL     1      55.980  -9.549  16.361  1.00  0.00     0.178 HD
ATOM     13  H11 UNL     1      55.610  -7.867  16.722  1.00  0.00     0.178 HD
ATOM     14  H2  UNL     1      56.122  -7.366  14.535  1.00  0.00     0.215 HD
ENDBRANCH   9  10
ENDBRANCH   8   9
ENDBRANCH   7   8
BRANCH   7  15
HETATM   15  O2  UNL     1      58.116  -6.951  12.940  1.00  0.00    -0.393 OA
ATOM     16  H2  UNL     1      58.862  -6.803  13.510  1.00  0.00     0.210 HD
ENDBRANCH   7  15
ENDBRANCH   6   7
ENDBRANCH   5   6
ENDBRANCH   1   5
BRANCH   3  17
HETATM   17  N5  UNL     1      62.633  -8.567  10.987  1.00  0.00    -0.262 N
ATOM     18  H5  UNL     1      63.120  -8.420  11.871  1.00  0.00     0.191 HD
BRANCH  17  19
HETATM   19  C5  UNL     1      63.186  -9.478  10.070  1.00  0.00     0.189 C
HETATM   20  S1  UNL     1      63.954  -8.849   8.721  1.00  0.00    -0.039 SA
BRANCH  19  21
HETATM   21  N6  UNL     1      63.156 -10.871  10.173  1.00  0.00    -0.357 N
HETATM   22  C6  UNL     1      63.129 -11.650   8.971  1.00  0.00     0.125 C
HETATM   23  C7  UNL     1      63.190 -13.150   9.289  1.00  0.00     0.020 C
HETATM   24  C8  UNL     1      64.421 -13.548  10.024  1.00  0.00     0.002 C
HETATM   25  C9  UNL     1      65.223 -12.430  10.604  1.00  0.00     0.002 C
HETATM   26  C10 UNL     1      64.578 -11.804  11.825  1.00  0.00     0.020 C
HETATM   27  C11 UNL     1      63.158 -11.383  11.549  1.00  0.00     0.125 C
ENDBRANCH  19  21
ENDBRANCH  17  19
ENDBRANCH   3  17
TORSDOF 10
ENDMDL