MODEL 1
REMARK VINA RESULT: -6.774130629      0.000      0.000
REMARK  8 active torsions:
REMARK  status: ('A' for Active; 'I' for Inactive)
REMARK    1  A    between atoms: C2_2  and  C3_3
REMARK    2  A    between atoms: C3_3  and  S1_4
REMARK    3  A    between atoms: S1_4  and  C4_5
REMARK    4  A    between atoms: C5_10  and  C6_11
REMARK    5  A    between atoms: C6_11  and  C7_12
REMARK    6  A    between atoms: C7_12  and  N3_13
REMARK       I    between atoms: N3_13  and  C8_15
REMARK       I    between atoms: C8_15  and  N5_21
REMARK    7  A    between atoms: N4_16  and  C9_18
REMARK    8  A    between atoms: C9_18  and  C10_19
ROOT
HETATM    1  N3  UNL     1      58.852  -9.226  13.175  1.00  0.00    -0.225 N
ATOM      2  H3  UNL     1      59.284  -9.901  13.807  1.00  0.00     0.177 HD
HETATM    3  C8  UNL     1      57.603  -8.665  13.528  1.00  0.00     0.682 C
HETATM    4  N4  UNL     1      57.019  -8.925  14.629  1.00  0.00    -0.225 N
ATOM      5  H4  UNL     1      56.119  -8.488  14.827  1.00  0.00     0.177 HD
HETATM    6  N5  UNL     1      56.965  -7.769  12.594  1.00  0.00    -0.126 N
ATOM      7  H5  UNL     1      57.183  -7.831  11.599  1.00  0.00     0.197 HD
HETATM    8  C11 UNL     1      56.054  -6.823  13.049  1.00  0.00     0.196 C
HETATM    9  N6  UNL     1      55.287  -6.051  13.438  1.00  0.00    -0.171 NA
ENDROOT
BRANCH   1  10
HETATM   10  C7  UNL     1      59.532  -8.881  11.962  1.00  0.00     0.145 C
BRANCH  10  11
HETATM   11  C6  UNL     1      60.789  -8.118  12.302  1.00  0.00     0.098 C
BRANCH  11  12
HETATM   12  C5  UNL     1      61.823  -8.582  11.309  1.00  0.00     0.099 A
HETATM   13  N2  UNL     1      62.417  -7.783  10.385  1.00  0.00    -0.287 N
HETATM   14  N1  UNL     1      63.252  -8.535   9.698  1.00  0.00    -0.278 N
ATOM     15  H2  UNL     1      62.248  -6.787  10.248  1.00  0.00     0.188 HD
HETATM   16  C4  UNL     1      63.224  -9.824  10.152  1.00  0.00     0.160 A
ATOM     17  H1  UNL     1      63.839  -8.202   8.933  1.00  0.00     0.189 HD
HETATM   18  N7  UNL     1      62.324  -9.813  11.152  1.00  0.00    -0.324 N
ATOM     19  H7  UNL     1      62.061 -10.626  11.710  1.00  0.00     0.169 HD
BRANCH  16  20
HETATM   20  S1  UNL     1      64.191 -11.177   9.491  1.00  0.00    -0.092 SA
BRANCH  20  21
HETATM   21  C3  UNL     1      63.113 -12.340   8.615  1.00  0.00     0.082 C
BRANCH  21  22
HETATM   22  C2  UNL     1      63.168 -13.666   9.386  1.00  0.00     0.006 C
HETATM   23  C1  UNL     1      62.762 -14.774   8.425  1.00  0.00     0.006 C
ENDBRANCH  21  22
ENDBRANCH  20  21
ENDBRANCH  16  20
ENDBRANCH  11  12
ENDBRANCH  10  11
ENDBRANCH   1  10
BRANCH   4  24
HETATM   24  C9  UNL     1      57.590  -9.816  15.602  1.00  0.00     0.149 C
BRANCH  24  25
HETATM   25  C10 UNL     1      56.508 -10.383  16.526  1.00  0.00     0.106 C
HETATM   26  S2  UNL     1      55.037  -9.343  16.320  1.00  0.00    -0.096 SA
ENDBRANCH  24  25
ENDBRANCH   4  24
TORSDOF 8
ENDMDL