MODEL 1
REMARK VINA RESULT: -6.340128978      0.000      0.000
REMARK  10 active torsions:
REMARK  status: ('A' for Active; 'I' for Inactive)
REMARK    1  A    between atoms: C2_2  and  C3_3
REMARK    2  A    between atoms: C3_3  and  C4_4
REMARK    3  A    between atoms: C4_4  and  N1_5
REMARK    4  A    between atoms: N1_5  and  C5_7
REMARK    5  A    between atoms: C6_10  and  N3_11
REMARK    6  A    between atoms: N3_11  and  N4_12
REMARK    7  A    between atoms: N3_11  and  C9_20
REMARK    8  A    between atoms: N4_12  and  C7_14
REMARK    9  A    between atoms: C7_14  and  C8_15
REMARK   10  A    between atoms: C8_15  and  N5_16
ROOT
HETATM    1  N3  UNL     1      56.470  -7.374  13.501  1.00  0.00    -0.269 N
ENDROOT
BRANCH   1   2
HETATM    2  C6  UNL     1      57.525  -7.804  12.658  1.00  0.00     0.197 A
HETATM    3  N2  UNL     1      58.824  -7.662  12.875  1.00  0.00    -0.167 N
HETATM    4  C5  UNL     1      59.668  -8.127  11.989  1.00  0.00     0.686 A
ATOM      5  H2  UNL     1      59.161  -7.197  13.718  1.00  0.00     0.186 HD
HETATM    6  N6  UNL     1      59.177  -8.726  10.903  1.00  0.00    -0.157 N
HETATM    7  S1  UNL     1      57.518  -8.621  11.152  1.00  0.00     0.040 SA
ATOM      8  H6  UNL     1      59.680  -9.143  10.120  1.00  0.00     0.193 HD
BRANCH   4   9
HETATM    9  N1  UNL     1      60.969  -7.965  12.192  1.00  0.00    -0.225 N
ATOM     10  H1  UNL     1      61.284  -7.758  13.140  1.00  0.00     0.177 HD
BRANCH   9  11
HETATM   11  C4  UNL     1      61.948  -8.064  11.170  1.00  0.00     0.138 C
BRANCH  11  12
HETATM   12  C3  UNL     1      62.964  -9.171  11.444  1.00  0.00     0.020 C
BRANCH  12  13
HETATM   13  C2  UNL     1      62.470 -10.498  10.914  1.00  0.00    -0.003 C
HETATM   14  C1  UNL     1      63.250 -11.598  11.602  1.00  0.00     0.005 C
ENDBRANCH  12  13
ENDBRANCH  11  12
ENDBRANCH   9  11
ENDBRANCH   4   9
ENDBRANCH   1   2
BRANCH   1  15
HETATM   15  N4  UNL     1      55.764  -6.230  13.231  1.00  0.00    -0.330 N
ATOM     16  H4  UNL     1      55.841  -5.404  13.826  1.00  0.00     0.180 HD
BRANCH  15  17
HETATM   17  C7  UNL     1      54.919  -6.244  12.085  1.00  0.00     0.166 C
BRANCH  17  18
HETATM   18  C8  UNL     1      53.875  -5.142  12.200  1.00  0.00     0.250 C
BRANCH  18  19
HETATM   19  N5  UNL     1      52.801  -5.506  11.256  1.00  0.00    -0.078 N
ATOM     20  H53 UNL     1      52.809  -4.955  10.397  1.00  0.00     0.274 HD
ATOM     21  H52 UNL     1      52.934  -6.417  10.818  1.00  0.00     0.274 HD
ATOM     22  H51 UNL     1      51.930  -5.428  11.782  1.00  0.00     0.274 HD
ENDBRANCH  18  19
ENDBRANCH  17  18
ENDBRANCH  15  17
ENDBRANCH   1  15
BRANCH   1  23
HETATM   23  C9  UNL     1      56.131  -8.166  14.642  1.00  0.00     0.110 C
HETATM   24  C10 UNL     1      56.155  -9.633  14.296  1.00  0.00     0.027 C
HETATM   25  C11 UNL     1      55.337 -10.455  15.267  1.00  0.00     0.002 C
HETATM   26  C12 UNL     1      55.259  -9.866  16.634  1.00  0.00     0.000 C
HETATM   27  C13 UNL     1      54.896  -8.420  16.698  1.00  0.00     0.002 C
HETATM   28  C14 UNL     1      54.807  -7.846  15.276  1.00  0.00     0.027 C
ENDBRANCH   1  23
TORSDOF 10
ENDMDL