MODEL 2
REMARK VINA RESULT: -6.892861939      2.031      2.443
REMARK  9 active torsions:
REMARK  status: ('A' for Active; 'I' for Inactive)
REMARK    1  A    between atoms: C2_2  and  C3_3
REMARK    2  A    between atoms: C3_3  and  C4_4
REMARK    3  A    between atoms: C5_9  and  S1_10
REMARK    4  A    between atoms: S1_10  and  C6_11
REMARK    5  A    between atoms: C6_11  and  C7_12
REMARK    6  A    between atoms: C7_12  and  N3_13
REMARK    7  A    between atoms: C8_18  and  C9_19
REMARK    8  A    between atoms: C9_19  and  O1_20
REMARK    9  A    between atoms: C11_22  and  N6_23
ROOT
HETATM    1  C7  UNL     1      61.596  -8.125  12.098  1.00  0.00     0.163 C
ENDROOT
BRANCH   1   2
HETATM    2  C6  UNL     1      60.364  -7.478  11.518  1.00  0.00     0.103 C
BRANCH   2   3
HETATM    3  S1  UNL     1      58.937  -8.535  11.420  1.00  0.00    -0.109 SA
BRANCH   3   4
HETATM    4  C5  UNL     1      58.154  -8.795  12.997  1.00  0.00     0.092 A
HETATM    5  N2  UNL     1      58.513  -9.536  14.046  1.00  0.00    -0.293 N
HETATM    6  N1  UNL     1      57.635  -9.433  15.018  1.00  0.00    -0.303 N
ATOM      7  H2  UNL     1      59.358 -10.107  14.089  1.00  0.00     0.187 HD
HETATM    8  C4  UNL     1      56.609  -8.586  14.646  1.00  0.00     0.034 A
ATOM      9  H1  UNL     1      57.700  -9.910  15.917  1.00  0.00     0.186 HD
HETATM   10  C12 UNL     1      56.947  -8.193  13.380  1.00  0.00    -0.003 A
HETATM   11  C13 UNL     1      56.190  -7.247  12.532  1.00  0.00     0.053 C
BRANCH   8  12
HETATM   12  C3  UNL     1      55.452  -8.286  15.511  1.00  0.00     0.059 C
BRANCH  12  13
HETATM   13  C2  UNL     1      54.978  -9.345  16.417  1.00  0.00     0.002 C
HETATM   14  C1  UNL     1      53.682  -9.998  16.027  1.00  0.00     0.005 C
ENDBRANCH  12  13
ENDBRANCH   8  12
ENDBRANCH   3   4
ENDBRANCH   2   3
ENDBRANCH   1   2
BRANCH   1  15
HETATM   15  N3  UNL     1      62.421  -8.585  10.970  1.00  0.00    -0.260 N
HETATM   16  N4  UNL     1      62.874  -7.840   9.977  1.00  0.00    -0.239 N
HETATM   17  N5  UNL     1      63.577  -8.566   9.142  1.00  0.00    -0.284 N
ATOM     18  H4  UNL     1      62.702  -6.839   9.876  1.00  0.00     0.208 HD
HETATM   19  C8  UNL     1      63.592  -9.804   9.581  1.00  0.00     0.095 A
ATOM     20  H5  UNL     1      64.034  -8.228   8.295  1.00  0.00     0.188 HD
HETATM   21  C11 UNL     1      62.843  -9.823  10.768  1.00  0.00     0.143 A
BRANCH  19  22
HETATM   22  C9  UNL     1      64.214 -10.982   8.981  1.00  0.00     0.229 C
BRANCH  22  23
HETATM   23  O1  UNL     1      63.471 -12.107   8.960  1.00  0.00    -0.390 OA
HETATM   24  C10 UNL     1      62.822 -12.346   7.797  1.00  0.00     0.201 C
ENDBRANCH  22  23
ENDBRANCH  19  22
BRANCH  21  25
HETATM   25  N6  UNL     1      62.626 -10.859  11.500  1.00  0.00    -0.383 N
ATOM     26  H62 UNL     1      62.166 -11.716  11.194  1.00  0.00     0.157 HD
ATOM     27  H61 UNL     1      62.870 -10.993  12.481  1.00  0.00     0.157 HD
ENDBRANCH  21  25
ENDBRANCH   1  15
TORSDOF 9
ENDMDL