MODEL 3
REMARK VINA RESULT: -6.294641279      1.265      1.632
REMARK  8 active torsions:
REMARK  status: ('A' for Active; 'I' for Inactive)
REMARK    1  A    between atoms: S1_2  and  C2_3
REMARK    2  A    between atoms: C4_5  and  S2_6
REMARK    3  A    between atoms: N2_11  and  C7_13
REMARK    4  A    between atoms: C7_13  and  C8_14
REMARK    5  A    between atoms: C8_14  and  O1_15
REMARK    6  A    between atoms: C8_14  and  C9_17
REMARK    7  A    between atoms: C9_17  and  N3_18
REMARK    8  A    between atoms: N3_18  and  C10_20
ROOT
HETATM    1  C2  UNL     1      57.374  -9.492  14.868  1.00  0.00     0.088 A
HETATM    2  C3  UNL     1      56.450  -8.690  14.232  1.00  0.00     0.074 A
HETATM    3  C4  UNL     1      56.799  -8.025  13.090  1.00  0.00     0.088 A
HETATM    4  N1  UNL     1      58.069  -8.193  12.629  1.00  0.00    -0.185 N
ATOM      5  H1  UNL     1      58.335  -7.699  11.778  1.00  0.00     0.185 HD
HETATM    6  C6  UNL     1      58.991  -8.961  13.217  1.00  0.00     0.683 A
HETATM    7  N2  UNL     1      60.189  -9.136  12.783  1.00  0.00    -0.203 N
ATOM      8  H2  UNL     1      60.808  -9.748  13.314  1.00  0.00     0.183 HD
HETATM    9  N4  UNL     1      58.600  -9.614  14.366  1.00  0.00    -0.185 N
ATOM     10  H4  UNL     1      59.273 -10.210  14.848  1.00  0.00     0.185 HD
ENDROOT
BRANCH   7  11
HETATM   11  C7  UNL     1      60.694  -8.533  11.620  1.00  0.00     0.112 C
BRANCH  11  12
HETATM   12  C8  UNL     1      62.109  -8.931  11.247  1.00  0.00     0.174 C
BRANCH  12  13
HETATM   13  O1  UNL     1      62.399  -8.223  10.061  1.00  0.00    -0.389 OA
ATOM     14  H1  UNL     1      63.056  -7.581  10.303  1.00  0.00     0.210 HD
ENDBRANCH  12  13
BRANCH  12  15
HETATM   15  C9  UNL     1      62.220 -10.382  10.867  1.00  0.00     0.151 C
BRANCH  15  16
HETATM   16  N3  UNL     1      63.285 -10.974  11.612  1.00  0.00    -0.415 N
ATOM     17  H3  UNL     1      63.931 -10.405  12.160  1.00  0.00     0.153 HD
BRANCH  16  18
HETATM   18  C10 UNL     1      63.405 -12.386  11.557  1.00  0.00     0.068 C
HETATM   19  C11 UNL     1      63.014 -13.013  10.244  1.00  0.00     0.031 C
HETATM   20  C12 UNL     1      64.836 -12.844  11.865  1.00  0.00     0.031 C
ENDBRANCH  16  18
ENDBRANCH  15  16
ENDBRANCH  12  15
ENDBRANCH  11  12
ENDBRANCH   7  11
BRANCH   3  21
HETATM   21  S2  UNL     1      55.693  -6.968  12.174  1.00  0.00    -0.116 SA
HETATM   22  C5  UNL     1      54.948  -5.691  13.218  1.00  0.00     0.097 C
ENDBRANCH   3  21
BRANCH   1  23
HETATM   23  S1  UNL     1      56.858 -10.324  16.372  1.00  0.00    -0.116 SA
HETATM   24  C1  UNL     1      55.156  -9.942  16.798  1.00  0.00     0.097 C
ENDBRANCH   1  23
TORSDOF 8
ENDMDL