MODEL 5
REMARK VINA RESULT: -6.727225771      0.559      1.292
REMARK  8 active torsions:
REMARK  status: ('A' for Active; 'I' for Inactive)
REMARK    1  A    between atoms: C2_2  and  C4_4
REMARK    2  A    between atoms: C5_9  and  C6_10
REMARK    3  A    between atoms: C6_10  and  N3_11
REMARK    4  A    between atoms: N3_11  and  C7_13
REMARK    5  A    between atoms: C7_13  and  C8_17
REMARK    6  A    between atoms: C8_17  and  N5_18
REMARK    7  A    between atoms: N5_18  and  C9_21
REMARK    8  A    between atoms: C9_21  and  C10_22
ROOT
HETATM    1  C7  UNL     1      60.631  -8.193  11.556  1.00  0.00     0.097 C
HETATM    2  N4  UNL     1      61.260  -7.461  10.718  1.00  0.00    -0.388 N
ATOM      3  H41 UNL     1      62.116  -7.795  10.277  1.00  0.00     0.157 HD
ATOM      4  H42 UNL     1      60.898  -6.534  10.492  1.00  0.00     0.157 HD
ENDROOT
BRANCH   1   5
HETATM    5  N3  UNL     1      59.454  -7.733  12.163  1.00  0.00    -0.371 N
ATOM      6  H3  UNL     1      59.457  -6.855  12.681  1.00  0.00     0.161 HD
BRANCH   5   7
HETATM    7  C6  UNL     1      58.240  -8.503  12.053  1.00  0.00     0.207 C
BRANCH   7   8
HETATM    8  C5  UNL     1      57.703  -8.829  13.415  1.00  0.00     0.158 A
HETATM    9  N2  UNL     1      58.340  -9.570  14.364  1.00  0.00    -0.280 N
HETATM   10  N1  UNL     1      57.537  -9.632  15.433  1.00  0.00    -0.281 N
ATOM     11  H2  UNL     1      59.260 -10.000  14.276  1.00  0.00     0.189 HD
HETATM   12  C4  UNL     1      56.422  -8.942  15.156  1.00  0.00     0.143 A
ATOM     13  H1  UNL     1      57.739 -10.119  16.306  1.00  0.00     0.189 HD
HETATM   14  O1  UNL     1      56.575  -8.485  13.940  1.00  0.00    -0.280 OA
BRANCH  12  15
HETATM   15  C2  UNL     1      55.231  -8.730  16.050  1.00  0.00     0.054 C
HETATM   16  C1  UNL     1      54.303  -9.898  15.997  1.00  0.00     0.018 C
HETATM   17  C3  UNL     1      54.577  -7.440  15.586  1.00  0.00     0.018 C
ENDBRANCH  12  15
ENDBRANCH   7   8
ENDBRANCH   5   7
ENDBRANCH   1   5
BRANCH   1  18
HETATM   18  C8  UNL     1      61.154  -9.533  11.884  1.00  0.00     0.307 C
BRANCH  18  19
HETATM   19  N5  UNL     1      62.300  -9.846  11.050  1.00  0.00    -0.068 N
ATOM     20  H52 UNL     1      62.029  -9.984  10.076  1.00  0.00     0.277 HD
ATOM     21  H51 UNL     1      62.909  -9.036  10.930  1.00  0.00     0.277 HD
BRANCH  19  22
HETATM   22  C9  UNL     1      63.030 -10.990  11.568  1.00  0.00     0.237 C
BRANCH  22  23
HETATM   23  C10 UNL     1      63.662 -11.793  10.456  1.00  0.00     0.012 C
HETATM   24  C11 UNL     1      62.900 -13.093  10.337  1.00  0.00     0.016 C
HETATM   25  C12 UNL     1      63.159 -13.777   9.012  1.00  0.00     0.074 C
HETATM   26  S1  UNL     1      64.786 -13.265   8.348  1.00  0.00    -0.169 SA
HETATM   27  C13 UNL     1      64.770 -11.451   8.287  1.00  0.00     0.074 C
HETATM   28  C14 UNL     1      63.638 -10.994   9.191  1.00  0.00     0.016 C
ENDBRANCH  22  23
ENDBRANCH  19  22
ENDBRANCH  18  19
ENDBRANCH   1  18
TORSDOF 8
ENDMDL