MODEL 2
REMARK VINA RESULT: -6.305969277      1.288      1.652
REMARK  9 active torsions:
REMARK  status: ('A' for Active; 'I' for Inactive)
REMARK    1  A    between atoms: C4_6  and  N2_7
REMARK    2  A    between atoms: N5_16  and  C7_17
REMARK    3  A    between atoms: C7_17  and  C8_18
REMARK    4  A    between atoms: C8_18  and  N6_19
REMARK    5  A    between atoms: N6_19  and  C9_22
REMARK    6  A    between atoms: C9_22  and  C10_23
REMARK    7  A    between atoms: C10_23  and  S1_24
REMARK    8  A    between atoms: S1_24  and  C11_25
REMARK    9  A    between atoms: C11_25  and  C12_26
ROOT
HETATM    1  C1  UNL     1      55.057  -5.985  13.002  1.00  0.00     0.089 C
HETATM    2  C2  UNL     1      55.582  -7.116  13.843  1.00  0.00     0.081 A
HETATM    3  N1  UNL     1      54.941  -7.719  14.859  1.00  0.00    -0.340 N
ATOM      4  H1  UNL     1      54.006  -7.469  15.180  1.00  0.00     0.167 HD
HETATM    5  C3  UNL     1      55.697  -8.692  15.395  1.00  0.00     0.122 A
HETATM    6  C4  UNL     1      55.526  -9.601  16.435  1.00  0.00     0.131 A
HETATM    7  N3  UNL     1      56.488 -10.498  16.762  1.00  0.00    -0.337 N
ATOM      8  H3  UNL     1      56.355 -11.162  17.524  1.00  0.00     0.168 HD
HETATM    9  C5  UNL     1      57.621 -10.480  16.043  1.00  0.00     0.183 A
HETATM   10  N4  UNL     1      57.793  -9.605  15.037  1.00  0.00    -0.336 N
ATOM     11  H4  UNL     1      58.673  -9.633  14.521  1.00  0.00     0.168 HD
HETATM   12  C6  UNL     1      56.873  -8.694  14.670  1.00  0.00     0.141 A
HETATM   13  N5  UNL     1      56.778  -7.725  13.732  1.00  0.00    -0.319 N
ENDROOT
BRANCH  13  14
HETATM   14  C7  UNL     1      57.807  -7.429  12.786  1.00  0.00     0.159 C
BRANCH  14  15
HETATM   15  C8  UNL     1      57.947  -8.399  11.669  1.00  0.00     0.252 C
BRANCH  15  16
HETATM   16  N6  UNL     1      59.261  -8.551  11.132  1.00  0.00    -0.073 N
ATOM     17  H62 UNL     1      59.342  -9.327  10.474  1.00  0.00     0.277 HD
ATOM     18  H61 UNL     1      59.522  -7.808  10.484  1.00  0.00     0.277 HD
BRANCH  16  19
HETATM   19  C9  UNL     1      60.171  -8.668  12.284  1.00  0.00     0.242 C
BRANCH  19  20
HETATM   20  C10 UNL     1      61.568  -8.233  11.898  1.00  0.00     0.101 C
BRANCH  20  21
HETATM   21  S1  UNL     1      62.538  -9.558  11.195  1.00  0.00    -0.167 SA
BRANCH  21  22
HETATM   22  C11 UNL     1      64.107  -9.124  10.507  1.00  0.00     0.077 C
BRANCH  22  23
HETATM   23  C12 UNL     1      64.102  -8.209   9.319  1.00  0.00    -0.013 C
HETATM   24  C13 UNL     1      65.351  -7.381   9.227  1.00  0.00     0.010 C
HETATM   25  C14 UNL     1      63.928  -9.035   8.034  1.00  0.00     0.010 C
ENDBRANCH  22  23
ENDBRANCH  21  22
ENDBRANCH  20  21
ENDBRANCH  19  20
ENDBRANCH  16  19
ENDBRANCH  15  16
ENDBRANCH  14  15
ENDBRANCH  13  14
BRANCH   6  26
HETATM   26  N2  UNL     1      54.410  -9.553  17.075  1.00  0.00    -0.383 N
ATOM     27  H22 UNL     1      54.385  -9.499  18.094  1.00  0.00     0.157 HD
ATOM     28  H21 UNL     1      53.555  -9.573  16.519  1.00  0.00     0.157 HD
ENDBRANCH   6  26
TORSDOF 9
ENDMDL