MODEL 5
REMARK VINA RESULT: -6.185799576      2.096      6.466
REMARK  8 active torsions:
REMARK  status: ('A' for Active; 'I' for Inactive)
REMARK    1  A    between atoms: C2_2  and  C3_3
REMARK    2  A    between atoms: C3_3  and  C5_5
REMARK    3  A    between atoms: C5_5  and  S1_6
REMARK    4  A    between atoms: S1_6  and  C6_7
REMARK    5  A    between atoms: C6_7  and  C7_8
REMARK    6  A    between atoms: C6_7  and  C12_18
REMARK    7  A    between atoms: C7_8  and  N1_9
REMARK    8  A    between atoms: N1_9  and  C8_11
ROOT
HETATM    1  C6  UNL     1      57.632  -8.416  13.757  1.00  0.00     0.136 C
ENDROOT
BRANCH   1   2
HETATM    2  S1  UNL     1      56.797  -7.791  12.253  1.00  0.00    -0.152 SA
BRANCH   2   3
HETATM    3  C5  UNL     1      55.765  -6.392  12.784  1.00  0.00     0.079 C
BRANCH   3   4
HETATM    4  C3  UNL     1      54.433  -6.393  12.056  1.00  0.00    -0.010 C
HETATM    5  C4  UNL     1      54.564  -6.930  10.666  1.00  0.00     0.011 C
BRANCH   4   6
HETATM    6  C2  UNL     1      53.825  -5.024  12.128  1.00  0.00     0.000 C
HETATM    7  C1  UNL     1      52.676  -4.825  11.200  1.00  0.00     0.005 C
ENDBRANCH   4   6
ENDBRANCH   3   4
ENDBRANCH   2   3
ENDBRANCH   1   2
BRANCH   1   8
HETATM    8  C7  UNL     1      58.554  -9.554  13.423  1.00  0.00     0.077 C
BRANCH   8   9
HETATM    9  N1  UNL     1      59.928  -9.271  13.289  1.00  0.00    -0.394 N
ATOM     10  H1  UNL     1      60.521  -9.261  14.119  1.00  0.00     0.159 HD
BRANCH   9  11
HETATM   11  C8  UNL     1      60.495  -9.003  12.038  1.00  0.00     0.107 C
HETATM   12  C9  UNL     1      61.806  -9.631  11.677  1.00  0.00     0.054 C
HETATM   13  C10 UNL     1      62.508  -8.615  10.770  1.00  0.00     0.234 C
HETATM   14  N2  UNL     1      61.517  -7.588  10.580  1.00  0.00    -0.073 N
HETATM   15  C11 UNL     1      60.864  -7.513  11.874  1.00  0.00     0.257 C
ATOM     16  H22 UNL     1      61.887  -6.700  10.239  1.00  0.00     0.277 HD
ATOM     17  H21 UNL     1      60.886  -7.747   9.794  1.00  0.00     0.277 HD
ENDBRANCH   9  11
ENDBRANCH   8   9
ENDBRANCH   1   8
BRANCH   1  18
HETATM   18  C12 UNL     1      56.518  -8.897  14.653  1.00  0.00     0.043 A
HETATM   19  C13 UNL     1      55.949 -10.143  14.513  1.00  0.00     0.116 A
HETATM   20  N3  UNL     1      54.959 -10.551  15.325  1.00  0.00    -0.352 N
HETATM   21  C14 UNL     1      54.517  -9.710  16.304  1.00  0.00     0.131 A
ATOM     22  H3  UNL     1      54.544 -11.475  15.211  1.00  0.00     0.166 HD
HETATM   23  N4  UNL     1      53.473 -10.075  17.200  1.00  0.00    -0.081 NA
HETATM   24  C15 UNL     1      55.080  -8.460  16.452  1.00  0.00     0.133 A
HETATM   25  N5  UNL     1      56.070  -8.095  15.615  1.00  0.00    -0.364 N
ATOM     26  H5  UNL     1      56.491  -7.171  15.721  1.00  0.00     0.165 HD
ENDBRANCH   1  18
TORSDOF 8
ENDMDL