MODEL 3
REMARK VINA RESULT: -6.949087237      2.605      4.283
REMARK  4 active torsions:
REMARK  status: ('A' for Active; 'I' for Inactive)
REMARK    1  A    between atoms: C4_7  and  N3_8
REMARK    2  A    between atoms: N3_8  and  C5_10
REMARK    3  A    between atoms: C8_19  and  N7_20
REMARK    4  A    between atoms: N7_20  and  C9_22
ROOT
HETATM    1  N1  UNL     1       8.505  45.330  19.053  1.00  0.00    -0.191 NA
HETATM    2  C1  UNL     1       9.663  45.388  19.031  1.00  0.00     0.104 C
HETATM    3  C2  UNL     1      11.092  45.440  18.968  1.00  0.00     0.105 A
HETATM    4  C3  UNL     1      11.725  44.878  17.839  1.00  0.00     0.132 A
HETATM    5  N2  UNL     1      13.065  44.920  17.766  1.00  0.00    -0.200 N
ATOM      6  H2  UNL     1      13.532  44.517  16.954  1.00  0.00     0.183 HD
HETATM    7  C4  UNL     1      13.804  45.481  18.738  1.00  0.00     0.685 A
HETATM    8  N6  UNL     1      13.191  46.003  19.789  1.00  0.00    -0.175 N
ATOM      9  H6  UNL     1      13.768  46.425  20.517  1.00  0.00     0.186 HD
HETATM   10  C8  UNL     1      11.824  46.013  19.964  1.00  0.00     0.143 A
ENDROOT
BRANCH  10  11
HETATM   11  N7  UNL     1      11.358  46.521  20.972  1.00  0.00    -0.341 N
ATOM     12  H7  UNL     1      11.826  46.103  21.775  1.00  0.00     0.167 HD
BRANCH  11  13
HETATM   13  C9  UNL     1      10.458  47.425  21.443  1.00  0.00     0.033 A
HETATM   14  C10 UNL     1       9.377  47.062  22.228  1.00  0.00     0.029 A
HETATM   15  C11 UNL     1       8.483  47.996  22.670  1.00  0.00     0.002 A
HETATM   16  C12 UNL     1       8.611  49.337  22.359  1.00  0.00     0.000 A
HETATM   17  C13 UNL     1       9.698  49.676  21.574  1.00  0.00     0.002 A
HETATM   18  C14 UNL     1      10.600  48.755  21.124  1.00  0.00     0.029 A
ENDBRANCH  11  13
ENDBRANCH  10  11
BRANCH   7  19
HETATM   19  N3  UNL     1      15.108  45.491  18.610  1.00  0.00    -0.175 N
ATOM     20  H3  UNL     1      15.633  44.656  18.870  1.00  0.00     0.186 HD
BRANCH  19  21
HETATM   21  C5  UNL     1      15.809  46.603  18.130  1.00  0.00     0.136 A
HETATM   22  C6  UNL     1      15.593  47.316  16.953  1.00  0.00     0.069 A
HETATM   23  C7  UNL     1      16.552  48.310  16.962  1.00  0.00     0.111 A
HETATM   24  N4  UNL     1      17.281  48.173  18.087  1.00  0.00    -0.310 N
HETATM   25  N5  UNL     1      16.854  47.165  18.793  1.00  0.00    -0.285 N
ATOM     26  H4  UNL     1      18.060  48.777  18.350  1.00  0.00     0.186 HD
ATOM     27  H5  UNL     1      17.238  46.853  19.685  1.00  0.00     0.188 HD
ENDBRANCH  19  21
ENDBRANCH   7  19
TORSDOF 4
ENDMDL