MODEL 4
REMARK VINA RESULT: -7.294499271      1.113      1.860
REMARK  3 active torsions:
REMARK  status: ('A' for Active; 'I' for Inactive)
REMARK    1  A    between atoms: C4_9  and  N3_10
REMARK    2  A    between atoms: N3_10  and  C5_12
REMARK    3  A    between atoms: C5_12  and  C6_13
ROOT
HETATM    1  C6  UNL     1      12.095  45.780  19.567  1.00  0.00    -0.038 A
HETATM    2  C7  UNL     1      11.211  45.123  18.733  1.00  0.00     0.009 A
HETATM    3  C8  UNL     1       9.856  45.331  18.881  1.00  0.00     0.002 A
HETATM    4  C9  UNL     1       9.362  46.188  19.853  1.00  0.00     0.022 A
HETATM    5  C10 UNL     1      10.248  46.854  20.697  1.00  0.00     0.045 A
HETATM    6  C11 UNL     1       9.768  47.751  21.716  1.00  0.00     0.099 C
HETATM    7  N4  UNL     1       9.394  48.493  22.540  1.00  0.00    -0.191 NA
HETATM    8  C12 UNL     1      11.610  46.639  20.540  1.00  0.00     0.031 A
ENDROOT
BRANCH   1   9
HETATM    9  C5  UNL     1      13.560  45.619  19.481  1.00  0.00     0.176 C
BRANCH   9  10
HETATM   10  N3  UNL     1      14.031  45.589  18.125  1.00  0.00    -0.222 N
ATOM     11  H3  UNL     1      13.790  44.810  17.513  1.00  0.00     0.178 HD
BRANCH  10  12
HETATM   12  C4  UNL     1      14.765  46.557  17.689  1.00  0.00     0.682 A
HETATM   13  N2  UNL     1      16.086  46.631  17.966  1.00  0.00    -0.167 N
HETATM   14  C3  UNL     1      16.881  47.624  17.530  1.00  0.00     0.200 A
ATOM     15  H2  UNL     1      16.502  45.895  18.537  1.00  0.00     0.186 HD
HETATM   16  O1  UNL     1      18.143  47.938  17.639  1.00  0.00    -0.218 OA
HETATM   17  C14 UNL     1      16.309  48.604  16.766  1.00  0.00     0.086 A
HETATM   18  N1  UNL     1      18.415  49.038  17.006  1.00  0.00    -0.263 N
HETATM   19  C2  UNL     1      17.291  49.505  16.433  1.00  0.00     0.047 A
ATOM     20  H1  UNL     1      19.334  49.477  16.952  1.00  0.00     0.194 HD
HETATM   21  C1  UNL     1      17.182  50.747  15.617  1.00  0.00     0.071 C
HETATM   22  C13 UNL     1      14.971  48.562  16.465  1.00  0.00     0.131 A
HETATM   23  N5  UNL     1      14.240  47.538  16.937  1.00  0.00    -0.176 N
HETATM   24  N6  UNL     1      14.482  49.507  15.744  1.00  0.00    -0.384 N
ATOM     25  H5  UNL     1      13.245  47.504  16.716  1.00  0.00     0.186 HD
ATOM     26  H62 UNL     1      13.488  49.475  15.520  1.00  0.00     0.157 HD
ATOM     27  H61 UNL     1      15.037  50.284  15.386  1.00  0.00     0.157 HD
ENDBRANCH  10  12
ENDBRANCH   9  10
ENDBRANCH   1   9
TORSDOF 3
ENDMDL