MODEL 2
REMARK VINA RESULT: -6.717326881      1.667      7.179
REMARK  3 active torsions:
REMARK  status: ('A' for Active; 'I' for Inactive)
REMARK    1  A    between atoms: N1_2  and  C3_4
REMARK    2  A    between atoms: C6_13  and  N5_14
REMARK    3  A    between atoms: N5_14  and  C7_16
ROOT
HETATM    1  C3  UNL     1      16.408  47.354  16.207  1.00  0.00     0.135 A
HETATM    2  N2  UNL     1      17.748  47.436  16.279  1.00  0.00    -0.337 N
ATOM      3  H2  UNL     1      18.255  47.832  15.487  1.00  0.00     0.168 HD
HETATM    4  C4  UNL     1      18.451  47.021  17.351  1.00  0.00     0.183 A
HETATM    5  N3  UNL     1      17.855  46.490  18.431  1.00  0.00    -0.336 N
ATOM      6  H3  UNL     1      18.395  46.177  19.239  1.00  0.00     0.168 HD
HETATM    7  C5  UNL     1      16.505  46.387  18.401  1.00  0.00     0.153 A
HETATM    8  N4  UNL     1      15.604  45.912  19.294  1.00  0.00    -0.174 N
ATOM      9  H4  UNL     1      15.840  45.527  20.208  1.00  0.00     0.186 HD
HETATM   10  C6  UNL     1      14.343  46.023  18.803  1.00  0.00     0.686 A
HETATM   11  N8  UNL     1      14.474  46.583  17.567  1.00  0.00    -0.184 N
ATOM     12  H8  UNL     1      13.703  46.797  16.935  1.00  0.00     0.184 HD
HETATM   13  C14 UNL     1      15.775  46.810  17.307  1.00  0.00     0.137 A
ENDROOT
BRANCH  10  14
HETATM   14  N5  UNL     1      13.199  45.631  19.432  1.00  0.00    -0.175 N
ATOM     15  H5  UNL     1      13.418  45.201  20.331  1.00  0.00     0.186 HD
BRANCH  14  16
HETATM   16  C7  UNL     1      11.976  45.637  19.246  1.00  0.00     0.133 A
HETATM   17  N6  UNL     1      11.489  44.950  18.165  1.00  0.00    -0.351 N
HETATM   18  C8  UNL     1      10.194  44.881  17.856  1.00  0.00     0.092 A
ATOM     19  H6  UNL     1      12.154  44.464  17.563  1.00  0.00     0.166 HD
HETATM   20  C9  UNL     1       9.301  45.537  18.668  1.00  0.00     0.047 A
HETATM   21  C10 UNL     1       9.748  46.248  19.779  1.00  0.00     0.047 A
HETATM   22  N7  UNL     1       9.057  46.964  20.711  1.00  0.00    -0.365 N
HETATM   23  C13 UNL     1      11.094  46.298  20.067  1.00  0.00     0.036 A
HETATM   24  C11 UNL     1       9.953  47.454  21.571  1.00  0.00     0.089 A
ATOM     25  H7  UNL     1       8.046  47.099  20.745  1.00  0.00     0.165 HD
HETATM   26  C12 UNL     1      11.226  47.068  21.212  1.00  0.00     0.034 A
ENDBRANCH  14  16
ENDBRANCH  10  14
BRANCH   1  27
HETATM   27  N1  UNL     1      15.676  47.787  15.087  1.00  0.00    -0.374 N
HETATM   28  C1  UNL     1      15.240  49.188  15.067  1.00  0.00     0.150 C
HETATM   29  C2  UNL     1      15.350  46.927  13.995  1.00  0.00     0.150 C
ENDBRANCH   1  27
TORSDOF 3
ENDMDL