MODEL 2
REMARK VINA RESULT: -7.258256322      3.683      7.264
REMARK  3 active torsions:
REMARK  status: ('A' for Active; 'I' for Inactive)
REMARK    1  A    between atoms: C2_2  and  N1_4
REMARK    2  A    between atoms: C5_6  and  C6_7
REMARK    3  A    between atoms: C10_13  and  N3_14
ROOT
HETATM    1  C6  UNL     1      13.715  45.558  18.598  1.00  0.00    -0.021 A
HETATM    2  C7  UNL     1      13.205  44.901  17.492  1.00  0.00     0.014 A
HETATM    3  C8  UNL     1      11.848  44.716  17.408  1.00  0.00     0.033 A
HETATM    4  C9  UNL     1      10.967  45.154  18.373  1.00  0.00     0.060 A
HETATM    5  N2  UNL     1       9.631  44.986  18.316  1.00  0.00    -0.339 N
ATOM      6  H2  UNL     1       9.240  44.503  17.507  1.00  0.00     0.167 HD
HETATM    7  C10 UNL     1       8.785  45.421  19.267  1.00  0.00     0.137 A
HETATM    8  C11 UNL     1       9.320  46.077  20.365  1.00  0.00     0.158 A
HETATM    9  C12 UNL     1       8.431  46.546  21.384  1.00  0.00     0.121 C
HETATM   10  N4  UNL     1       7.697  46.917  22.197  1.00  0.00    -0.190 NA
HETATM   11  N5  UNL     1      10.670  46.258  20.443  1.00  0.00    -0.343 N
ATOM     12  H5  UNL     1      11.060  46.740  21.252  1.00  0.00     0.167 HD
HETATM   13  C13 UNL     1      11.500  45.817  19.483  1.00  0.00     0.061 A
HETATM   14  C14 UNL     1      12.841  46.009  19.584  1.00  0.00     0.044 A
ENDROOT
BRANCH   7  15
HETATM   15  N3  UNL     1       7.512  45.238  19.172  1.00  0.00    -0.383 N
ATOM     16  H32 UNL     1       7.049  45.292  18.265  1.00  0.00     0.157 HD
ATOM     17  H31 UNL     1       6.940  45.038  19.992  1.00  0.00     0.157 HD
ENDBRANCH   7  15
BRANCH   1  18
HETATM   18  C5  UNL     1      15.148  45.794  18.756  1.00  0.00     0.008 A
HETATM   19  C4  UNL     1      15.995  45.272  19.725  1.00  0.00     0.124 A
HETATM   20  N1  UNL     1      17.243  45.728  19.538  1.00  0.00    -0.299 N
HETATM   21  N6  UNL     1      17.203  46.521  18.481  1.00  0.00    -0.309 N
HETATM   22  C15 UNL     1      15.960  46.589  17.978  1.00  0.00     0.121 A
ATOM     23  H6  UNL     1      18.010  47.014  18.097  1.00  0.00     0.186 HD
BRANCH  20  24
HETATM   24  C2  UNL     1      18.422  45.403  20.353  1.00  0.00     0.099 C
HETATM   25  C1  UNL     1      19.563  45.144  19.425  1.00  0.00     0.034 C
HETATM   26  C3  UNL     1      18.116  44.256  21.266  1.00  0.00     0.034 C
ENDBRANCH  20  24
ENDBRANCH   1  18
TORSDOF 3
ENDMDL