MODEL 1
REMARK VINA RESULT: -6.859585049      0.000      0.000
REMARK  4 active torsions:
REMARK  status: ('A' for Active; 'I' for Inactive)
REMARK    1  A    between atoms: C4_6  and  N2_7
REMARK    2  A    between atoms: C5_12  and  C6_13
REMARK    3  A    between atoms: C9_18  and  N5_19
REMARK    4  A    between atoms: N5_19  and  C10_21
ROOT
HETATM    1  C6  UNL     1      12.393  44.301  17.193  1.00  0.00     0.078 A
HETATM    2  C7  UNL     1      13.487  44.661  17.948  1.00  0.00     0.050 A
HETATM    3  C8  UNL     1      13.327  45.314  19.185  1.00  0.00     0.108 A
HETATM    4  N4  UNL     1      12.114  45.608  19.668  1.00  0.00    -0.202 N
ATOM      5  H4  UNL     1      11.998  46.081  20.564  1.00  0.00     0.183 HD
HETATM    6  C9  UNL     1      11.060  45.254  18.923  1.00  0.00     0.683 A
HETATM    7  N7  UNL     1      11.201  44.630  17.743  1.00  0.00    -0.189 N
ATOM      8  H7  UNL     1      10.355  44.389  17.227  1.00  0.00     0.184 HD
ENDROOT
BRANCH   1   9
HETATM    9  C5  UNL     1      12.503  43.618  15.899  1.00  0.00     0.083 A
HETATM   10  C2  UNL     1      12.190  44.226  14.706  1.00  0.00    -0.016 A
HETATM   11  C1  UNL     1      11.712  45.630  14.647  1.00  0.00     0.052 C
HETATM   12  C3  UNL     1      12.321  43.509  13.516  1.00  0.00     0.115 A
HETATM   13  N1  UNL     1      12.747  42.244  13.519  1.00  0.00    -0.202 N
HETATM   14  C4  UNL     1      13.047  41.667  14.676  1.00  0.00     0.676 A
ATOM     15  H1  UNL     1      12.839  41.728  12.644  1.00  0.00     0.183 HD
HETATM   16  N3  UNL     1      12.926  42.343  15.835  1.00  0.00    -0.189 N
ATOM     17  H3  UNL     1      13.167  41.865  16.704  1.00  0.00     0.184 HD
BRANCH  14  18
HETATM   18  N2  UNL     1      13.460  40.439  14.692  1.00  0.00    -0.234 N
ATOM     19  H22 UNL     1      14.340  40.198  14.235  1.00  0.00     0.174 HD
ATOM     20  H21 UNL     1      12.903  39.725  15.161  1.00  0.00     0.174 HD
ENDBRANCH  14  18
ENDBRANCH   1   9
BRANCH   6  21
HETATM   21  N5  UNL     1       9.856  45.498  19.313  1.00  0.00    -0.190 N
ATOM     22  H5  UNL     1       9.087  45.021  18.842  1.00  0.00     0.184 HD
BRANCH  21  23
HETATM   23  C10 UNL     1       9.548  46.401  20.365  1.00  0.00     0.064 A
HETATM   24  C11 UNL     1      10.357  47.455  20.732  1.00  0.00     0.033 A
HETATM   25  C12 UNL     1       9.964  48.286  21.782  1.00  0.00     0.019 A
HETATM   26  C13 UNL     1       8.787  48.091  22.474  1.00  0.00     0.088 A
HETATM   27  N6  UNL     1       8.024  47.051  22.087  1.00  0.00    -0.373 N
HETATM   28  C14 UNL     1       8.375  46.223  21.071  1.00  0.00     0.117 A
ATOM     29  H6  UNL     1       7.147  46.880  22.577  1.00  0.00     0.164 HD
ENDBRANCH  21  23
ENDBRANCH   6  21
TORSDOF 4
ENDMDL