MODEL 1
REMARK VINA RESULT: -7.458252422      0.000      0.000
REMARK  4 active torsions:
REMARK  status: ('A' for Active; 'I' for Inactive)
REMARK    1  A    between atoms: C4_4  and  N1_5
REMARK    2  A    between atoms: N1_5  and  C5_7
REMARK    3  A    between atoms: C10_12  and  C11_13
REMARK    4  A    between atoms: C11_13  and  N2_14
ROOT
HETATM    1  C5  UNL     1      12.603  44.086  17.669  1.00  0.00     0.035 A
HETATM    2  C6  UNL     1      13.547  44.741  18.433  1.00  0.00     0.030 A
HETATM    3  C7  UNL     1      13.167  45.645  19.413  1.00  0.00     0.016 A
HETATM    4  C8  UNL     1      11.840  45.929  19.667  1.00  0.00    -0.006 A
HETATM    5  C9  UNL     1      11.450  46.831  20.643  1.00  0.00     0.042 A
HETATM    6  C10 UNL     1      10.102  47.077  20.855  1.00  0.00     0.052 A
HETATM    7  N3  UNL     1       9.225  46.413  20.084  1.00  0.00    -0.303 N
ATOM      8  H3  UNL     1       8.228  46.577  20.220  1.00  0.00     0.186 HD
HETATM    9  N4  UNL     1       9.609  45.554  19.154  1.00  0.00    -0.300 N
ATOM     10  H4  UNL     1       8.891  45.083  18.603  1.00  0.00     0.187 HD
HETATM   11  C12 UNL     1      10.901  45.270  18.898  1.00  0.00     0.060 A
HETATM   12  C13 UNL     1      11.276  44.368  17.920  1.00  0.00     0.061 A
ENDROOT
BRANCH   1  13
HETATM   13  N1  UNL     1      13.025  43.164  16.672  1.00  0.00    -0.342 N
ATOM     14  H1  UNL     1      13.475  42.305  16.987  1.00  0.00     0.167 HD
BRANCH  13  15
HETATM   15  C4  UNL     1      12.885  43.326  15.431  1.00  0.00     0.108 A
HETATM   16  C3  UNL     1      12.308  42.336  14.669  1.00  0.00     0.073 A
HETATM   17  C2  UNL     1      12.147  42.500  13.289  1.00  0.00     0.010 A
HETATM   18  C1  UNL     1      11.529  41.447  12.459  1.00  0.00     0.068 C
HETATM   19  N6  UNL     1      12.573  43.650  12.736  1.00  0.00    -0.350 N
HETATM   20  C14 UNL     1      13.129  44.590  13.499  1.00  0.00     0.078 A
ATOM     21  H6  UNL     1      12.471  43.802  11.732  1.00  0.00     0.167 HD
HETATM   22  N5  UNL     1      13.295  44.453  14.838  1.00  0.00    -0.332 N
HETATM   23  C15 UNL     1      13.586  45.844  12.855  1.00  0.00     0.089 C
ATOM     24  H5  UNL     1      13.726  45.197  15.386  1.00  0.00     0.168 HD
ENDBRANCH  13  15
ENDBRANCH   1  13
BRANCH   6  25
HETATM   25  C11 UNL     1       9.633  48.026  21.882  1.00  0.00     0.287 C
BRANCH  25  26
HETATM   26  N2  UNL     1       9.684  49.403  21.444  1.00  0.00    -0.074 N
ATOM     27  H23 UNL     1       9.338  50.029  22.171  1.00  0.00     0.274 HD
ATOM     28  H22 UNL     1      10.648  49.731  21.386  1.00  0.00     0.274 HD
ATOM     29  H21 UNL     1       9.192  49.559  20.564  1.00  0.00     0.274 HD
ENDBRANCH  25  26
ENDBRANCH   6  25
TORSDOF 4
ENDMDL