MODEL 5
REMARK VINA RESULT: -5.443184306      3.543      6.197
REMARK  4 active torsions:
REMARK  status: ('A' for Active; 'I' for Inactive)
REMARK    1  A    between atoms: O1_2  and  C2_3
REMARK    2  A    between atoms: C6_7  and  N1_8
REMARK    3  A    between atoms: N1_8  and  C7_10
REMARK    4  A    between atoms: C10_19  and  N5_20
ROOT
HETATM    1  C7  UNL     1      11.978  44.804  17.880  1.00  0.00     0.138 A
HETATM    2  N2  UNL     1      13.297  44.644  17.757  1.00  0.00    -0.337 N
ATOM      3  H2  UNL     1      13.681  44.101  16.984  1.00  0.00     0.168 HD
HETATM    4  C8  UNL     1      14.112  45.211  18.667  1.00  0.00     0.183 A
HETATM    5  N3  UNL     1      13.591  45.925  19.682  1.00  0.00    -0.336 N
ATOM      6  H3  UNL     1      14.224  46.346  20.362  1.00  0.00     0.168 HD
HETATM    7  C9  UNL     1      12.271  46.103  19.834  1.00  0.00     0.153 A
HETATM    8  N4  UNL     1      11.510  46.752  20.730  1.00  0.00    -0.174 N
ATOM      9  H4  UNL     1      11.845  47.277  21.538  1.00  0.00     0.186 HD
HETATM   10  C10 UNL     1      10.223  46.582  20.368  1.00  0.00     0.680 A
HETATM   11  N6  UNL     1      10.151  45.834  19.251  1.00  0.00    -0.180 N
HETATM   12  C11 UNL     1       8.963  45.438  18.561  1.00  0.00     0.176 C
HETATM   13  C12 UNL     1      11.411  45.529  18.907  1.00  0.00     0.139 A
ENDROOT
BRANCH   1  14
HETATM   14  N1  UNL     1      11.168  44.275  17.027  1.00  0.00    -0.340 N
ATOM     15  H1  UNL     1      10.541  43.527  17.323  1.00  0.00     0.167 HD
BRANCH  14  16
HETATM   16  C6  UNL     1      11.139  44.729  15.658  1.00  0.00     0.042 A
HETATM   17  C5  UNL     1      10.593  45.955  15.332  1.00  0.00     0.030 A
HETATM   18  C4  UNL     1      10.601  46.318  14.002  1.00  0.00     0.005 A
HETATM   19  C3  UNL     1      11.125  45.517  13.007  1.00  0.00     0.037 A
HETATM   20  C2  UNL     1      11.671  44.290  13.330  1.00  0.00     0.076 A
HETATM   21  C13 UNL     1      11.662  43.928  14.661  1.00  0.00    -0.002 A
HETATM   22  C14 UNL     1      12.250  42.606  15.010  1.00  0.00     0.053 C
BRANCH  20  23
HETATM   23  O1  UNL     1      12.211  43.449  12.353  1.00  0.00    -0.355 OA
HETATM   24  C1  UNL     1      11.341  42.945  11.356  1.00  0.00     0.210 C
ENDBRANCH  20  23
ENDBRANCH  14  16
ENDBRANCH   1  14
BRANCH  10  25
HETATM   25  N5  UNL     1       9.232  47.078  21.017  1.00  0.00    -0.234 N
ATOM     26  H52 UNL     1       8.852  48.019  20.913  1.00  0.00     0.174 HD
ATOM     27  H51 UNL     1       8.709  46.563  21.725  1.00  0.00     0.174 HD
ENDBRANCH  10  25
TORSDOF 4
ENDMDL