MODEL 5
REMARK VINA RESULT: -6.375203685      3.536      5.004
REMARK  4 active torsions:
REMARK  status: ('A' for Active; 'I' for Inactive)
REMARK    1  A    between atoms: C5_6  and  N2_7
REMARK    2  A    between atoms: N5_16  and  C8_17
REMARK    3  A    between atoms: C8_17  and  C9_18
REMARK    4  A    between atoms: C15_24  and  N6_25
ROOT
HETATM    1  C1  UNL     1      13.767  44.582  17.168  1.00  0.00     0.051 C
HETATM    2  C2  UNL     1      12.357  44.619  16.770  1.00  0.00    -0.020 A
HETATM    3  C3  UNL     1      11.966  44.240  15.471  1.00  0.00     0.095 A
HETATM    4  C4  UNL     1      12.993  43.815  14.543  1.00  0.00     0.104 C
HETATM    5  N1  UNL     1      13.807  43.482  13.788  1.00  0.00    -0.191 NA
HETATM    6  C5  UNL     1      10.656  44.267  15.075  1.00  0.00     0.122 A
HETATM    7  N3  UNL     1       9.687  44.656  15.913  1.00  0.00    -0.327 N
ATOM      8  H3  UNL     1       8.716  44.669  15.600  1.00  0.00     0.169 HD
HETATM    9  C6  UNL     1       9.994  45.029  17.164  1.00  0.00     0.122 A
HETATM   10  N4  UNL     1       9.015  45.427  18.025  1.00  0.00    -0.338 N
ATOM     11  H4  UNL     1       8.046  45.437  17.707  1.00  0.00     0.168 HD
HETATM   12  C7  UNL     1       9.295  45.804  19.278  1.00  0.00     0.186 A
HETATM   13  N5  UNL     1      10.566  45.799  19.724  1.00  0.00    -0.325 N
HETATM   14  C15 UNL     1      11.565  45.408  18.897  1.00  0.00     0.117 A
HETATM   15  C16 UNL     1      11.297  45.009  17.577  1.00  0.00     0.059 A
ENDROOT
BRANCH   6  16
HETATM   16  N2  UNL     1      10.362  43.908  13.871  1.00  0.00    -0.384 N
ATOM     17  H22 UNL     1      11.082  43.511  13.267  1.00  0.00     0.157 HD
ATOM     18  H21 UNL     1       9.404  44.030  13.542  1.00  0.00     0.157 HD
ENDBRANCH   6  16
BRANCH  14  19
HETATM   19  N6  UNL     1      12.775  45.347  19.253  1.00  0.00    -0.384 N
ATOM     20  H62 UNL     1      13.176  46.215  19.608  1.00  0.00     0.157 HD
ATOM     21  H61 UNL     1      13.339  44.501  19.175  1.00  0.00     0.157 HD
ENDBRANCH  14  19
BRANCH  13  22
HETATM   22  C8  UNL     1      10.815  46.241  21.052  1.00  0.00     0.170 C
BRANCH  22  23
HETATM   23  C9  UNL     1      10.092  47.435  21.489  1.00  0.00    -0.040 A
HETATM   24  C10 UNL     1      10.434  48.709  21.123  1.00  0.00     0.009 A
HETATM   25  C11 UNL     1       9.719  49.819  21.557  1.00  0.00     0.001 A
HETATM   26  C12 UNL     1       8.623  49.645  22.389  1.00  0.00     0.000 A
HETATM   27  C13 UNL     1       8.295  48.360  22.744  1.00  0.00     0.001 A
HETATM   28  C14 UNL     1       9.001  47.269  22.315  1.00  0.00     0.009 A
ENDBRANCH  22  23
ENDBRANCH  13  22
TORSDOF 4
ENDMDL