MODEL 1
REMARK VINA RESULT: -7.157012756      0.000      0.000
REMARK  4 active torsions:
REMARK  status: ('A' for Active; 'I' for Inactive)
REMARK    1  A    between atoms: C6_7  and  C7_8
REMARK    2  A    between atoms: C9_10  and  N2_11
REMARK    3  A    between atoms: N2_11  and  C10_13
REMARK    4  A    between atoms: C13_16  and  N3_17
ROOT
HETATM    1  N1  UNL     1      18.742  48.560  16.760  1.00  0.00    -0.190 NA
HETATM    2  C1  UNL     1      18.052  47.859  17.362  1.00  0.00     0.117 C
HETATM    3  C2  UNL     1      17.163  46.981  18.109  1.00  0.00     0.114 A
HETATM    4  C3  UNL     1      17.677  46.394  19.248  1.00  0.00     0.041 A
HETATM    5  C4  UNL     1      16.845  45.557  19.970  1.00  0.00     0.005 A
HETATM    6  C5  UNL     1      15.543  45.350  19.517  1.00  0.00     0.032 A
HETATM    7  C6  UNL     1      15.049  45.944  18.381  1.00  0.00     0.060 A
HETATM    8  N7  UNL     1      15.915  46.753  17.720  1.00  0.00    -0.346 N
ATOM      9  H7  UNL     1      15.587  47.213  16.870  1.00  0.00     0.167 HD
ENDROOT
BRANCH   7  10
HETATM   10  C7  UNL     1      13.699  45.753  17.878  1.00  0.00     0.063 A
HETATM   11  C8  UNL     1      12.638  45.475  18.692  1.00  0.00     0.080 A
HETATM   12  C9  UNL     1      11.349  45.296  18.186  1.00  0.00     0.108 A
HETATM   13  N5  UNL     1      11.195  45.408  16.856  1.00  0.00    -0.339 N
HETATM   14  C15 UNL     1      12.239  45.683  16.043  1.00  0.00     0.182 A
ATOM     15  H5  UNL     1      10.268  45.284  16.450  1.00  0.00     0.168 HD
HETATM   16  N6  UNL     1      13.476  45.854  16.544  1.00  0.00    -0.350 N
ATOM     17  H6  UNL     1      14.251  46.061  15.915  1.00  0.00     0.166 HD
BRANCH  12  18
HETATM   18  N2  UNL     1      10.385  45.036  18.993  1.00  0.00    -0.341 N
ATOM     19  H2  UNL     1       9.930  44.126  18.913  1.00  0.00     0.167 HD
BRANCH  18  20
HETATM   20  C10 UNL     1       9.914  45.920  19.980  1.00  0.00     0.049 A
HETATM   21  C11 UNL     1      10.685  46.895  20.562  1.00  0.00     0.035 A
HETATM   22  C12 UNL     1      10.181  47.726  21.514  1.00  0.00     0.050 A
HETATM   23  C13 UNL     1       8.850  47.553  21.878  1.00  0.00     0.098 A
HETATM   24  N4  UNL     1       8.095  46.601  21.310  1.00  0.00    -0.351 N
HETATM   25  C14 UNL     1       8.606  45.802  20.386  1.00  0.00     0.119 A
ATOM     26  H4  UNL     1       7.121  46.492  21.593  1.00  0.00     0.166 HD
BRANCH  23  27
HETATM   27  N3  UNL     1       8.323  48.311  22.772  1.00  0.00    -0.385 N
ATOM     28  H32 UNL     1       7.903  49.194  22.482  1.00  0.00     0.157 HD
ATOM     29  H31 UNL     1       8.331  48.027  23.752  1.00  0.00     0.157 HD
ENDBRANCH  23  27
ENDBRANCH  18  20
ENDBRANCH  12  18
ENDBRANCH   7  10
TORSDOF 4
ENDMDL