MODEL 4
REMARK VINA RESULT: -4.439403494      2.706      5.806
REMARK  3 active torsions:
REMARK  status: ('A' for Active; 'I' for Inactive)
REMARK    1  A    between atoms: O1_1  and  C1_3
REMARK    2  A    between atoms: C1_3  and  C2_4
REMARK    3  A    between atoms: C2_4  and  N1_5
ROOT
HETATM    1  N1  UNL     1      10.246  45.839  14.016  1.00  0.00    -0.292 N
HETATM    2  C3  UNL     1      10.402  46.097  15.429  1.00  0.00     0.149 C
HETATM    3  C4  UNL     1       9.739  44.951  16.200  1.00  0.00     0.022 C
HETATM    4  C5  UNL     1      10.219  45.032  17.626  1.00  0.00     0.002 C
HETATM    5  C6  UNL     1      11.475  44.201  17.731  1.00  0.00     0.000 C
HETATM    6  C7  UNL     1      12.242  44.479  18.994  1.00  0.00     0.000 C
HETATM    7  C8  UNL     1      12.771  45.883  19.040  1.00  0.00     0.002 C
HETATM    8  C9  UNL     1      14.262  45.864  18.711  1.00  0.00     0.027 C
HETATM    9  C10 UNL     1      14.413  46.488  17.352  1.00  0.00     0.232 C
HETATM   10  N2  UNL     1      15.741  46.292  16.797  1.00  0.00    -0.074 N
ATOM     11  H21 UNL     1      15.907  45.344  16.461  1.00  0.00     0.277 HD
ATOM     12  H22 UNL     1      16.482  46.305  17.498  1.00  0.00     0.277 HD
HETATM   13  C11 UNL     1      15.894  47.319  15.761  1.00  0.00     0.259 C
HETATM   14  C12 UNL     1      15.049  46.913  14.597  1.00  0.00     0.259 C
HETATM   15  N3  UNL     1      13.861  47.717  14.420  1.00  0.00    -0.073 N
ATOM     16  H31 UNL     1      13.783  48.413  15.161  1.00  0.00     0.277 HD
ATOM     17  H32 UNL     1      13.023  47.169  14.612  1.00  0.00     0.277 HD
HETATM   18  C13 UNL     1      13.775  48.338  13.132  1.00  0.00     0.234 C
HETATM   19  C14 UNL     1      12.597  47.914  12.308  1.00  0.00     0.056 C
HETATM   20  C15 UNL     1      11.348  47.663  13.156  1.00  0.00     0.202 C
HETATM   21  O2  UNL     1      11.198  46.300  13.242  1.00  0.00    -0.283 OA
ENDROOT
BRANCH   1  22
HETATM   22  C2  UNL     1       8.896  46.018  13.620  1.00  0.00     0.175 C
BRANCH  22  23
HETATM   23  C1  UNL     1       8.384  44.953  12.698  1.00  0.00     0.185 C
BRANCH  23  24
HETATM   24  O1  UNL     1       7.234  44.382  13.227  1.00  0.00    -0.399 OA
ATOM     25  H1  UNL     1       6.468  44.739  12.793  1.00  0.00     0.209 HD
ENDBRANCH  23  24
ENDBRANCH  22  23
ENDBRANCH   1  22
TORSDOF 3
ENDMDL