MODEL 4
REMARK VINA RESULT: -5.814644667      3.182      4.177
REMARK  5 active torsions:
REMARK  status: ('A' for Active; 'I' for Inactive)
REMARK       I    between atoms: C2_2  and  N1_4
REMARK    1  A    between atoms: N1_4  and  N2_6
REMARK    2  A    between atoms: N2_6  and  C3_8
REMARK    3  A    between atoms: C3_8  and  N3_10
REMARK    4  A    between atoms: C4_12  and  N4_13
REMARK       I    between atoms: N4_13  and  C5_15
REMARK       I    between atoms: C5_15  and  N5_17
REMARK    5  A    between atoms: N5_17  and  C6_19
ROOT
HETATM    1  N3  UNL     1      14.045 -13.539  22.305  1.00  0.00    -0.328 N
ATOM      2  H3  UNL     1      14.556 -13.609  23.185  1.00  0.00     0.169 HD
HETATM    3  C4  UNL     1      14.535 -12.788  21.455  1.00  0.00     0.186 C
ENDROOT
BRANCH   1   4
HETATM    4  C3  UNL     1      12.892 -14.299  22.212  1.00  0.00     0.191 C
HETATM    5  S1  UNL     1      12.973 -15.909  21.878  1.00  0.00    -0.039 SA
BRANCH   4   6
HETATM    6  N2  UNL     1      11.605 -13.721  22.409  1.00  0.00    -0.274 N
ATOM      7  H2  UNL     1      10.856 -13.936  21.751  1.00  0.00     0.189 HD
BRANCH   6   8
HETATM    8  N1  UNL     1      11.345 -12.867  23.485  1.00  0.00    -0.268 N
HETATM    9  C2  UNL     1      11.454 -11.457  23.228  1.00  0.00     0.232 C
HETATM   10  C1  UNL     1      11.200 -10.474  24.302  1.00  0.00     0.119 C
HETATM   11  O1  UNL     1      11.771 -11.047  22.077  1.00  0.00    -0.272 OA
ATOM     12  H1  UNL     1      11.091 -13.226  24.405  1.00  0.00     0.190 HD
ENDBRANCH   6   8
ENDBRANCH   4   6
ENDBRANCH   1   4
BRANCH   3  13
HETATM   13  N4  UNL     1      14.015 -12.537  20.183  1.00  0.00    -0.305 N
HETATM   14  C5  UNL     1      14.933 -12.262  19.111  1.00  0.00     0.321 C
HETATM   15  O2  UNL     1      16.177 -12.260  19.385  1.00  0.00    -0.247 OA
HETATM   16  N5  UNL     1      14.471 -12.002  17.795  1.00  0.00    -0.338 N
ATOM     17  H5  UNL     1      13.473 -12.009  17.587  1.00  0.00     0.164 HD
ATOM     18  H4  UNL     1      13.008 -12.549  20.019  1.00  0.00     0.171 HD
BRANCH  16  19
HETATM   19  C6  UNL     1      15.427 -11.727  16.756  1.00  0.00     0.086 A
HETATM   20  C7  UNL     1      15.242 -12.118  15.344  1.00  0.00     0.027 A
HETATM   21  C8  UNL     1      14.856 -10.734  15.715  1.00  0.00     0.027 A
ENDBRANCH  16  19
ENDBRANCH   3  13
TORSDOF 5
ENDMDL