MODEL 1
REMARK VINA RESULT: -7.037479048      0.000      0.000
REMARK  5 active torsions:
REMARK  status: ('A' for Active; 'I' for Inactive)
REMARK    1  A    between atoms: C2_3  and  C3_5
REMARK       I    between atoms: C3_5  and  N2_7
REMARK    2  A    between atoms: N2_7  and  N3_9
REMARK    3  A    between atoms: N3_9  and  C4_11
REMARK    4  A    between atoms: C4_11  and  N4_13
REMARK    5  A    between atoms: N4_13  and  C5_15
ROOT
HETATM    1  C1  UNL     1      11.056 -11.526  24.768  1.00  0.00     0.264 C
HETATM    2  N1  UNL     1      11.647 -11.296  23.548  1.00  0.00    -0.412 NA
HETATM    3  C2  UNL     1      12.225 -11.072  22.356  1.00  0.00     0.380 C
HETATM    4  O1  UNL     1      11.800 -10.369  21.390  1.00  0.00    -0.246 OA
ENDROOT
BRANCH   3   5
HETATM    5  C3  UNL     1      13.542 -11.697  22.029  1.00  0.00     0.342 C
HETATM    6  O2  UNL     1      13.766 -12.815  22.520  1.00  0.00    -0.259 OA
HETATM    7  N2  UNL     1      14.469 -11.056  21.213  1.00  0.00    -0.259 N
ATOM      8  H2  UNL     1      14.227 -10.134  20.849  1.00  0.00     0.190 HD
BRANCH   7   9
HETATM    9  N3  UNL     1      15.694 -11.588  20.862  1.00  0.00    -0.273 N
ATOM     10  H3  UNL     1      16.553 -11.177  21.227  1.00  0.00     0.189 HD
BRANCH   9  11
HETATM   11  C4  UNL     1      15.757 -12.732  19.975  1.00  0.00     0.186 C
HETATM   12  S1  UNL     1      14.796 -12.769  18.690  1.00  0.00    -0.040 SA
BRANCH  11  13
HETATM   13  N4  UNL     1      16.636 -13.775  20.280  1.00  0.00    -0.361 N
ATOM     14  H4  UNL     1      16.285 -14.724  20.401  1.00  0.00     0.162 HD
BRANCH  13  15
HETATM   15  C5  UNL     1      18.048 -13.498  20.421  1.00  0.00     0.083 C
HETATM   16  C6  UNL     1      18.614 -13.343  19.004  1.00  0.00     0.025 C
HETATM   17  C7  UNL     1      20.122 -13.280  19.032  1.00  0.00     0.002 C
HETATM   18  C8  UNL     1      20.585 -13.075  20.434  1.00  0.00     0.000 C
HETATM   19  C9  UNL     1      20.193 -14.241  21.316  1.00  0.00     0.002 C
HETATM   20  C10 UNL     1      18.760 -14.669  21.097  1.00  0.00     0.025 C
ENDBRANCH  13  15
ENDBRANCH  11  13
ENDBRANCH   9  11
ENDBRANCH   7   9
ENDBRANCH   3   5
TORSDOF 4
ENDMDL