MODEL 5
REMARK VINA RESULT: -6.520042408      3.124      6.967
REMARK  2 active torsions:
REMARK  status: ('A' for Active; 'I' for Inactive)
REMARK       I    between atoms: N2_3  and  C2_5
REMARK    1  A    between atoms: N4_7  and  C3_9
REMARK    2  A    between atoms: C12_18  and  C13_19
ROOT
HETATM    1  C3  UNL     1      17.413 -13.857  20.937  1.00  0.00     0.088 C
HETATM    2  C4  UNL     1      17.093 -14.440  19.580  1.00  0.00     0.026 C
HETATM    3  C5  UNL     1      15.629 -14.009  19.415  1.00  0.00     0.008 C
HETATM    4  C6  UNL     1      15.048 -14.372  20.737  1.00  0.00     0.001 C
HETATM    5  C7  UNL     1      16.120 -13.929  21.714  1.00  0.00     0.014 C
HETATM    6  C8  UNL     1      15.351 -12.603  21.805  1.00  0.00     0.018 C
HETATM    7  C9  UNL     1      14.157 -13.354  21.367  1.00  0.00    -0.024 C
HETATM    8  C10 UNL     1      13.154 -13.793  22.357  1.00  0.00     0.011 C
HETATM    9  C11 UNL     1      12.110 -13.643  21.240  1.00  0.00     0.015 C
HETATM   10  C12 UNL     1      13.115 -12.705  20.566  1.00  0.00     0.084 C
ENDROOT
BRANCH   1  11
HETATM   11  N4  UNL     1      18.466 -14.544  21.622  1.00  0.00    -0.359 N
HETATM   12  C2  UNL     1      19.721 -14.365  21.516  1.00  0.00     0.189 C
HETATM   13  N2  UNL     1      20.600 -15.175  22.305  1.00  0.00    -0.329 N
HETATM   14  N3  UNL     1      20.330 -13.414  20.667  1.00  0.00    -0.064 NA
HETATM   15  C1  UNL     1      21.451 -14.626  23.093  1.00  0.00     0.192 C
ATOM     16  H2  UNL     1      20.549 -16.192  22.241  1.00  0.00     0.168 HD
HETATM   17  N1  UNL     1      22.316 -15.440  23.869  1.00  0.00    -0.097 NA
ATOM     18  H4  UNL     1      18.173 -15.269  22.277  1.00  0.00     0.162 HD
ENDBRANCH   1  11
BRANCH  10  19
HETATM   19  C13 UNL     1      12.770 -11.302  20.967  1.00  0.00     0.236 C
HETATM   20  N5  UNL     1      12.011 -11.005  22.116  1.00  0.00    -0.062 NA
HETATM   21  O1  UNL     1      13.158 -10.304  20.270  1.00  0.00    -0.276 OA
ENDBRANCH  10  19
TORSDOF 2
ENDMDL