MODEL 5
REMARK VINA RESULT: -6.164227097      2.550      6.017
REMARK  2 active torsions:
REMARK  status: ('A' for Active; 'I' for Inactive)
REMARK    1  A    between atoms: C2_2  and  N1_3
REMARK       I    between atoms: C3_5  and  N2_6
REMARK       I    between atoms: C3_5  and  N3_9
REMARK    2  A    between atoms: C8_13  and  N4_14
REMARK       I    between atoms: N4_14  and  C9_16
REMARK       I    between atoms: N6_18  and  C10_20
ROOT
HETATM    1  N1  UNL     1      18.353 -13.153  18.522  1.00  0.00    -0.227 N
ATOM      2  H1  UNL     1      18.971 -12.625  17.906  1.00  0.00     0.177 HD
HETATM    3  C3  UNL     1      17.175 -13.466  18.139  1.00  0.00     0.673 C
HETATM    4  N2  UNL     1      16.766 -13.049  16.831  1.00  0.00    -0.231 N
ATOM      5  H2  UNL     1      16.254 -12.173  16.723  1.00  0.00     0.177 HD
HETATM    6  C4  UNL     1      17.064 -13.843  15.657  1.00  0.00     0.165 C
HETATM    7  N3  UNL     1      16.222 -14.195  18.898  1.00  0.00    -0.197 N
HETATM    8  C5  UNL     1      16.279 -15.532  19.464  1.00  0.00     0.143 C
HETATM    9  C6  UNL     1      14.849 -16.031  19.518  1.00  0.00     0.024 C
HETATM   10  C7  UNL     1      14.069 -14.922  18.850  1.00  0.00     0.049 C
HETATM   11  C8  UNL     1      14.903 -13.710  19.286  1.00  0.00     0.204 C
ENDROOT
BRANCH  11  12
HETATM   12  N4  UNL     1      14.901 -13.566  20.718  1.00  0.00    -0.343 N
HETATM   13  C9  UNL     1      14.053 -12.667  21.418  1.00  0.00     0.192 C
HETATM   14  N5  UNL     1      13.401 -13.120  22.600  1.00  0.00    -0.063 NA
HETATM   15  N6  UNL     1      13.848 -11.468  21.032  1.00  0.00    -0.305 N
HETATM   16  C10 UNL     1      13.011 -10.584  21.725  1.00  0.00     0.188 C
ATOM     17  H6  UNL     1      14.312 -11.140  20.186  1.00  0.00     0.171 HD
HETATM   18  N7  UNL     1      11.724 -10.513  21.564  1.00  0.00    -0.373 N
HETATM   19  N8  UNL     1      13.584  -9.693  22.675  1.00  0.00    -0.064 NA
ATOM     20  H72 UNL     1      11.313 -11.152  20.884  1.00  0.00     0.158 HD
ATOM     21  H71 UNL     1      11.114  -9.869  22.069  1.00  0.00     0.158 HD
ATOM     22  H4  UNL     1      15.545 -14.141  21.260  1.00  0.00     0.164 HD
ENDBRANCH  11  12
BRANCH   1  23
HETATM   23  C2  UNL     1      18.799 -13.552  19.824  1.00  0.00     0.133 C
HETATM   24  C1  UNL     1      20.302 -13.466  19.970  1.00  0.00     0.027 C
ENDBRANCH   1  23
TORSDOF 2
ENDMDL