MODEL 3
REMARK VINA RESULT: -5.929748955      3.699      6.124
REMARK  4 active torsions:
REMARK  status: ('A' for Active; 'I' for Inactive)
REMARK    1  A    between atoms: C3_3  and  N1_4
REMARK       I    between atoms: N1_4  and  C4_6
REMARK    2  A    between atoms: N3_8  and  C5_10
REMARK    3  A    between atoms: C5_10  and  N4_12
REMARK    4  A    between atoms: N4_12  and  C6_14
ROOT
HETATM    1  C1  UNL     1      12.874 -15.943  21.958  1.00  0.00     0.014 C
HETATM    2  C2  UNL     1      12.566 -14.767  21.919  1.00  0.00    -0.098 C
HETATM    3  C3  UNL     1      12.195 -13.347  21.896  1.00  0.00     0.215 C
ENDROOT
BRANCH   3   4
HETATM    4  N1  UNL     1      13.036 -12.597  20.983  1.00  0.00    -0.354 N
HETATM    5  C4  UNL     1      13.800 -11.496  21.445  1.00  0.00     0.191 C
HETATM    6  N2  UNL     1      13.178 -10.418  22.125  1.00  0.00    -0.063 NA
HETATM    7  N3  UNL     1      15.071 -11.418  21.274  1.00  0.00    -0.308 N
ATOM      8  H3  UNL     1      15.586 -10.607  21.621  1.00  0.00     0.171 HD
ATOM      9  H1  UNL     1      13.076 -12.864  19.999  1.00  0.00     0.163 HD
BRANCH   7  10
HETATM   10  C5  UNL     1      15.750 -12.452  20.608  1.00  0.00     0.174 C
HETATM   11  S1  UNL     1      16.284 -13.743  21.436  1.00  0.00    -0.041 SA
BRANCH  10  12
HETATM   12  N4  UNL     1      15.972 -12.359  19.224  1.00  0.00    -0.361 N
ATOM     13  H4  UNL     1      16.733 -11.755  18.913  1.00  0.00     0.162 HD
BRANCH  12  14
HETATM   14  C6  UNL     1      15.210 -13.048  18.200  1.00  0.00     0.101 C
HETATM   15  C7  UNL     1      15.921 -14.244  17.665  1.00  0.00     0.028 C
HETATM   16  C8  UNL     1      16.519 -14.074  16.293  1.00  0.00     0.021 C
HETATM   17  C9  UNL     1      15.698 -13.226  15.378  1.00  0.00     0.116 C
HETATM   18  N5  UNL     1      15.396 -11.976  15.980  1.00  0.00    -0.415 N
HETATM   19  C10 UNL     1      16.394 -10.973  15.936  1.00  0.00     0.143 C
HETATM   20  C11 UNL     1      14.652 -12.114  17.176  1.00  0.00     0.141 C
ENDBRANCH  12  14
ENDBRANCH  10  12
ENDBRANCH   7  10
ENDBRANCH   3   4
TORSDOF 4
ENDMDL