MODEL 1
REMARK VINA RESULT: -7.226921550      0.000      0.000
REMARK  3 active torsions:
REMARK  status: ('A' for Active; 'I' for Inactive)
REMARK       I    between atoms: C1_2  and  N2_4
REMARK       I    between atoms: N2_4  and  C2_6
REMARK    1  A    between atoms: N4_8  and  C3_10
REMARK    2  A    between atoms: C4_11  and  C5_12
REMARK    3  A    between atoms: C11_18  and  N5_19
ROOT
HETATM    1  C5  UNL     1      19.966 -14.943  24.878  1.00  0.00    -0.018 C
HETATM    2  C6  UNL     1      20.890 -14.597  23.755  1.00  0.00     0.018 C
HETATM    3  C7  UNL     1      22.315 -14.907  24.058  1.00  0.00    -0.011 C
HETATM    4  C8  UNL     1      22.726 -14.154  25.330  1.00  0.00     0.012 C
HETATM    5  C9  UNL     1      21.788 -14.818  26.338  1.00  0.00     0.023 C
HETATM    6  C10 UNL     1      20.426 -14.148  26.107  1.00  0.00     0.020 C
HETATM    7  C11 UNL     1      21.647 -16.230  25.868  1.00  0.00     0.128 C
HETATM    8  C12 UNL     1      22.462 -16.346  24.574  1.00  0.00     0.043 C
HETATM    9  C13 UNL     1      20.194 -16.363  25.389  1.00  0.00     0.052 C
ENDROOT
BRANCH   1  10
HETATM   10  C4  UNL     1      18.567 -14.695  24.565  1.00  0.00     0.000 C
HETATM   11  C3  UNL     1      18.117 -14.757  23.324  1.00  0.00     0.087 C
BRANCH  11  12
HETATM   12  N4  UNL     1      16.757 -14.520  22.999  1.00  0.00    -0.341 N
HETATM   13  C2  UNL     1      16.449 -13.589  22.173  1.00  0.00     0.195 C
HETATM   14  N2  UNL     1      15.081 -13.322  21.822  1.00  0.00    -0.285 N
HETATM   15  N3  UNL     1      17.469 -12.811  21.595  1.00  0.00    -0.063 NA
HETATM   16  C1  UNL     1      14.734 -12.299  20.913  1.00  0.00     0.335 C
ATOM     17  H2  UNL     1      14.342 -13.887  22.240  1.00  0.00     0.172 HD
HETATM   18  N1  UNL     1      13.377 -12.071  20.597  1.00  0.00    -0.040 NA
HETATM   19  O1  UNL     1      15.608 -11.588  20.380  1.00  0.00    -0.251 OA
ATOM     20  H4  UNL     1      16.024 -15.090  23.423  1.00  0.00     0.167 HD
ENDBRANCH  11  12
ENDBRANCH   1  10
BRANCH   7  21
HETATM   21  N5  UNL     1      21.997 -17.213  26.830  1.00  0.00    -0.070 N
ATOM     22  H53 UNL     1      21.850 -16.854  27.773  1.00  0.00     0.275 HD
ATOM     23  H52 UNL     1      21.316 -17.973  26.824  1.00  0.00     0.275 HD
ATOM     24  H51 UNL     1      22.942 -17.585  26.735  1.00  0.00     0.275 HD
ENDBRANCH   7  21
TORSDOF 3
ENDMDL