MODEL 5
REMARK VINA RESULT: -5.514714811      1.934      3.968
REMARK  2 active torsions:
REMARK  status: ('A' for Active; 'I' for Inactive)
REMARK    1  A    between atoms: C2_2  and  N1_3
REMARK    2  A    between atoms: N1_3  and  C5_6
REMARK       I    between atoms: N2_8  and  C7_9
REMARK       I    between atoms: N5_17  and  C11_18
ROOT
HETATM    1  C5  UNL     1      14.380 -13.701  21.410  1.00  0.00     0.310 C
HETATM    2  C6  UNL     1      13.476 -13.598  22.577  1.00  0.00     0.180 C
HETATM    3  N2  UNL     1      12.680 -12.424  22.712  1.00  0.00    -0.352 N
HETATM    4  C7  UNL     1      11.430 -12.505  23.409  1.00  0.00     0.184 C
HETATM    5  N3  UNL     1      10.349 -12.957  22.907  1.00  0.00    -0.374 N
ATOM      6  H31 UNL     1       9.460 -13.015  23.403  1.00  0.00     0.158 HD
ATOM      7  H32 UNL     1      10.364 -13.287  21.941  1.00  0.00     0.158 HD
HETATM    8  N4  UNL     1      11.410 -12.046  24.753  1.00  0.00    -0.064 NA
HETATM    9  C8  UNL     1      12.922 -11.066  22.240  1.00  0.00     0.127 C
HETATM   10  C9  UNL     1      12.457 -11.170  20.787  1.00  0.00     0.040 C
HETATM   11  C10 UNL     1      13.657 -11.555  20.001  1.00  0.00     0.129 C
HETATM   12  N5  UNL     1      14.478 -12.601  20.524  1.00  0.00    -0.326 N
HETATM   13  C11 UNL     1      15.767 -12.450  19.952  1.00  0.00     0.185 C
HETATM   14  N6  UNL     1      15.900 -12.327  18.694  1.00  0.00    -0.374 N
ATOM     15  H61 UNL     1      16.827 -12.219  18.283  1.00  0.00     0.158 HD
ATOM     16  H62 UNL     1      15.059 -12.343  18.118  1.00  0.00     0.158 HD
HETATM   17  N7  UNL     1      16.925 -12.428  20.745  1.00  0.00    -0.064 NA
ENDROOT
BRANCH   1  18
HETATM   18  N1  UNL     1      14.090 -14.993  20.799  1.00  0.00    -0.052 N
HETATM   19  C3  UNL     1      13.471 -15.776  21.893  1.00  0.00     0.274 C
HETATM   20  C4  UNL     1      15.220 -15.756  20.379  1.00  0.00     0.274 C
BRANCH  18  21
HETATM   21  C2  UNL     1      13.099 -14.882  19.777  1.00  0.00     0.234 C
HETATM   22  C1  UNL     1      12.007 -15.929  19.891  1.00  0.00     0.035 C
ENDBRANCH  18  21
ENDBRANCH   1  18
TORSDOF 2
ENDMDL