MODEL 1
REMARK VINA RESULT: -6.339265072      0.000      0.000
REMARK  3 active torsions:
REMARK  status: ('A' for Active; 'I' for Inactive)
REMARK    1  A    between atoms: C6_8  and  C7_9
REMARK    2  A    between atoms: C7_9  and  N3_10
REMARK       I    between atoms: N3_10  and  C8_12
REMARK    3  A    between atoms: C11_19  and  O1_20
ROOT
HETATM    1  C1  UNL     1      17.288 -15.581  21.092  1.00  0.00     0.274 C
HETATM    2  N1  UNL     1      16.066 -14.870  21.532  1.00  0.00    -0.041 N
HETATM    3  C2  UNL     1      16.532 -14.152  22.690  1.00  0.00     0.274 C
HETATM    4  C3  UNL     1      15.105 -15.880  21.853  1.00  0.00     0.267 C
HETATM    5  C4  UNL     1      14.010 -15.699  20.808  1.00  0.00     0.268 C
HETATM    6  N2  UNL     1      14.111 -14.348  20.336  1.00  0.00    -0.032 N
HETATM    7  C5  UNL     1      13.822 -14.432  18.883  1.00  0.00     0.276 C
HETATM    8  C6  UNL     1      13.149 -13.439  20.870  1.00  0.00     0.210 C
HETATM    9  C9  UNL     1      13.504 -12.003  20.620  1.00  0.00     0.038 C
HETATM   10  C10 UNL     1      14.916 -11.648  20.913  1.00  0.00     0.037 C
HETATM   11  C11 UNL     1      15.915 -12.644  20.463  1.00  0.00     0.177 C
HETATM   12  C12 UNL     1      15.497 -14.066  20.478  1.00  0.00     0.419 C
ENDROOT
BRANCH   8  13
HETATM   13  C7  UNL     1      12.720 -13.698  22.273  1.00  0.00     0.155 C
BRANCH  13  14
HETATM   14  N3  UNL     1      12.474 -12.457  22.972  1.00  0.00    -0.363 N
HETATM   15  C8  UNL     1      11.260 -12.122  23.618  1.00  0.00     0.181 C
HETATM   16  N4  UNL     1      10.289 -12.960  23.682  1.00  0.00    -0.374 N
HETATM   17  N5  UNL     1      11.094 -10.866  24.224  1.00  0.00    -0.064 NA
ATOM     18  H42 UNL     1      10.409 -13.873  23.242  1.00  0.00     0.158 HD
ATOM     19  H41 UNL     1       9.413 -12.719  24.147  1.00  0.00     0.158 HD
ATOM     20  H3  UNL     1      13.230 -11.773  23.002  1.00  0.00     0.162 HD
ENDBRANCH  13  14
ENDBRANCH   8  13
BRANCH  11  21
HETATM   21  O1  UNL     1      16.412 -12.223  19.203  1.00  0.00    -0.392 OA
ATOM     22  H1  UNL     1      16.797 -12.978  18.775  1.00  0.00     0.210 HD
ENDBRANCH  11  21
TORSDOF 3
ENDMDL