MODEL 4
REMARK VINA RESULT: -6.336687295      1.387      1.568
REMARK  2 active torsions:
REMARK  status: ('A' for Active; 'I' for Inactive)
REMARK       I    between atoms: N1_2  and  C2_4
REMARK       I    between atoms: C2_4  and  N2_6
REMARK    1  A    between atoms: N2_6  and  C3_8
REMARK    2  A    between atoms: C6_11  and  N3_12
REMARK       I    between atoms: N3_12  and  C7_14
ROOT
HETATM    1  C3  UNL     1      13.675 -13.170  20.880  1.00  0.00     0.329 C
HETATM    2  C4  UNL     1      14.392 -12.734  19.623  1.00  0.00     0.046 C
HETATM    3  C5  UNL     1      14.450 -13.783  18.568  1.00  0.00     0.034 C
HETATM    4  C6  UNL     1      15.771 -13.509  17.880  1.00  0.00     0.085 C
HETATM    5  C9  UNL     1      16.665 -12.842  18.873  1.00  0.00     0.032 C
HETATM    6  C10 UNL     1      15.841 -12.688  20.118  1.00  0.00     0.024 C
HETATM    7  C11 UNL     1      15.878 -13.928  20.986  1.00  0.00     0.279 C
HETATM    8  N4  UNL     1      14.574 -14.095  21.546  1.00  0.00     0.107 N
HETATM    9  C12 UNL     1      14.094 -15.438  21.579  1.00  0.00     0.312 C
ENDROOT
BRANCH   1  10
HETATM   10  N2  UNL     1      13.570 -12.005  21.730  1.00  0.00    -0.312 N
HETATM   11  C2  UNL     1      12.429 -11.891  22.564  1.00  0.00     0.317 C
HETATM   12  N1  UNL     1      12.271 -10.788  23.410  1.00  0.00    -0.347 N
HETATM   13  O1  UNL     1      11.521 -12.792  22.564  1.00  0.00    -0.247 OA
HETATM   14  C1  UNL     1      11.113 -10.676  24.254  1.00  0.00     0.151 C
ATOM     15  H1  UNL     1      12.983 -10.058  23.426  1.00  0.00     0.163 HD
ATOM     16  H2  UNL     1      14.295 -11.287  21.730  1.00  0.00     0.166 HD
ENDBRANCH   1  10
BRANCH   4  17
HETATM   17  N3  UNL     1      15.515 -12.684  16.712  1.00  0.00    -0.357 N
HETATM   18  C7  UNL     1      16.372 -12.639  15.597  1.00  0.00     0.213 C
HETATM   19  C8  UNL     1      16.040 -11.775  14.450  1.00  0.00     0.117 C
HETATM   20  O2  UNL     1      17.407 -13.331  15.584  1.00  0.00    -0.274 OA
ATOM     21  H3  UNL     1      14.672 -12.109  16.700  1.00  0.00     0.162 HD
ENDBRANCH   4  17
TORSDOF 2
ENDMDL