MODEL 2
REMARK VINA RESULT: -6.577160436      4.166      6.163
REMARK  2 active torsions:
REMARK  status: ('A' for Active; 'I' for Inactive)
REMARK    1  A    between atoms: N3_4  and  C2_6
REMARK    2  A    between atoms: C6_10  and  N4_11
REMARK       I    between atoms: C7_13  and  N6_15
ROOT
HETATM    1  C2  UNL     1      15.662 -12.991  16.978  1.00  0.00     0.088 A
HETATM    2  C3  UNL     1      16.956 -12.722  17.678  1.00  0.00     0.030 A
HETATM    3  C4  UNL     1      16.654 -13.820  18.668  1.00  0.00    -0.004 A
HETATM    4  C5  UNL     1      16.233 -13.333  20.037  1.00  0.00     0.030 C
HETATM    5  C6  UNL     1      14.875 -12.666  19.819  1.00  0.00     0.085 C
HETATM    6  C11 UNL     1      14.242 -13.706  18.883  1.00  0.00     0.032 C
HETATM    7  C12 UNL     1      15.374 -14.110  17.958  1.00  0.00     0.014 A
ENDROOT
BRANCH   5   8
HETATM    8  N4  UNL     1      14.140 -12.562  21.060  1.00  0.00    -0.360 N
HETATM    9  C7  UNL     1      13.331 -11.566  21.209  1.00  0.00     0.186 C
HETATM   10  N5  UNL     1      13.160 -10.590  20.187  1.00  0.00    -0.064 NA
HETATM   11  N6  UNL     1      12.571 -11.386  22.389  1.00  0.00    -0.356 N
HETATM   12  C8  UNL     1      11.766 -12.229  23.215  1.00  0.00     0.127 C
HETATM   13  C10 UNL     1      12.284 -10.273  23.266  1.00  0.00     0.127 C
HETATM   14  C9  UNL     1      11.106 -11.013  23.857  1.00  0.00     0.040 C
ATOM     15  H4  UNL     1      14.256 -13.257  21.796  1.00  0.00     0.162 HD
ENDBRANCH   5   8
BRANCH   1  16
HETATM   16  N3  UNL     1      15.677 -13.360  15.615  1.00  0.00    -0.362 N
HETATM   17  C1  UNL     1      15.127 -12.792  14.641  1.00  0.00     0.197 C
HETATM   18  N1  UNL     1      14.360 -11.629  14.759  1.00  0.00    -0.067 NA
HETATM   19  N2  UNL     1      15.292 -13.365  13.336  1.00  0.00    -0.067 NA
ATOM     20  H3  UNL     1      16.208 -14.202  15.392  1.00  0.00     0.162 HD
ENDBRANCH   1  16
TORSDOF 2
ENDMDL