MODEL 1
REMARK VINA RESULT: -6.859131066      0.000      0.000
REMARK  2 active torsions:
REMARK  status: ('A' for Active; 'I' for Inactive)
REMARK    1  A    between atoms: C3_3  and  N1_4
REMARK    2  A    between atoms: C6_12  and  C7_13
ROOT
HETATM    1  C1  UNL     1      16.483 -13.028  18.738  1.00  0.00     0.014 C
HETATM    2  C2  UNL     1      16.480 -13.057  19.948  1.00  0.00    -0.097 C
HETATM    3  C3  UNL     1      16.463 -13.074  21.419  1.00  0.00     0.235 C
ENDROOT
BRANCH   3   4
HETATM    4  N1  UNL     1      17.187 -14.195  21.959  1.00  0.00    -0.199 N
HETATM    5  C4  UNL     1      16.476 -15.383  22.248  1.00  0.00     0.671 C
HETATM    6  N2  UNL     1      15.379 -15.718  21.665  1.00  0.00    -0.235 N
HETATM    7  N3  UNL     1      17.062 -16.229  23.264  1.00  0.00    -0.224 N
ATOM      8  H22 UNL     1      14.965 -15.122  20.949  1.00  0.00     0.174 HD
ATOM      9  H21 UNL     1      14.866 -16.575  21.874  1.00  0.00     0.174 HD
HETATM   10  C5  UNL     1      18.028 -15.589  24.107  1.00  0.00     0.179 C
ATOM     11  H3  UNL     1      16.805 -17.210  23.373  1.00  0.00     0.177 HD
HETATM   12  C6  UNL     1      19.146 -14.932  23.283  1.00  0.00     0.169 A
HETATM   13  N4  UNL     1      19.726 -15.805  22.289  1.00  0.00    -0.056 N
HETATM   14  C14 UNL     1      18.603 -14.088  22.188  1.00  0.00     0.171 A
HETATM   15  C12 UNL     1      19.332 -14.976  21.194  1.00  0.00     0.208 A
ATOM     16  H42 UNL     1      20.711 -16.054  22.378  1.00  0.00     0.278 HD
ATOM     17  H41 UNL     1      19.445 -16.785  22.281  1.00  0.00     0.278 HD
HETATM   18  C13 UNL     1      20.401 -14.319  20.392  1.00  0.00     0.042 C
BRANCH  12  19
HETATM   19  C7  UNL     1      20.137 -14.347  24.225  1.00  0.00     0.025 C
HETATM   20  C8  UNL     1      21.525 -14.859  24.076  1.00  0.00     0.007 C
HETATM   21  C9  UNL     1      22.213 -14.261  25.304  1.00  0.00     0.000 C
HETATM   22  C10 UNL     1      21.125 -13.833  26.253  1.00  0.00     0.000 C
HETATM   23  C11 UNL     1      19.871 -14.515  25.672  1.00  0.00     0.007 C
ENDBRANCH  12  19
ENDBRANCH   3   4
TORSDOF 2
ENDMDL