MODEL 5
REMARK VINA RESULT: -5.917122240      2.835      5.673
REMARK  2 active torsions:
REMARK  status: ('A' for Active; 'I' for Inactive)
REMARK    1  A    between atoms: C9_17  and  C10_18
REMARK    2  A    between atoms: C10_18  and  C11_19
ROOT
HETATM    1  C1  UNL     1      12.181 -15.676  20.083  1.00  0.00     0.012 C
HETATM    2  C2  UNL     1      13.225 -15.109  20.282  1.00  0.00    -0.111 C
HETATM    3  C3  UNL     1      14.522 -14.429  20.508  1.00  0.00     0.087 C
HETATM    4  C4  UNL     1      15.605 -15.400  20.882  1.00  0.00     0.139 C
HETATM    5  N1  UNL     1      16.093 -15.311  22.215  1.00  0.00    -0.366 N
ATOM      6  H1  UNL     1      15.409 -15.360  22.970  1.00  0.00     0.161 HD
HETATM    7  C5  UNL     1      17.464 -15.158  22.577  1.00  0.00     0.167 C
HETATM    8  S1  UNL     1      17.871 -15.568  24.136  1.00  0.00    -0.041 SA
HETATM    9  N2  UNL     1      18.476 -14.690  21.697  1.00  0.00    -0.366 N
ATOM     10  H2  UNL     1      19.351 -15.213  21.693  1.00  0.00     0.161 HD
HETATM   11  C6  UNL     1      18.404 -13.566  20.816  1.00  0.00     0.149 C
HETATM   12  C7  UNL     1      17.389 -12.550  21.197  1.00  0.00     0.251 C
HETATM   13  N3  UNL     1      16.258 -12.676  20.276  1.00  0.00    -0.073 N
ATOM     14  H31 UNL     1      16.113 -13.636  19.964  1.00  0.00     0.277 HD
ATOM     15  H32 UNL     1      16.448 -12.260  19.364  1.00  0.00     0.277 HD
HETATM   16  C8  UNL     1      15.070 -12.107  20.918  1.00  0.00     0.238 C
HETATM   17  C9  UNL     1      14.335 -13.304  21.514  1.00  0.00     0.029 C
ENDROOT
BRANCH  17  18
HETATM   18  C10 UNL     1      12.919 -12.966  21.735  1.00  0.00     0.011 C
BRANCH  18  19
HETATM   19  C11 UNL     1      12.589 -11.667  22.379  1.00  0.00    -0.022 C
HETATM   20  C12 UNL     1      11.517 -11.976  23.449  1.00  0.00     0.009 C
HETATM   21  C13 UNL     1      12.087 -10.558  21.534  1.00  0.00     0.009 C
ENDBRANCH  18  19
ENDBRANCH  17  18
TORSDOF 2
ENDMDL