MODEL 2
REMARK VINA RESULT: -6.331628478      2.299      2.576
REMARK  4 active torsions:
REMARK  status: ('A' for Active; 'I' for Inactive)
REMARK    1  A    between atoms: C2_2  and  C3_3
REMARK    2  A    between atoms: C3_3  and  N1_4
REMARK       I    between atoms: N1_4  and  C4_6
REMARK       I    between atoms: C4_6  and  N3_10
REMARK       I    between atoms: C5_12  and  N4_13
REMARK       I    between atoms: C5_12  and  N5_16
REMARK    3  A    between atoms: N5_16  and  C7_18
REMARK    4  A    between atoms: C7_18  and  N6_20
REMARK       I    between atoms: N6_20  and  C8_22
ROOT
HETATM    1  N1  UNL     1      13.338 -10.636  20.979  1.00  0.00    -0.226 N
ATOM      2  H1  UNL     1      13.474  -9.779  20.442  1.00  0.00     0.177 HD
HETATM    3  C4  UNL     1      13.398 -11.873  20.293  1.00  0.00     0.686 C
HETATM    4  N2  UNL     1      13.591 -11.883  19.021  1.00  0.00    -0.234 N
ATOM      5  H21 UNL     1      13.635 -12.774  18.527  1.00  0.00     0.174 HD
ATOM      6  H22 UNL     1      13.697 -10.996  18.528  1.00  0.00     0.174 HD
HETATM    7  N3  UNL     1      13.253 -13.087  20.967  1.00  0.00    -0.023 N
ATOM      8  H3  UNL     1      12.857 -13.027  21.906  1.00  0.00     0.203 HD
HETATM    9  C5  UNL     1      13.548 -14.255  20.568  1.00  0.00     0.694 C
HETATM   10  N4  UNL     1      13.324 -15.367  21.407  1.00  0.00    -0.230 N
ATOM     11  H4  UNL     1      14.022 -15.628  22.103  1.00  0.00     0.177 HD
HETATM   12  C6  UNL     1      12.101 -16.142  21.283  1.00  0.00     0.165 C
HETATM   13  N5  UNL     1      14.100 -14.447  19.288  1.00  0.00    -0.166 N
ATOM     14  H5  UNL     1      13.496 -14.398  18.468  1.00  0.00     0.186 HD
ENDROOT
BRANCH  13  15
HETATM   15  C7  UNL     1      15.486 -14.709  19.121  1.00  0.00     0.193 C
HETATM   16  S1  UNL     1      15.974 -15.451  17.755  1.00  0.00    -0.040 SA
BRANCH  15  17
HETATM   17  N6  UNL     1      16.415 -14.334  20.117  1.00  0.00    -0.304 N
HETATM   18  C8  UNL     1      16.945 -13.036  20.151  1.00  0.00     0.219 C
HETATM   19  C9  UNL     1      17.910 -12.658  21.192  1.00  0.00     0.117 C
HETATM   20  O1  UNL     1      16.606 -12.189  19.304  1.00  0.00    -0.274 OA
ATOM     21  H6  UNL     1      16.705 -15.015  20.818  1.00  0.00     0.171 HD
ENDBRANCH  15  17
ENDBRANCH  13  15
BRANCH   1  22
HETATM   22  C3  UNL     1      13.094 -10.522  22.397  1.00  0.00     0.137 C
BRANCH  22  23
HETATM   23  C2  UNL     1      11.607 -10.485  22.713  1.00  0.00     0.016 C
HETATM   24  C1  UNL     1      11.288 -11.415  23.837  1.00  0.00     0.006 C
ENDBRANCH  22  23
ENDBRANCH   1  22
TORSDOF 4
ENDMDL