MODEL 2
REMARK VINA RESULT: -6.246481826      1.083      1.250
REMARK  5 active torsions:
REMARK  status: ('A' for Active; 'I' for Inactive)
REMARK    1  A    between atoms: N1_2  and  C2_4
REMARK    2  A    between atoms: C2_4  and  N2_6
REMARK    3  A    between atoms: N2_6  and  N3_8
REMARK       I    between atoms: N3_8  and  C3_10
REMARK       I    between atoms: C3_10  and  N4_12
REMARK    4  A    between atoms: N4_12  and  C4_14
REMARK    5  A    between atoms: C4_14  and  C5_15
ROOT
HETATM    1  N3  UNL     1      12.348 -13.894  22.769  1.00  0.00    -0.249 N
ATOM      2  H3  UNL     1      12.664 -14.190  23.693  1.00  0.00     0.192 HD
HETATM    3  C3  UNL     1      13.035 -14.306  21.576  1.00  0.00     0.334 C
HETATM    4  O1  UNL     1      12.633 -13.944  20.453  1.00  0.00    -0.246 OA
HETATM    5  N4  UNL     1      14.182 -15.133  21.666  1.00  0.00    -0.341 N
ATOM      6  H4  UNL     1      14.523 -15.436  22.578  1.00  0.00     0.164 HD
ENDROOT
BRANCH   1   7
HETATM    7  N2  UNL     1      11.233 -13.077  22.614  1.00  0.00    -0.272 N
ATOM      8  H2  UNL     1      10.344 -13.467  22.300  1.00  0.00     0.189 HD
BRANCH   7   9
HETATM    9  C2  UNL     1      11.351 -11.689  22.899  1.00  0.00     0.186 C
HETATM   10  S1  UNL     1      12.133 -10.710  21.824  1.00  0.00    -0.040 SA
BRANCH   9  11
HETATM   11  N1  UNL     1      10.817 -11.110  24.080  1.00  0.00    -0.370 N
HETATM   12  C1  UNL     1      11.249  -9.758  24.438  1.00  0.00     0.148 C
ATOM     13  H1  UNL     1      10.152 -11.620  24.661  1.00  0.00     0.161 HD
ENDBRANCH   9  11
ENDBRANCH   7   9
ENDBRANCH   1   7
BRANCH   5  14
HETATM   14  C4  UNL     1      14.863 -15.543  20.472  1.00  0.00     0.129 C
BRANCH  14  15
HETATM   15  C5  UNL     1      16.260 -14.947  20.417  1.00  0.00     0.008 C
HETATM   16  C6  UNL     1      16.574 -14.238  21.745  1.00  0.00     0.011 C
HETATM   17  C7  UNL     1      17.116 -12.934  21.257  1.00  0.00    -0.014 C
HETATM   18  C8  UNL     1      18.357 -13.218  20.453  1.00  0.00     0.005 C
HETATM   19  C11 UNL     1      16.122 -12.641  20.124  1.00  0.00     0.010 C
HETATM   20  C9  UNL     1      17.897 -13.724  19.103  1.00  0.00     0.005 C
HETATM   21  C10 UNL     1      16.429 -13.928  19.339  1.00  0.00    -0.009 C
ENDBRANCH  14  15
ENDBRANCH   5  14
TORSDOF 5
ENDMDL