MODEL 4
REMARK VINA RESULT: -6.111126620      2.181      4.823
REMARK  2 active torsions:
REMARK  status: ('A' for Active; 'I' for Inactive)
REMARK       I    between atoms: N1_2  and  C2_4
REMARK       I    between atoms: C2_4  and  N3_8
REMARK       I    between atoms: C3_10  and  N4_11
REMARK       I    between atoms: C3_10  and  N5_18
REMARK    1  A    between atoms: N4_11  and  C4_13
REMARK    2  A    between atoms: C4_13  and  C6_15
ROOT
HETATM    1  C1  UNL     1      11.671 -16.625  19.718  1.00  0.00     0.165 C
HETATM    2  N1  UNL     1      12.984 -16.721  20.288  1.00  0.00    -0.230 N
ATOM      3  H1  UNL     1      13.601 -17.455  19.943  1.00  0.00     0.177 HD
HETATM    4  C2  UNL     1      13.480 -15.856  21.304  1.00  0.00     0.685 C
HETATM    5  N2  UNL     1      12.728 -15.690  22.342  1.00  0.00    -0.234 N
ATOM      6  H21 UNL     1      13.083 -15.071  23.070  1.00  0.00     0.174 HD
ATOM      7  H22 UNL     1      11.823 -16.149  22.442  1.00  0.00     0.174 HD
HETATM    8  N3  UNL     1      14.722 -15.227  21.165  1.00  0.00    -0.023 N
ATOM      9  H3  UNL     1      15.557 -15.781  21.358  1.00  0.00     0.203 HD
HETATM   10  C3  UNL     1      14.889 -13.996  20.811  1.00  0.00     0.691 C
HETATM   11  N4  UNL     1      13.734 -13.184  20.531  1.00  0.00    -0.211 N
ATOM     12  H4  UNL     1      13.003 -13.565  19.932  1.00  0.00     0.178 HD
HETATM   13  N5  UNL     1      16.176 -13.412  20.687  1.00  0.00    -0.217 N
HETATM   14  C7  UNL     1      17.173 -13.412  21.719  1.00  0.00     0.141 C
HETATM   15  C8  UNL     1      18.540 -13.383  21.060  1.00  0.00     0.020 C
HETATM   16  C9  UNL     1      18.547 -14.186  19.777  1.00  0.00     0.003 C
HETATM   17  C10 UNL     1      17.648 -13.491  18.790  1.00  0.00     0.020 C
HETATM   18  C11 UNL     1      16.501 -12.770  19.426  1.00  0.00     0.141 C
ENDROOT
BRANCH  11  19
HETATM   19  C4  UNL     1      13.569 -11.863  21.060  1.00  0.00     0.196 C
HETATM   20  C5  UNL     1      12.417 -11.900  22.038  1.00  0.00     0.044 C
BRANCH  19  21
HETATM   21  C6  UNL     1      13.174 -10.945  19.964  1.00  0.00     0.196 C
HETATM   22  O1  UNL     1      12.641  -9.815  20.173  1.00  0.00    -0.646 OA
HETATM   23  O2  UNL     1      13.388 -11.324  18.654  1.00  0.00    -0.646 OA
ENDBRANCH  19  21
ENDBRANCH  11  19
TORSDOF 2
ENDMDL