MODEL 2
REMARK VINA RESULT: -7.111075664      1.367      1.622
REMARK  4 active torsions:
REMARK  status: ('A' for Active; 'I' for Inactive)
REMARK       I    between atoms: N1_2  and  C2_4
REMARK       I    between atoms: C2_4  and  N3_8
REMARK       I    between atoms: N3_8  and  C3_10
REMARK       I    between atoms: C3_10  and  N4_12
REMARK    1  A    between atoms: N4_12  and  C4_14
REMARK    2  A    between atoms: C4_14  and  C5_15
REMARK    3  A    between atoms: C5_15  and  O2_16
REMARK    4  A    between atoms: C5_15  and  N5_18
ROOT
HETATM    1  C1  UNL     1      11.996  -9.984  23.566  1.00  0.00     0.165 C
HETATM    2  N1  UNL     1      11.152 -10.965  22.896  1.00  0.00    -0.231 N
ATOM      3  H1  UNL     1      10.444 -10.621  22.248  1.00  0.00     0.177 HD
HETATM    4  C2  UNL     1      11.248 -12.329  23.079  1.00  0.00     0.675 C
HETATM    5  N2  UNL     1      10.435 -12.883  23.969  1.00  0.00    -0.235 N
ATOM      6  H21 UNL     1      10.506 -13.892  24.105  1.00  0.00     0.174 HD
ATOM      7  H22 UNL     1       9.788 -12.254  24.442  1.00  0.00     0.174 HD
HETATM    8  N3  UNL     1      12.135 -13.189  22.432  1.00  0.00    -0.142 N
ATOM      9  H3  UNL     1      12.117 -14.183  22.658  1.00  0.00     0.189 HD
HETATM   10  C3  UNL     1      13.067 -12.712  21.459  1.00  0.00     0.335 C
HETATM   11  O1  UNL     1      13.072 -11.511  21.168  1.00  0.00    -0.246 OA
HETATM   12  N4  UNL     1      13.965 -13.641  20.874  1.00  0.00    -0.326 N
ATOM     13  H4  UNL     1      13.836 -14.626  21.107  1.00  0.00     0.165 HD
ENDROOT
BRANCH  12  14
HETATM   14  C4  UNL     1      15.040 -13.311  19.979  1.00  0.00     0.099 A
HETATM   15  C10 UNL     1      14.786 -13.081  18.533  1.00  0.00     0.042 A
HETATM   16  C11 UNL     1      15.337 -14.399  18.954  1.00  0.00     0.042 A
BRANCH  14  17
HETATM   17  C5  UNL     1      16.250 -12.719  20.641  1.00  0.00     0.142 C
BRANCH  17  18
HETATM   18  O2  UNL     1      16.185 -11.417  20.822  1.00  0.00    -0.348 OA
ATOM     19  H2  UNL     1      16.494 -11.125  21.672  1.00  0.00     0.219 HD
ENDBRANCH  17  18
BRANCH  17  20
HETATM   20  N5  UNL     1      17.420 -13.350  21.078  1.00  0.00    -0.363 N
HETATM   21  C6  UNL     1      18.746 -13.218  20.542  1.00  0.00     0.124 C
HETATM   22  C7  UNL     1      19.614 -14.221  21.216  1.00  0.00     0.021 C
HETATM   23  C8  UNL     1      18.919 -14.495  22.521  1.00  0.00     0.021 C
HETATM   24  C9  UNL     1      17.453 -14.317  22.165  1.00  0.00     0.124 C
ENDBRANCH  17  20
ENDBRANCH  14  17
ENDBRANCH  12  14
TORSDOF 4
ENDMDL