MODEL 1
REMARK VINA RESULT: -6.261191090      0.000      0.000
REMARK  1 active torsions:
REMARK  status: ('A' for Active; 'I' for Inactive)
REMARK    1  A    between atoms: C2_2  and  C4_4
ROOT
HETATM    1  C4  UNL     1      14.212 -14.582  21.029  1.00  0.00     0.024 C
HETATM    2  C5  UNL     1      14.291 -13.912  19.694  1.00  0.00     0.039 C
HETATM    3  C6  UNL     1      15.390 -12.900  19.577  1.00  0.00     0.043 A
HETATM    4  N1  UNL     1      15.196 -11.755  20.430  1.00  0.00    -0.333 N
ATOM      5  H1  UNL     1      16.048 -11.217  20.590  1.00  0.00     0.165 HD
HETATM    6  C7  UNL     1      14.053 -11.223  21.097  1.00  0.00     0.317 C
HETATM    7  O1  UNL     1      14.216  -9.988  21.365  1.00  0.00    -0.247 OA
HETATM    8  N2  UNL     1      12.775 -11.731  21.537  1.00  0.00    -0.335 N
ATOM      9  H2  UNL     1      12.160 -11.045  21.974  1.00  0.00     0.164 HD
HETATM   10  C8  UNL     1      12.242 -13.062  21.448  1.00  0.00     0.142 C
HETATM   11  C9  UNL     1      11.445 -13.544  22.652  1.00  0.00     0.260 C
HETATM   12  N3  UNL     1      12.187 -14.811  22.503  1.00  0.00    -0.067 N
ATOM     13  H31 UNL     1      11.809 -15.593  21.968  1.00  0.00     0.277 HD
ATOM     14  H32 UNL     1      12.314 -15.452  23.285  1.00  0.00     0.277 HD
HETATM   15  C10 UNL     1      13.275 -14.005  21.999  1.00  0.00     0.214 C
HETATM   16  C11 UNL     1      16.729 -13.192  19.111  1.00  0.00     0.021 A
HETATM   17  C12 UNL     1      17.072 -14.121  18.002  1.00  0.00     0.008 C
HETATM   18  C13 UNL     1      15.948 -13.613  17.133  1.00  0.00     0.008 C
HETATM   19  C14 UNL     1      15.706 -12.528  18.136  1.00  0.00     0.021 A
ENDROOT
BRANCH   1  20
HETATM   20  C2  UNL     1      13.968 -16.088  20.919  1.00  0.00    -0.016 C
HETATM   21  C1  UNL     1      15.161 -16.849  21.463  1.00  0.00     0.010 C
HETATM   22  C3  UNL     1      13.691 -16.543  19.533  1.00  0.00     0.010 C
ENDBRANCH   1  20
TORSDOF 1
ENDMDL