MODEL 4
REMARK VINA RESULT: -6.507683293      0.895      1.036
REMARK  5 active torsions:
REMARK  status: ('A' for Active; 'I' for Inactive)
REMARK    1  A    between atoms: C3_3  and  N1_4
REMARK    2  A    between atoms: N1_4  and  C4_6
REMARK    3  A    between atoms: C4_6  and  N2_8
REMARK    4  A    between atoms: N2_8  and  N3_10
REMARK       I    between atoms: N3_10  and  C5_12
REMARK       I    between atoms: C5_12  and  N4_14
REMARK    5  A    between atoms: N4_14  and  C6_16
ROOT
HETATM    1  C1  UNL     1      10.993 -11.718  24.524  1.00  0.00     0.014 C
HETATM    2  C2  UNL     1      11.538 -11.037  23.685  1.00  0.00    -0.098 C
HETATM    3  C3  UNL     1      12.215 -10.221  22.663  1.00  0.00     0.215 C
ENDROOT
BRANCH   3   4
HETATM    4  N1  UNL     1      11.958 -10.861  21.402  1.00  0.00    -0.356 N
ATOM      5  H1  UNL     1      11.136 -10.604  20.856  1.00  0.00     0.162 HD
BRANCH   4   6
HETATM    6  C4  UNL     1      12.851 -11.852  20.920  1.00  0.00     0.187 C
HETATM    7  S1  UNL     1      12.504 -13.419  21.181  1.00  0.00    -0.040 SA
BRANCH   6   8
HETATM    8  N2  UNL     1      14.043 -11.504  20.216  1.00  0.00    -0.272 N
ATOM      9  H2  UNL     1      13.991 -11.230  19.234  1.00  0.00     0.189 HD
BRANCH   8  10
HETATM   10  N3  UNL     1      15.273 -11.536  20.858  1.00  0.00    -0.249 N
HETATM   11  C5  UNL     1      16.179 -12.592  20.618  1.00  0.00     0.335 C
HETATM   12  O1  UNL     1      15.839 -13.507  19.804  1.00  0.00    -0.246 OA
HETATM   13  N4  UNL     1      17.424 -12.592  21.286  1.00  0.00    -0.337 N
ATOM     14  H4  UNL     1      17.657 -11.836  21.931  1.00  0.00     0.164 HD
ATOM     15  H3  UNL     1      15.524 -10.792  21.508  1.00  0.00     0.192 HD
BRANCH  13  16
HETATM   16  C6  UNL     1      18.360 -13.657  21.058  1.00  0.00     0.086 C
HETATM   17  C7  UNL     1      18.940 -14.085  22.378  1.00  0.00     0.025 C
HETATM   18  C8  UNL     1      19.930 -15.214  22.239  1.00  0.00     0.002 C
HETATM   19  C9  UNL     1      20.444 -15.305  20.827  1.00  0.00     0.000 C
HETATM   20  C10 UNL     1      20.743 -13.871  20.373  1.00  0.00     0.002 C
HETATM   21  C11 UNL     1      19.379 -13.267  20.041  1.00  0.00     0.025 C
ENDBRANCH  13  16
ENDBRANCH   8  10
ENDBRANCH   6   8
ENDBRANCH   4   6
ENDBRANCH   3   4
TORSDOF 5
ENDMDL