MODEL 5
REMARK VINA RESULT: -5.969860248      1.725      2.400
REMARK  5 active torsions:
REMARK  status: ('A' for Active; 'I' for Inactive)
REMARK    1  A    between atoms: C2_2  and  N1_3
REMARK    2  A    between atoms: N1_3  and  C3_5
REMARK    3  A    between atoms: C3_5  and  N2_7
REMARK    4  A    between atoms: N2_7  and  N3_9
REMARK       I    between atoms: N3_9  and  C4_11
REMARK       I    between atoms: C4_11  and  N4_13
REMARK    5  A    between atoms: N4_13  and  C5_15
ROOT
HETATM    1  N3  UNL     1      15.488 -13.046  18.781  1.00  0.00    -0.249 N
ATOM      2  H3  UNL     1      15.537 -13.786  18.080  1.00  0.00     0.192 HD
HETATM    3  C4  UNL     1      16.552 -12.908  19.700  1.00  0.00     0.335 C
HETATM    4  O1  UNL     1      16.470 -11.970  20.567  1.00  0.00    -0.246 OA
HETATM    5  N4  UNL     1      17.672 -13.780  19.664  1.00  0.00    -0.337 N
ATOM      6  H4  UNL     1      17.726 -14.524  18.967  1.00  0.00     0.164 HD
ENDROOT
BRANCH   1   7
HETATM    7  N2  UNL     1      14.379 -12.214  18.796  1.00  0.00    -0.272 N
ATOM      8  H2  UNL     1      14.215 -11.616  17.985  1.00  0.00     0.189 HD
BRANCH   7   9
HETATM    9  C3  UNL     1      13.463 -12.147  19.873  1.00  0.00     0.186 C
HETATM   10  S1  UNL     1      13.025 -13.581  20.540  1.00  0.00    -0.040 SA
BRANCH   9  11
HETATM   11  N1  UNL     1      12.933 -10.932  20.372  1.00  0.00    -0.366 N
ATOM     12  H1  UNL     1      12.289 -10.391  19.794  1.00  0.00     0.161 HD
BRANCH  11  13
HETATM   13  C2  UNL     1      13.287 -10.449  21.676  1.00  0.00     0.117 C
HETATM   14  C1  UNL     1      12.100 -10.505  22.628  1.00  0.00     0.026 C
ENDBRANCH  11  13
ENDBRANCH   9  11
ENDBRANCH   7   9
ENDBRANCH   1   7
BRANCH   5  15
HETATM   15  C5  UNL     1      18.720 -13.603  20.611  1.00  0.00     0.090 C
HETATM   16  C6  UNL     1      20.079 -14.050  20.111  1.00  0.00     0.030 C
HETATM   17  C7  UNL     1      20.663 -14.951  21.178  1.00  0.00    -0.012 C
HETATM   18  C8  UNL     1      19.952 -16.268  21.132  1.00  0.00     0.005 C
HETATM   19  C11 UNL     1      19.994 -14.329  22.417  1.00  0.00     0.011 C
HETATM   20  C9  UNL     1      18.526 -15.873  21.494  1.00  0.00     0.007 C
HETATM   21  C10 UNL     1      18.560 -14.432  21.865  1.00  0.00     0.009 C
ENDBRANCH   5  15
TORSDOF 5
ENDMDL