MODEL 2
REMARK VINA RESULT: -6.023180938      2.155      3.052
REMARK  5 active torsions:
REMARK  status: ('A' for Active; 'I' for Inactive)
REMARK    1  A    between atoms: C2_2  and  N1_3
REMARK       I    between atoms: N1_3  and  C3_5
REMARK       I    between atoms: C3_5  and  N2_7
REMARK    2  A    between atoms: N2_7  and  N3_9
REMARK    3  A    between atoms: N3_9  and  C4_11
REMARK    4  A    between atoms: C4_11  and  N4_13
REMARK    5  A    between atoms: N4_13  and  C5_15
ROOT
HETATM    1  C4  UNL     1      17.265 -13.452  20.251  1.00  0.00     0.186 C
HETATM    2  S1  UNL     1      17.719 -13.851  18.737  1.00  0.00    -0.040 SA
ENDROOT
BRANCH   1   3
HETATM    3  N3  UNL     1      15.856 -13.153  20.392  1.00  0.00    -0.272 N
ATOM      4  H3  UNL     1      15.173 -13.759  19.938  1.00  0.00     0.189 HD
BRANCH   3   5
HETATM    5  N2  UNL     1      15.401 -12.054  21.137  1.00  0.00    -0.249 N
HETATM    6  C3  UNL     1      14.002 -11.841  21.315  1.00  0.00     0.334 C
HETATM    7  N1  UNL     1      13.497 -10.747  22.042  1.00  0.00    -0.342 N
HETATM    8  O1  UNL     1      13.214 -12.661  20.800  1.00  0.00    -0.246 OA
ATOM      9  H1  UNL     1      14.129 -10.068  22.465  1.00  0.00     0.164 HD
ATOM     10  H2  UNL     1      16.072 -11.406  21.550  1.00  0.00     0.192 HD
BRANCH   7  11
HETATM   11  C2  UNL     1      12.048 -10.602  22.180  1.00  0.00     0.120 C
HETATM   12  C1  UNL     1      11.659 -10.678  23.623  1.00  0.00     0.026 C
ENDBRANCH   7  11
ENDBRANCH   3   5
ENDBRANCH   1   3
BRANCH   1  13
HETATM   13  N4  UNL     1      18.120 -13.384  21.368  1.00  0.00    -0.361 N
ATOM     14  H4  UNL     1      18.184 -12.478  21.831  1.00  0.00     0.162 HD
BRANCH  13  15
HETATM   15  C5  UNL     1      18.897 -14.418  21.921  1.00  0.00     0.087 C
HETATM   16  C6  UNL     1      18.454 -15.836  21.600  1.00  0.00     0.044 C
HETATM   17  C7  UNL     1      19.350 -16.744  22.462  1.00  0.00     0.118 C
HETATM   18  N5  UNL     1      20.039 -15.999  23.449  1.00  0.00    -0.416 N
HETATM   19  C8  UNL     1      20.164 -16.522  24.742  1.00  0.00     0.143 C
HETATM   20  C9  UNL     1      20.999 -15.057  22.988  1.00  0.00     0.118 C
HETATM   21  C10 UNL     1      20.378 -14.360  21.756  1.00  0.00     0.044 C
ENDBRANCH  13  15
ENDBRANCH   1  13
TORSDOF 5
ENDMDL