MODEL 1
REMARK VINA RESULT: -6.279973161      0.000      0.000
REMARK  6 active torsions:
REMARK  status: ('A' for Active; 'I' for Inactive)
REMARK    1  A    between atoms: C3_3  and  C6_6
REMARK    2  A    between atoms: C6_6  and  N1_8
REMARK    3  A    between atoms: N1_8  and  N2_10
REMARK    4  A    between atoms: N2_10  and  C7_12
REMARK    5  A    between atoms: C7_12  and  N3_14
REMARK    6  A    between atoms: N3_14  and  N4_16
REMARK       I    between atoms: N4_16  and  C8_18
ROOT
HETATM    1  C1  UNL     1      21.010 -13.847  26.906  1.00  0.00     0.018 C
HETATM    2  C2  UNL     1      20.824 -14.255  25.775  1.00  0.00    -0.075 C
HETATM    3  C3  UNL     1      20.586 -14.742  24.459  1.00  0.00     0.052 C
HETATM    4  C4  UNL     1      21.574 -14.885  23.606  1.00  0.00    -0.007 C
HETATM    5  C5  UNL     1      22.948 -14.535  24.018  1.00  0.00     0.037 C
ENDROOT
BRANCH   3   6
HETATM    6  C6  UNL     1      19.238 -15.091  24.046  1.00  0.00     0.133 C
HETATM    7  S1  UNL     1      18.087 -15.512  25.146  1.00  0.00    -0.058 SA
BRANCH   6   8
HETATM    8  N1  UNL     1      18.831 -15.091  22.683  1.00  0.00    -0.287 N
ATOM      9  H1  UNL     1      18.837 -15.969  22.164  1.00  0.00     0.188 HD
BRANCH   8  10
HETATM   10  N2  UNL     1      18.427 -13.927  22.040  1.00  0.00    -0.274 N
ATOM     11  H2  UNL     1      17.931 -13.220  22.583  1.00  0.00     0.189 HD
BRANCH  10  12
HETATM   12  C7  UNL     1      18.671 -13.674  20.670  1.00  0.00     0.205 C
HETATM   13  S2  UNL     1      20.211 -13.535  20.154  1.00  0.00    -0.038 SA
BRANCH  12  14
HETATM   14  N3  UNL     1      17.567 -13.546  19.766  1.00  0.00    -0.273 N
ATOM     15  H3  UNL     1      17.732 -13.193  18.824  1.00  0.00     0.189 HD
BRANCH  14  16
HETATM   16  N4  UNL     1      16.268 -13.894  20.149  1.00  0.00    -0.268 N
HETATM   17  C8  UNL     1      15.344 -12.909  20.558  1.00  0.00     0.232 C
HETATM   18  C9  UNL     1      13.980 -13.306  20.956  1.00  0.00     0.119 C
HETATM   19  O1  UNL     1      15.679 -11.702  20.581  1.00  0.00    -0.272 OA
ATOM     20  H4  UNL     1      15.985 -14.874  20.132  1.00  0.00     0.190 HD
ENDBRANCH  14  16
ENDBRANCH  12  14
ENDBRANCH  10  12
ENDBRANCH   8  10
ENDBRANCH   6   8
ENDBRANCH   3   6
TORSDOF 6
ENDMDL