MODEL 3
REMARK VINA RESULT: -6.456343211      2.337      7.106
REMARK  6 active torsions:
REMARK  status: ('A' for Active; 'I' for Inactive)
REMARK    1  A    between atoms: C2_2  and  C3_3
REMARK    2  A    between atoms: C3_3  and  N1_4
REMARK    3  A    between atoms: N1_4  and  C4_6
REMARK    4  A    between atoms: C4_6  and  N2_8
REMARK    5  A    between atoms: N2_8  and  N3_10
REMARK       I    between atoms: N3_10  and  C5_12
REMARK       I    between atoms: C5_12  and  N4_14
REMARK    6  A    between atoms: C8_17  and  N5_18
ROOT
HETATM    1  N3  UNL     1      15.490 -13.551  20.103  1.00  0.00    -0.249 N
ATOM      2  H3  UNL     1      15.316 -14.501  19.775  1.00  0.00     0.192 HD
HETATM    3  C5  UNL     1      16.784 -13.147  20.499  1.00  0.00     0.337 C
HETATM    4  O1  UNL     1      16.942 -11.951  20.897  1.00  0.00    -0.245 OA
HETATM    5  N4  UNL     1      17.872 -14.048  20.455  1.00  0.00    -0.333 N
HETATM    6  C6  UNL     1      17.737 -15.408  20.000  1.00  0.00     0.129 C
HETATM    7  C7  UNL     1      18.325 -16.347  21.077  1.00  0.00     0.052 C
HETATM    8  C8  UNL     1      19.736 -15.904  21.294  1.00  0.00     0.186 C
HETATM    9  C9  UNL     1      19.674 -14.537  21.987  1.00  0.00     0.052 C
HETATM   10  C10 UNL     1      19.183 -13.559  20.906  1.00  0.00     0.129 C
ENDROOT
BRANCH   1  11
HETATM   11  N2  UNL     1      14.453 -12.616  20.170  1.00  0.00    -0.272 N
ATOM     12  H2  UNL     1      14.273 -11.982  19.392  1.00  0.00     0.189 HD
BRANCH  11  13
HETATM   13  C4  UNL     1      13.657 -12.567  21.335  1.00  0.00     0.186 C
HETATM   14  S1  UNL     1      12.901 -13.925  21.834  1.00  0.00    -0.040 SA
BRANCH  13  15
HETATM   15  N1  UNL     1      13.558 -11.346  22.046  1.00  0.00    -0.366 N
ATOM     16  H1  UNL     1      14.370 -10.983  22.546  1.00  0.00     0.161 HD
BRANCH  15  17
HETATM   17  C3  UNL     1      12.318 -10.613  22.069  1.00  0.00     0.121 C
BRANCH  17  18
HETATM   18  C2  UNL     1      12.062 -10.107  23.452  1.00  0.00     0.015 C
HETATM   19  C1  UNL     1      11.433 -11.273  24.238  1.00  0.00     0.006 C
ENDBRANCH  17  18
ENDBRANCH  15  17
ENDBRANCH  13  15
ENDBRANCH  11  13
ENDBRANCH   1  11
BRANCH   8  20
HETATM   20  N5  UNL     1      20.506 -16.837  22.085  1.00  0.00    -0.075 N
ATOM     21  H53 UNL     1      20.748 -16.434  22.989  1.00  0.00     0.274 HD
ATOM     22  H52 UNL     1      19.925 -17.614  22.399  1.00  0.00     0.274 HD
ATOM     23  H51 UNL     1      21.338 -17.177  21.602  1.00  0.00     0.274 HD
ENDBRANCH   8  20
TORSDOF 6
ENDMDL