MODEL 4
REMARK VINA RESULT: -6.965332226      1.807      2.335
REMARK  5 active torsions:
REMARK  status: ('A' for Active; 'I' for Inactive)
REMARK    1  A    between atoms: C2_2  and  C3_3
REMARK       I    between atoms: C3_3  and  N1_5
REMARK    2  A    between atoms: N1_5  and  N2_7
REMARK    3  A    between atoms: N2_7  and  C4_9
REMARK    4  A    between atoms: C4_9  and  N3_11
REMARK    5  A    between atoms: N3_11  and  C5_13
ROOT
HETATM    1  C4  UNL     1      13.100 -14.439  21.752  1.00  0.00     0.186 C
HETATM    2  S1  UNL     1      12.904 -16.096  21.460  1.00  0.00    -0.040 SA
ENDROOT
BRANCH   1   3
HETATM    3  N2  UNL     1      13.928 -13.802  20.876  1.00  0.00    -0.274 N
ATOM      4  H2  UNL     1      13.538 -12.982  20.411  1.00  0.00     0.189 HD
BRANCH   3   5
HETATM    5  N1  UNL     1      15.233 -14.125  20.536  1.00  0.00    -0.267 N
HETATM    6  C3  UNL     1      16.197 -13.091  20.463  1.00  0.00     0.244 C
HETATM    7  O1  UNL     1      15.866 -11.906  20.639  1.00  0.00    -0.271 OA
ATOM      8  H1  UNL     1      15.494 -15.093  20.342  1.00  0.00     0.190 HD
BRANCH   6   9
HETATM    9  C2  UNL     1      17.616 -13.394  20.197  1.00  0.00     0.039 A
HETATM   10  C1  UNL     1      18.027 -13.967  18.841  1.00  0.00     0.025 C
HETATM   11  C10 UNL     1      18.661 -12.960  21.144  1.00  0.00     0.020 A
HETATM   12  C11 UNL     1      18.163 -14.351  21.358  1.00  0.00     0.020 A
ENDBRANCH   6   9
ENDBRANCH   3   5
ENDBRANCH   1   3
BRANCH   1  13
HETATM   13  N3  UNL     1      12.448 -13.858  22.866  1.00  0.00    -0.361 N
ATOM     14  H3  UNL     1      11.969 -14.443  23.552  1.00  0.00     0.162 HD
BRANCH  13  15
HETATM   15  C5  UNL     1      12.474 -12.421  23.014  1.00  0.00     0.087 C
HETATM   16  C6  UNL     1      12.392 -11.633  21.714  1.00  0.00     0.052 C
HETATM   17  C7  UNL     1      12.240 -10.184  22.166  1.00  0.00     0.234 C
HETATM   18  N4  UNL     1      12.470  -9.975  23.548  1.00  0.00    -0.075 N
HETATM   19  C8  UNL     1      11.520 -10.615  24.423  1.00  0.00     0.234 C
ATOM     20  H42 UNL     1      13.420 -10.254  23.794  1.00  0.00     0.277 HD
ATOM     21  H41 UNL     1      12.521  -8.977  23.751  1.00  0.00     0.277 HD
HETATM   22  C9  UNL     1      11.280 -12.003  23.896  1.00  0.00     0.052 C
ENDBRANCH  13  15
ENDBRANCH   1  13
TORSDOF 5
ENDMDL