MODEL 1
REMARK VINA RESULT: -6.389226535      0.000      0.000
REMARK  3 active torsions:
REMARK  status: ('A' for Active; 'I' for Inactive)
REMARK       I    between atoms: N1_2  and  C2_4
REMARK       I    between atoms: C2_4  and  N3_8
REMARK    1  A    between atoms: N3_8  and  C3_10
REMARK    2  A    between atoms: C3_10  and  C4_11
REMARK       I    between atoms: N4_15  and  C8_16
REMARK       I    between atoms: C8_16  and  N5_18
REMARK    3  A    between atoms: N5_18  and  C9_20
ROOT
HETATM    1  C4  UNL     1      22.058 -14.829  25.051  1.00  0.00     0.107 C
HETATM    2  C5  UNL     1      21.664 -13.860  26.154  1.00  0.00     0.028 C
HETATM    3  C6  UNL     1      20.316 -14.433  26.545  1.00  0.00     0.022 C
HETATM    4  C7  UNL     1      19.883 -15.302  25.348  1.00  0.00     0.128 C
HETATM    5  N4  UNL     1      20.811 -14.903  24.322  1.00  0.00    -0.328 N
HETATM    6  C8  UNL     1      20.486 -14.670  22.977  1.00  0.00     0.319 C
HETATM    7  O1  UNL     1      21.353 -14.317  22.108  1.00  0.00    -0.247 OA
HETATM    8  N5  UNL     1      19.164 -14.814  22.507  1.00  0.00    -0.335 N
ATOM      9  H5  UNL     1      18.443 -15.094  23.171  1.00  0.00     0.165 HD
ENDROOT
BRANCH   1  10
HETATM   10  C3  UNL     1      23.216 -14.354  24.246  1.00  0.00     0.163 C
BRANCH  10  11
HETATM   11  N3  UNL     1      23.872 -15.514  23.690  1.00  0.00    -0.225 N
HETATM   12  C2  UNL     1      24.236 -16.679  24.390  1.00  0.00     0.667 C
HETATM   13  N1  UNL     1      23.443 -17.852  24.157  1.00  0.00    -0.231 N
HETATM   14  N2  UNL     1      25.201 -16.816  25.218  1.00  0.00    -0.235 N
HETATM   15  C1  UNL     1      23.899 -18.846  23.197  1.00  0.00     0.165 C
ATOM     16  H1  UNL     1      22.566 -17.987  24.660  1.00  0.00     0.177 HD
ATOM     17  H22 UNL     1      25.466 -17.661  25.726  1.00  0.00     0.174 HD
ATOM     18  H21 UNL     1      25.766 -15.983  25.384  1.00  0.00     0.174 HD
ATOM     19  H3  UNL     1      24.093 -15.485  22.694  1.00  0.00     0.177 HD
ENDBRANCH  10  11
ENDBRANCH   1  10
BRANCH   8  20
HETATM   20  C9  UNL     1      18.778 -14.584  21.127  1.00  0.00     0.023 C
HETATM   21  C10 UNL     1      19.984 -14.298  20.246  1.00  0.00     0.037 C
HETATM   22  C11 UNL     1      17.834 -13.409  20.999  1.00  0.00     0.037 C
HETATM   23  C12 UNL     1      18.092 -15.808  20.562  1.00  0.00     0.037 C
ENDBRANCH   8  20
TORSDOF 3
ENDMDL