MODEL 2
REMARK VINA RESULT: -6.422731990      1.402      1.790
REMARK  5 active torsions:
REMARK  status: ('A' for Active; 'I' for Inactive)
REMARK       I    between atoms: N1_3  and  C4_5
REMARK       I    between atoms: C4_5  and  N2_7
REMARK    1  A    between atoms: N2_7  and  N3_9
REMARK    2  A    between atoms: N3_9  and  N4_10
REMARK    3  A    between atoms: N4_10  and  C5_12
REMARK    4  A    between atoms: C5_12  and  N5_14
REMARK    5  A    between atoms: N5_14  and  C6_16
ROOT
HETATM    1  C1  UNL     1      11.353 -12.364  23.839  1.00  0.00     0.037 C
HETATM    2  C2  UNL     1      12.148 -11.971  23.010  1.00  0.00     0.005 C
HETATM    3  N1  UNL     1      13.085 -11.507  22.067  1.00  0.00    -0.262 N
HETATM    4  C3  UNL     1      12.831 -10.185  21.518  1.00  0.00     0.172 C
HETATM    5  C4  UNL     1      14.201 -12.301  21.691  1.00  0.00     0.346 C
HETATM    6  O1  UNL     1      14.338 -13.432  22.214  1.00  0.00    -0.245 OA
HETATM    7  N2  UNL     1      15.115 -11.799  20.748  1.00  0.00    -0.234 N
ATOM      8  H2  UNL     1      14.975 -10.874  20.342  1.00  0.00     0.189 HD
ENDROOT
BRANCH   7   9
HETATM    9  N3  UNL     1      16.206 -12.562  20.371  1.00  0.00    -0.016 NA
BRANCH   9  10
HETATM   10  N4  UNL     1      17.035 -12.875  21.421  1.00  0.00    -0.260 N
ATOM     11  H4  UNL     1      16.930 -12.322  22.271  1.00  0.00     0.186 HD
BRANCH  10  12
HETATM   12  C5  UNL     1      18.018 -13.889  21.435  1.00  0.00     0.185 C
HETATM   13  S1  UNL     1      17.980 -15.072  20.327  1.00  0.00    -0.040 SA
BRANCH  12  14
HETATM   14  N5  UNL     1      19.036 -13.877  22.409  1.00  0.00    -0.362 N
ATOM     15  H5  UNL     1      19.685 -13.090  22.438  1.00  0.00     0.162 HD
BRANCH  14  16
HETATM   16  C6  UNL     1      19.189 -14.961  23.377  1.00  0.00     0.083 C
HETATM   17  C7  UNL     1      17.992 -15.023  24.305  1.00  0.00     0.025 C
HETATM   18  C8  UNL     1      18.630 -15.711  25.521  1.00  0.00     0.002 C
HETATM   19  C9  UNL     1      19.808 -14.749  25.726  1.00  0.00     0.002 C
HETATM   20  C10 UNL     1      20.352 -14.656  24.325  1.00  0.00     0.025 C
ENDBRANCH  14  16
ENDBRANCH  12  14
ENDBRANCH  10  12
ENDBRANCH   9  10
ENDBRANCH   7   9
TORSDOF 5
ENDMDL