MODEL 5
REMARK VINA RESULT: -5.313438030      3.428      4.753
REMARK  7 active torsions:
REMARK  status: ('A' for Active; 'I' for Inactive)
REMARK       I    between atoms: C3_3  and  N1_5
REMARK    1  A    between atoms: N1_5  and  N2_7
REMARK    2  A    between atoms: N2_7  and  C4_9
REMARK    3  A    between atoms: C4_9  and  N3_11
REMARK    4  A    between atoms: N3_11  and  C5_13
REMARK    5  A    between atoms: C5_13  and  N4_15
REMARK    6  A    between atoms: N4_15  and  C6_17
REMARK    7  A    between atoms: C6_17  and  C7_18
ROOT
HETATM    1  C1  UNL     1      12.709 -10.472  21.867  1.00  0.00     0.023 C
HETATM    2  C2  UNL     1      13.446 -11.416  21.728  1.00  0.00    -0.015 C
HETATM    3  C3  UNL     1      14.300 -12.550  21.555  1.00  0.00     0.314 C
HETATM    4  O1  UNL     1      14.352 -13.403  22.467  1.00  0.00    -0.256 OA
HETATM    5  N1  UNL     1      15.095 -12.750  20.384  1.00  0.00    -0.257 N
ATOM      6  H1  UNL     1      15.069 -12.067  19.627  1.00  0.00     0.191 HD
ENDROOT
BRANCH   5   7
HETATM    7  N2  UNL     1      15.899 -13.869  20.277  1.00  0.00    -0.273 N
ATOM      8  H2  UNL     1      15.492 -14.801  20.356  1.00  0.00     0.189 HD
BRANCH   7   9
HETATM    9  C4  UNL     1      17.292 -13.716  20.058  1.00  0.00     0.192 C
HETATM   10  S1  UNL     1      17.814 -13.713  18.498  1.00  0.00    -0.039 SA
BRANCH   9  11
HETATM   11  N3  UNL     1      18.173 -13.572  21.142  1.00  0.00    -0.309 N
ATOM     12  H3  UNL     1      18.334 -12.625  21.484  1.00  0.00     0.170 HD
BRANCH  11  13
HETATM   13  C5  UNL     1      18.862 -14.622  21.808  1.00  0.00     0.173 C
HETATM   14  S2  UNL     1      19.528 -15.836  20.944  1.00  0.00    -0.041 SA
BRANCH  13  15
HETATM   15  N4  UNL     1      18.947 -14.597  23.224  1.00  0.00    -0.367 N
ATOM     16  H4  UNL     1      18.073 -14.569  23.748  1.00  0.00     0.161 HD
BRANCH  15  17
HETATM   17  C6  UNL     1      20.169 -14.609  23.974  1.00  0.00     0.121 C
BRANCH  17  18
HETATM   18  C7  UNL     1      19.935 -14.580  25.453  1.00  0.00     0.015 C
HETATM   19  C8  UNL     1      21.047 -13.739  26.095  1.00  0.00     0.006 C
ENDBRANCH  17  18
ENDBRANCH  15  17
ENDBRANCH  13  15
ENDBRANCH  11  13
ENDBRANCH   9  11
ENDBRANCH   7   9
ENDBRANCH   5   7
TORSDOF 7
ENDMDL