MODEL 3
REMARK VINA RESULT: -6.457544958      4.466      5.948
REMARK  3 active torsions:
REMARK  status: ('A' for Active; 'I' for Inactive)
REMARK    1  A    between atoms: C2_2  and  N1_3
REMARK       I    between atoms: N1_3  and  C3_5
REMARK       I    between atoms: C3_5  and  N2_7
REMARK    2  A    between atoms: N2_7  and  N3_9
REMARK       I    between atoms: N3_9  and  C4_11
REMARK       I    between atoms: C4_11  and  N4_13
REMARK    3  A    between atoms: N4_13  and  C5_15
ROOT
HETATM    1  N3  UNL     1      12.212 -16.146  20.607  1.00  0.00    -0.248 N
ATOM      2  H3  UNL     1      11.667 -15.754  19.839  1.00  0.00     0.192 HD
HETATM    3  C4  UNL     1      12.773 -15.266  21.571  1.00  0.00     0.335 C
HETATM    4  O2  UNL     1      13.437 -15.803  22.501  1.00  0.00    -0.246 OA
HETATM    5  N4  UNL     1      12.572 -13.886  21.459  1.00  0.00    -0.335 N
ATOM      6  H4  UNL     1      12.023 -13.517  20.683  1.00  0.00     0.164 HD
ENDROOT
BRANCH   1   7
HETATM    7  N2  UNL     1      12.385 -17.528  20.678  1.00  0.00    -0.248 N
HETATM    8  C3  UNL     1      11.564 -18.364  19.880  1.00  0.00     0.334 C
HETATM    9  N1  UNL     1      11.735 -19.766  19.948  1.00  0.00    -0.342 N
HETATM   10  O1  UNL     1      10.699 -17.827  19.128  1.00  0.00    -0.246 OA
ATOM     11  H1  UNL     1      12.443 -20.165  20.565  1.00  0.00     0.164 HD
ATOM     12  H2  UNL     1      13.091 -17.932  21.294  1.00  0.00     0.192 HD
BRANCH   9  13
HETATM   13  C2  UNL     1      10.912 -20.628  19.148  1.00  0.00     0.120 C
HETATM   14  C1  UNL     1      11.341 -20.582  17.699  1.00  0.00     0.026 C
ENDBRANCH   9  13
ENDBRANCH   1   7
BRANCH   5  15
HETATM   15  C5  UNL     1      13.137 -12.974  22.436  1.00  0.00     0.118 C
HETATM   16  C6  UNL     1      12.069 -12.282  23.229  1.00  0.00     0.297 C
HETATM   17  N5  UNL     1      12.357 -10.919  23.544  1.00  0.00     0.086 N
HETATM   18  C7  UNL     1      11.228 -10.346  24.244  1.00  0.00     0.310 C
HETATM   19  C8  UNL     1      12.657 -10.086  22.422  1.00  0.00     0.272 C
HETATM   20  C9  UNL     1      13.010 -10.893  21.190  1.00  0.00     0.036 C
HETATM   21  C10 UNL     1      13.972 -11.972  21.647  1.00  0.00     0.008 C
HETATM   22  C11 UNL     1      14.661 -12.650  20.503  1.00  0.00     0.012 C
ENDBRANCH   5  15
TORSDOF 3
ENDMDL