MODEL 2
REMARK VINA RESULT: -5.639304451      1.811      7.189
REMARK  2 active torsions:
REMARK  status: ('A' for Active; 'I' for Inactive)
REMARK    1  A    between atoms: C2_2  and  N1_3
REMARK       I    between atoms: N1_3  and  C3_5
REMARK       I    between atoms: C3_5  and  N3_9
REMARK       I    between atoms: N3_9  and  C4_11
REMARK       I    between atoms: C4_11  and  N4_13
REMARK    2  A    between atoms: C7_16  and  C8_17
REMARK       I    between atoms: C8_17  and  N5_19
ROOT
HETATM    1  N1  UNL     1      45.394  17.907  52.680  1.00  0.00    -0.227 N
ATOM      2  H1  UNL     1      45.700  17.728  51.723  1.00  0.00     0.177 HD
HETATM    3  C3  UNL     1      46.025  18.897  53.495  1.00  0.00     0.675 C
HETATM    4  N2  UNL     1      46.827  18.595  54.445  1.00  0.00    -0.235 N
ATOM      5  H21 UNL     1      47.277  19.302  55.026  1.00  0.00     0.174 HD
ATOM      6  H22 UNL     1      47.042  17.618  54.649  1.00  0.00     0.174 HD
HETATM    7  N3  UNL     1      45.727  20.255  53.211  1.00  0.00    -0.142 N
ATOM      8  H3  UNL     1      46.167  20.978  53.780  1.00  0.00     0.189 HD
HETATM    9  C4  UNL     1      44.845  20.657  52.170  1.00  0.00     0.336 C
HETATM   10  O1  UNL     1      44.303  19.761  51.468  1.00  0.00    -0.246 OA
HETATM   11  N4  UNL     1      44.613  22.038  51.968  1.00  0.00    -0.334 N
HETATM   12  C5  UNL     1      43.718  22.448  50.911  1.00  0.00     0.128 C
HETATM   13  C6  UNL     1      42.786  23.476  51.486  1.00  0.00     0.034 C
HETATM   14  C7  UNL     1      43.544  24.680  51.929  1.00  0.00     0.081 C
HETATM   15  C10 UNL     1      44.942  24.433  52.369  1.00  0.00     0.034 C
HETATM   16  C11 UNL     1      45.237  23.029  52.777  1.00  0.00     0.128 C
ENDROOT
BRANCH   1  17
HETATM   17  C2  UNL     1      44.302  17.173  53.275  1.00  0.00     0.133 C
HETATM   18  C1  UNL     1      43.302  16.715  52.261  1.00  0.00     0.027 C
ENDBRANCH   1  17
BRANCH  14  19
HETATM   19  C8  UNL     1      43.617  25.623  50.752  1.00  0.00     0.221 C
HETATM   20  O2  UNL     1      44.644  26.317  50.552  1.00  0.00    -0.273 OA
HETATM   21  N5  UNL     1      42.536  25.736  49.862  1.00  0.00    -0.365 N
HETATM   22  C9  UNL     1      42.629  26.646  48.742  1.00  0.00     0.149 C
ATOM     23  H5  UNL     1      41.693  25.181  50.005  1.00  0.00     0.161 HD
ENDBRANCH  14  19
TORSDOF 2
ENDMDL