MODEL 4
REMARK VINA RESULT: -5.803727697      2.307      3.468
REMARK  1 active torsions:
REMARK  status: ('A' for Active; 'I' for Inactive)
REMARK       I    between atoms: N1_2  and  C2_4
REMARK       I    between atoms: C2_4  and  N3_8
REMARK    1  A    between atoms: N3_8  and  C3_10
REMARK       I    between atoms: N5_21  and  C11_22
ROOT
HETATM    1  C3  UNL     1      44.465  22.407  51.961  1.00  0.00     0.153 C
HETATM    2  C4  UNL     1      44.596  23.188  53.251  1.00  0.00     0.215 C
HETATM    3  N4  UNL     1      43.311  23.613  53.743  1.00  0.00    -0.067 N
ATOM      4  H41 UNL     1      43.384  23.923  54.712  1.00  0.00     0.277 HD
ATOM      5  H42 UNL     1      42.692  22.811  53.863  1.00  0.00     0.277 HD
HETATM    6  C5  UNL     1      42.681  24.615  52.943  1.00  0.00     0.258 C
HETATM    7  C6  UNL     1      43.625  25.323  52.004  1.00  0.00     0.113 C
HETATM    8  C7  UNL     1      44.872  25.647  52.834  1.00  0.00     0.034 C
HETATM    9  C8  UNL     1      45.566  24.292  53.014  1.00  0.00     0.022 C
HETATM   10  C9  UNL     1      46.146  24.000  51.621  1.00  0.00     0.034 C
HETATM   11  C10 UNL     1      44.903  23.450  50.936  1.00  0.00     0.113 C
HETATM   12  N5  UNL     1      43.960  24.531  50.843  1.00  0.00    -0.339 N
HETATM   13  C11 UNL     1      43.342  24.829  49.598  1.00  0.00     0.216 C
HETATM   14  C12 UNL     1      42.362  25.945  49.481  1.00  0.00     0.117 C
HETATM   15  O1  UNL     1      43.622  24.145  48.566  1.00  0.00    -0.274 OA
ENDROOT
BRANCH   1  16
HETATM   16  N3  UNL     1      45.447  21.352  51.994  1.00  0.00    -0.218 N
HETATM   17  C2  UNL     1      45.403  20.265  52.900  1.00  0.00     0.667 C
HETATM   18  N1  UNL     1      44.636  19.139  52.546  1.00  0.00    -0.231 N
HETATM   19  N2  UNL     1      46.025  20.265  54.019  1.00  0.00    -0.235 N
HETATM   20  C1  UNL     1      45.143  18.214  51.567  1.00  0.00     0.165 C
ATOM     21  H1  UNL     1      43.728  18.980  52.982  1.00  0.00     0.177 HD
ATOM     22  H22 UNL     1      45.994  19.483  54.672  1.00  0.00     0.174 HD
ATOM     23  H21 UNL     1      46.581  21.082  54.276  1.00  0.00     0.174 HD
ATOM     24  H3  UNL     1      46.217  21.391  51.326  1.00  0.00     0.178 HD
ENDBRANCH   1  16
TORSDOF 1
ENDMDL