MODEL 3
REMARK VINA RESULT: -5.328813451      2.223      5.672
REMARK  4 active torsions:
REMARK  status: ('A' for Active; 'I' for Inactive)
REMARK    1  A    between atoms: N1_4  and  C4_5
REMARK    2  A    between atoms: C4_5  and  N2_7
REMARK       I    between atoms: N2_7  and  C5_9
REMARK       I    between atoms: C5_9  and  N6_17
REMARK       I    between atoms: N3_10  and  C6_12
REMARK    3  A    between atoms: N6_17  and  C7_19
REMARK    4  A    between atoms: C7_19  and  C8_20
ROOT
HETATM    1  N2  UNL     1      43.263  23.253  51.139  1.00  0.00    -0.166 N
ATOM      2  H2  UNL     1      42.700  22.958  51.937  1.00  0.00     0.186 HD
HETATM    3  C5  UNL     1      44.506  22.613  50.923  1.00  0.00     0.682 C
HETATM    4  N3  UNL     1      45.647  23.066  51.226  1.00  0.00    -0.164 N
ATOM      5  H3  UNL     1      46.437  22.463  50.994  1.00  0.00     0.187 HD
HETATM    6  C6  UNL     1      45.969  24.271  51.831  1.00  0.00     0.200 C
HETATM    7  N4  UNL     1      46.778  25.090  51.276  1.00  0.00    -0.373 N
ATOM      8  H41 UNL     1      47.015  25.976  51.721  1.00  0.00     0.158 HD
ATOM      9  H42 UNL     1      47.186  24.838  50.376  1.00  0.00     0.158 HD
HETATM   10  N5  UNL     1      45.408  24.619  53.071  1.00  0.00    -0.063 NA
HETATM   11  N6  UNL     1      44.459  21.332  50.303  1.00  0.00    -0.226 N
ATOM     12  H6  UNL     1      44.631  21.271  49.300  1.00  0.00     0.177 HD
ENDROOT
BRANCH   1  13
HETATM   13  C4  UNL     1      42.757  24.281  50.303  1.00  0.00     0.189 C
HETATM   14  S1  UNL     1      41.238  24.809  50.585  1.00  0.00    -0.040 SA
BRANCH  13  15
HETATM   15  N1  UNL     1      43.506  24.862  49.249  1.00  0.00    -0.350 N
HETATM   16  C2  UNL     1      44.112  24.828  47.961  1.00  0.00     0.100 A
HETATM   17  C1  UNL     1      45.408  24.084  47.738  1.00  0.00     0.034 C
HETATM   18  C3  UNL     1      44.222  26.045  48.800  1.00  0.00     0.150 A
ENDBRANCH  13  15
ENDBRANCH   1  13
BRANCH  11  19
HETATM   19  C7  UNL     1      44.178  20.115  51.028  1.00  0.00     0.142 C
BRANCH  19  20
HETATM   20  C8  UNL     1      45.440  19.665  51.717  1.00  0.00     0.004 A
HETATM   21  C9  UNL     1      45.543  19.933  53.212  1.00  0.00     0.007 A
HETATM   22  C10 UNL     1      45.408  18.539  52.682  1.00  0.00     0.007 A
ENDBRANCH  19  20
ENDBRANCH  11  19
TORSDOF 4
ENDMDL