MODEL 1
REMARK VINA RESULT: -6.353751840      0.000      0.000
REMARK  1 active torsions:
REMARK  status: ('A' for Active; 'I' for Inactive)
REMARK       I    between atoms: N1_2  and  C2_4
REMARK    1  A    between atoms: C2_4  and  C3_6
ROOT
HETATM    1  C3  UNL     1      44.277  22.285  51.230  1.00  0.00     0.211 C
HETATM    2  C4  UNL     1      45.369  22.813  50.295  1.00  0.00     0.074 C
HETATM    3  C5  UNL     1      45.514  24.203  50.000  1.00  0.00     0.080 C
HETATM    4  C6  UNL     1      45.003  24.493  48.591  1.00  0.00     0.025 C
HETATM    5  C7  UNL     1      43.692  25.185  48.659  1.00  0.00     0.004 C
HETATM    6  C8  UNL     1      42.744  24.903  49.682  1.00  0.00     0.036 C
HETATM    7  C9  UNL     1      43.058  24.094  50.931  1.00  0.00     0.215 C
HETATM    8  N2  UNL     1      43.095  22.714  50.563  1.00  0.00    -0.050 N
ATOM      9  H21 UNL     1      42.253  22.180  50.777  1.00  0.00     0.279 HD
ATOM     10  H22 UNL     1      43.066  22.527  49.560  1.00  0.00     0.279 HD
HETATM   11  C10 UNL     1      44.171  24.668  51.718  1.00  0.00     0.054 C
HETATM   12  C11 UNL     1      43.473  24.984  52.969  1.00  0.00     0.033 C
HETATM   13  C12 UNL     1      43.244  23.469  53.296  1.00  0.00     0.010 C
HETATM   14  C13 UNL     1      44.373  22.697  52.648  1.00  0.00     0.034 C
HETATM   15  C14 UNL     1      45.228  23.907  52.462  1.00  0.00     0.040 C
HETATM   16  N3  UNL     1      44.927  25.293  50.807  1.00  0.00    -0.406 N
ATOM     17  H3  UNL     1      45.067  26.298  50.695  1.00  0.00     0.154 HD
ENDROOT
BRANCH   1  18
HETATM   18  C2  UNL     1      44.357  20.805  51.159  1.00  0.00     0.254 C
HETATM   19  N1  UNL     1      44.917  20.058  52.229  1.00  0.00    -0.363 N
HETATM   20  C1  UNL     1      44.974  18.622  52.115  1.00  0.00     0.149 C
ATOM     21  H1  UNL     1      45.271  20.529  53.061  1.00  0.00     0.161 HD
HETATM   22  O1  UNL     1      43.912  20.227  50.120  1.00  0.00    -0.271 OA
ENDBRANCH   1  18
TORSDOF 1
ENDMDL