MODEL 2
REMARK VINA RESULT: -5.547238933      2.320      2.408
REMARK  7 active torsions:
REMARK  status: ('A' for Active; 'I' for Inactive)
REMARK    1  A    between atoms: C3_3  and  C6_6
REMARK    2  A    between atoms: C7_7  and  C8_8
REMARK    3  A    between atoms: C8_8  and  N1_9
REMARK    4  A    between atoms: N1_9  and  C9_11
REMARK    5  A    between atoms: C9_11  and  N2_13
REMARK    6  A    between atoms: N2_13  and  N3_15
REMARK    7  A    between atoms: N3_15  and  C10_17
ROOT
HETATM    1  C1  UNL     1      38.077  24.558  55.371  1.00  0.00     0.098 C
HETATM    2  C2  UNL     1      39.224  24.948  55.221  1.00  0.00    -0.165 C
HETATM    3  C3  UNL     1      40.610  25.394  55.058  1.00  0.00     0.067 C
HETATM    4  C4  UNL     1      41.506  24.563  55.972  1.00  0.00     0.042 C
HETATM    5  C5  UNL     1      40.750  26.871  55.365  1.00  0.00     0.042 C
ENDROOT
BRANCH   3   6
HETATM    6  C6  UNL     1      41.009  25.102  53.670  1.00  0.00    -0.084 C
HETATM    7  C7  UNL     1      41.363  24.854  52.526  1.00  0.00    -0.085 C
BRANCH   7   8
HETATM    8  C8  UNL     1      41.815  24.551  51.168  1.00  0.00     0.216 C
BRANCH   8   9
HETATM    9  N1  UNL     1      42.167  23.171  51.066  1.00  0.00    -0.356 N
ATOM     10  H1  UNL     1      41.441  22.482  51.266  1.00  0.00     0.162 HD
BRANCH   9  11
HETATM   11  C9  UNL     1      43.448  22.686  50.706  1.00  0.00     0.187 C
HETATM   12  S1  UNL     1      44.670  23.766  50.667  1.00  0.00    -0.040 SA
BRANCH  11  13
HETATM   13  N2  UNL     1      43.626  21.320  50.402  1.00  0.00    -0.274 N
ATOM     14  H2  UNL     1      42.830  20.736  50.144  1.00  0.00     0.189 HD
BRANCH  13  15
HETATM   15  N3  UNL     1      44.910  20.784  50.459  1.00  0.00    -0.276 N
ATOM     16  H3  UNL     1      45.584  21.003  49.727  1.00  0.00     0.189 HD
BRANCH  15  17
HETATM   17  C10 UNL     1      45.282  19.937  51.529  1.00  0.00     0.199 C
HETATM   18  N4  UNL     1      45.296  18.530  51.352  1.00  0.00    -0.068 NA
HETATM   19  S2  UNL     1      45.694  20.558  52.973  1.00  0.00    -0.043 SA
ENDBRANCH  15  17
ENDBRANCH  13  15
ENDBRANCH  11  13
ENDBRANCH   9  11
ENDBRANCH   8   9
ENDBRANCH   7   8
ENDBRANCH   3   6
TORSDOF 7
ENDMDL