MODEL 5
REMARK VINA RESULT: -5.338706961      3.308      3.509
REMARK  6 active torsions:
REMARK  status: ('A' for Active; 'I' for Inactive)
REMARK    1  A    between atoms: C3_3  and  C4_4
REMARK    2  A    between atoms: C5_5  and  C6_6
REMARK    3  A    between atoms: C6_6  and  C7_7
REMARK    4  A    between atoms: C6_6  and  N1_10
REMARK    5  A    between atoms: C7_7  and  O1_8
REMARK       I    between atoms: N1_10  and  C8_12
REMARK       I    between atoms: C8_12  and  N3_16
REMARK       I    between atoms: C9_18  and  N5_20
REMARK    6  A    between atoms: N5_20  and  C11_22
ROOT
HETATM    1  C1  UNL     1      40.182  30.046  50.719  1.00  0.00     0.113 C
HETATM    2  C2  UNL     1      41.110  28.925  50.879  1.00  0.00    -0.097 C
HETATM    3  C3  UNL     1      41.902  28.002  51.010  1.00  0.00    -0.015 C
ENDROOT
BRANCH   3   4
HETATM    4  C4  UNL     1      42.834  26.950  51.165  1.00  0.00    -0.013 C
HETATM    5  C5  UNL     1      43.614  26.041  51.301  1.00  0.00    -0.064 C
BRANCH   5   6
HETATM    6  C6  UNL     1      44.577  24.931  51.484  1.00  0.00     0.203 C
BRANCH   6   7
HETATM    7  C7  UNL     1      45.664  25.345  52.443  1.00  0.00     0.202 C
BRANCH   7   8
HETATM    8  O1  UNL     1      45.810  24.294  53.362  1.00  0.00    -0.398 OA
ATOM      9  H1  UNL     1      45.871  24.692  54.222  1.00  0.00     0.209 HD
ENDBRANCH   7   8
ENDBRANCH   6   7
BRANCH   6  10
HETATM   10  N1  UNL     1      43.919  23.764  52.015  1.00  0.00    -0.209 N
HETATM   11  C8  UNL     1      43.624  22.643  51.200  1.00  0.00     0.675 C
HETATM   12  N2  UNL     1      43.062  22.799  50.051  1.00  0.00    -0.235 N
HETATM   13  N3  UNL     1      43.950  21.357  51.653  1.00  0.00    -0.164 N
ATOM     14  H22 UNL     1      42.825  23.735  49.722  1.00  0.00     0.174 HD
ATOM     15  H21 UNL     1      42.850  21.991  49.465  1.00  0.00     0.174 HD
HETATM   16  C9  UNL     1      45.142  20.947  51.922  1.00  0.00     0.204 C
ATOM     17  H3  UNL     1      43.185  20.694  51.779  1.00  0.00     0.187 HD
HETATM   18  N4  UNL     1      46.290  21.753  51.793  1.00  0.00    -0.063 NA
HETATM   19  N5  UNL     1      45.272  19.604  52.371  1.00  0.00    -0.360 N
HETATM   20  C10 UNL     1      44.541  18.588  51.638  1.00  0.00     0.152 C
ATOM     21  H1  UNL     1      43.659  23.744  53.001  1.00  0.00     0.179 HD
BRANCH  19  22
HETATM   22  C11 UNL     1      46.067  19.188  53.485  1.00  0.00     0.120 C
HETATM   23  C12 UNL     1      45.521  17.983  54.193  1.00  0.00     0.026 C
ENDBRANCH  19  22
ENDBRANCH   6  10
ENDBRANCH   5   6
ENDBRANCH   3   4
TORSDOF 6
ENDMDL