MODEL 4
REMARK VINA RESULT: -5.221656678      2.702      4.619
REMARK  3 active torsions:
REMARK  status: ('A' for Active; 'I' for Inactive)
REMARK       I    between atoms: N1_6  and  C6_7
REMARK    1  A    between atoms: C7_12  and  C8_13
REMARK    2  A    between atoms: C8_13  and  N4_16
REMARK    3  A    between atoms: N4_16  and  C11_18
ROOT
HETATM    1  C1  UNL     1      42.791  27.412  49.853  1.00  0.00     0.012 C
HETATM    2  C2  UNL     1      42.711  26.252  50.163  1.00  0.00    -0.110 C
HETATM    3  C3  UNL     1      42.584  24.881  50.525  1.00  0.00     0.091 C
HETATM    4  C4  UNL     1      42.802  24.634  52.005  1.00  0.00     0.039 C
HETATM    5  C5  UNL     1      43.061  23.124  51.952  1.00  0.00     0.127 C
HETATM    6  N1  UNL     1      43.954  23.011  50.828  1.00  0.00    -0.347 N
HETATM    7  C6  UNL     1      45.005  22.055  50.841  1.00  0.00     0.184 C
HETATM    8  N2  UNL     1      46.067  22.317  51.506  1.00  0.00    -0.374 N
ATOM      9  H21 UNL     1      46.821  21.631  51.515  1.00  0.00     0.158 HD
ATOM     10  H22 UNL     1      46.121  23.207  52.000  1.00  0.00     0.158 HD
HETATM   11  N3  UNL     1      44.932  20.827  50.159  1.00  0.00    -0.064 NA
HETATM   12  C7  UNL     1      43.562  23.967  49.842  1.00  0.00     0.137 C
ENDROOT
BRANCH  12  13
HETATM   13  C8  UNL     1      44.702  24.672  49.191  1.00  0.00     0.186 C
HETATM   14  C9  UNL     1      45.670  25.210  50.113  1.00  0.00    -0.090 C
HETATM   15  C10 UNL     1      46.503  25.650  50.872  1.00  0.00     0.014 C
BRANCH  13  16
HETATM   16  N4  UNL     1      45.270  23.822  48.168  1.00  0.00    -0.352 N
ATOM     17  H4  UNL     1      45.628  22.916  48.472  1.00  0.00     0.163 HD
BRANCH  16  18
HETATM   18  C11 UNL     1      45.379  24.118  46.801  1.00  0.00     0.182 C
HETATM   19  N5  UNL     1      45.669  23.100  45.860  1.00  0.00    -0.070 NA
HETATM   20  S1  UNL     1      45.159  25.677  46.333  1.00  0.00    -0.044 SA
ENDBRANCH  16  18
ENDBRANCH  13  16
ENDBRANCH  12  13
TORSDOF 3
ENDMDL