MODEL 1
REMARK VINA RESULT: -6.289762339      0.000      0.000
REMARK  3 active torsions:
REMARK  status: ('A' for Active; 'I' for Inactive)
REMARK    1  A    between atoms: C2_4  and  N2_6
REMARK    2  A    between atoms: C6_9  and  N3_10
REMARK       I    between atoms: N3_10  and  C7_12
REMARK       I    between atoms: C7_12  and  N5_16
REMARK    3  A    between atoms: N5_16  and  C8_18
ROOT
HETATM    1  N3  UNL     1      43.945  23.239  51.981  1.00  0.00    -0.221 N
ATOM      2  H3  UNL     1      44.622  23.422  52.721  1.00  0.00     0.178 HD
HETATM    3  C7  UNL     1      44.200  22.260  51.003  1.00  0.00     0.668 C
HETATM    4  N4  UNL     1      44.724  22.590  49.892  1.00  0.00    -0.235 N
ATOM      5  H41 UNL     1      44.908  21.880  49.183  1.00  0.00     0.174 HD
ATOM      6  H42 UNL     1      44.960  23.567  49.713  1.00  0.00     0.174 HD
HETATM    7  N5  UNL     1      43.874  20.912  51.249  1.00  0.00    -0.221 N
ATOM      8  H5  UNL     1      42.915  20.582  51.142  1.00  0.00     0.178 HD
ENDROOT
BRANCH   1   9
HETATM    9  C6  UNL     1      42.712  23.975  51.917  1.00  0.00     0.118 C
HETATM   10  C5  UNL     1      42.783  25.213  51.083  1.00  0.00     0.047 C
HETATM   11  C4  UNL     1      41.612  26.036  51.590  1.00  0.00     0.126 C
HETATM   12  N2  UNL     1      41.263  25.467  52.878  1.00  0.00    -0.369 N
HETATM   13  C12 UNL     1      42.297  24.535  53.262  1.00  0.00     0.149 C
BRANCH  12  14
HETATM   14  C2  UNL     1      40.111  25.753  53.655  1.00  0.00     0.070 C
HETATM   15  N1  UNL     1      39.295  26.683  53.336  1.00  0.00    -0.385 N
HETATM   16  C1  UNL     1      38.130  26.977  54.118  1.00  0.00     0.147 C
ATOM     17  H1  UNL     1      39.479  27.234  52.498  1.00  0.00     0.160 HD
HETATM   18  C3  UNL     1      39.854  24.937  54.882  1.00  0.00     0.088 C
ENDBRANCH  12  14
ENDBRANCH   1   9
BRANCH   7  19
HETATM   19  C8  UNL     1      44.910  20.011  51.653  1.00  0.00     0.126 C
HETATM   20  C9  UNL     1      45.407  20.324  53.072  1.00  0.00     0.055 C
HETATM   21  C10 UNL     1      46.031  18.966  53.423  1.00  0.00     0.234 C
HETATM   22  N6  UNL     1      44.960  18.072  53.034  1.00  0.00    -0.073 N
HETATM   23  C11 UNL     1      44.468  18.583  51.789  1.00  0.00     0.257 C
ATOM     24  H62 UNL     1      45.240  17.092  52.993  1.00  0.00     0.277 HD
ATOM     25  H61 UNL     1      44.239  17.961  53.747  1.00  0.00     0.277 HD
ENDBRANCH   7  19
TORSDOF 3
ENDMDL