MODEL 4
REMARK VINA RESULT: -6.009207645      2.219      3.420
REMARK  1 active torsions:
REMARK  status: ('A' for Active; 'I' for Inactive)
REMARK    1  A    between atoms: C7_8  and  N2_9
REMARK       I    between atoms: C8_11  and  N4_13
REMARK       I    between atoms: N4_13  and  C9_15
ROOT
HETATM    1  C1  UNL     1      44.902  27.587  48.079  1.00  0.00     0.272 C
HETATM    2  N1  UNL     1      43.767  26.706  48.282  1.00  0.00    -0.070 N
HETATM    3  C2  UNL     1      42.557  27.447  48.299  1.00  0.00     0.272 C
HETATM    4  C3  UNL     1      43.830  25.671  47.298  1.00  0.00     0.237 C
HETATM    5  C4  UNL     1      44.842  24.642  47.812  1.00  0.00     0.034 C
HETATM    6  C5  UNL     1      45.165  25.143  49.192  1.00  0.00     0.020 C
HETATM    7  C6  UNL     1      45.489  24.081  50.173  1.00  0.00     0.032 C
HETATM    8  C7  UNL     1      44.339  23.621  51.012  1.00  0.00     0.084 C
HETATM    9  C10 UNL     1      43.003  23.765  50.322  1.00  0.00     0.027 C
HETATM   10  C11 UNL     1      42.736  25.137  49.810  1.00  0.00     0.036 C
HETATM   11  C12 UNL     1      43.946  25.957  49.536  1.00  0.00     0.194 C
ENDROOT
BRANCH   8  12
HETATM   12  N2  UNL     1      44.504  22.242  51.366  1.00  0.00    -0.360 N
HETATM   13  C8  UNL     1      44.909  21.806  52.499  1.00  0.00     0.190 C
HETATM   14  N3  UNL     1      45.225  22.736  53.505  1.00  0.00    -0.063 NA
HETATM   15  N4  UNL     1      45.020  20.407  52.693  1.00  0.00    -0.305 N
HETATM   16  C9  UNL     1      44.709  19.487  51.678  1.00  0.00     0.188 C
ATOM     17  H4  UNL     1      45.336  20.057  53.598  1.00  0.00     0.171 HD
HETATM   18  N5  UNL     1      43.895  19.732  50.708  1.00  0.00    -0.373 N
HETATM   19  N6  UNL     1      45.312  18.199  51.690  1.00  0.00    -0.064 NA
ATOM     20  H52 UNL     1      43.462  20.655  50.700  1.00  0.00     0.158 HD
ATOM     21  H51 UNL     1      43.670  19.064  49.971  1.00  0.00     0.158 HD
ATOM     22  H2  UNL     1      44.281  21.548  50.652  1.00  0.00     0.162 HD
ENDBRANCH   8  12
TORSDOF 1
ENDMDL