MODEL 3
REMARK VINA RESULT: -6.042574889      1.874      2.484
REMARK  2 active torsions:
REMARK  status: ('A' for Active; 'I' for Inactive)
REMARK       I    between atoms: C1_4  and  N3_6
REMARK       I    between atoms: C2_8  and  N4_9
REMARK       I    between atoms: C2_8  and  N7_18
REMARK    1  A    between atoms: N4_9  and  N5_11
REMARK    2  A    between atoms: C3_13  and  N6_14
ROOT
HETATM    1  N1  UNL     1      45.799  25.516  50.086  1.00  0.00    -0.373 N
ATOM      2  H11 UNL     1      45.174  25.200  49.345  1.00  0.00     0.158 HD
ATOM      3  H12 UNL     1      46.239  26.428  49.965  1.00  0.00     0.158 HD
HETATM    4  C1  UNL     1      45.989  24.758  51.107  1.00  0.00     0.200 C
HETATM    5  N2  UNL     1      46.872  25.204  52.154  1.00  0.00    -0.063 NA
HETATM    6  N3  UNL     1      45.385  23.505  51.274  1.00  0.00    -0.163 N
ATOM      7  H3  UNL     1      45.998  22.691  51.306  1.00  0.00     0.187 HD
HETATM    8  C2  UNL     1      44.117  23.293  51.390  1.00  0.00     0.697 C
HETATM    9  N4  UNL     1      43.702  21.954  51.551  1.00  0.00    -0.131 N
ATOM     10  H4  UNL     1      43.367  21.629  52.458  1.00  0.00     0.205 HD
HETATM   11  N7  UNL     1      43.174  24.347  51.360  1.00  0.00    -0.216 N
HETATM   12  C7  UNL     1      42.340  24.587  50.192  1.00  0.00     0.141 C
HETATM   13  C8  UNL     1      40.989  25.119  50.609  1.00  0.00     0.020 C
HETATM   14  C9  UNL     1      41.173  26.481  51.255  1.00  0.00     0.003 C
HETATM   15  C10 UNL     1      42.533  26.586  51.881  1.00  0.00     0.020 C
HETATM   16  C11 UNL     1      42.976  25.254  52.484  1.00  0.00     0.141 C
ENDROOT
BRANCH   9  17
HETATM   17  N5  UNL     1      43.751  21.085  50.479  1.00  0.00    -0.282 N
HETATM   18  C3  UNL     1      44.450  20.008  50.576  1.00  0.00     0.195 C
ATOM     19  H5  UNL     1      43.240  21.293  49.621  1.00  0.00     0.188 HD
BRANCH  18  20
HETATM   20  N6  UNL     1      45.186  19.642  51.721  1.00  0.00    -0.376 N
HETATM   21  C4  UNL     1      46.227  20.240  52.521  1.00  0.00     0.125 C
HETATM   22  C5  UNL     1      45.653  19.453  53.705  1.00  0.00     0.040 C
HETATM   23  C6  UNL     1      45.228  18.504  52.605  1.00  0.00     0.125 C
ENDBRANCH  18  20
ENDBRANCH   9  17
TORSDOF 2
ENDMDL