MODEL 4
REMARK VINA RESULT: -5.425384877      4.505      5.012
REMARK  3 active torsions:
REMARK  status: ('A' for Active; 'I' for Inactive)
REMARK    1  A    between atoms: C2_2  and  N1_3
REMARK       I    between atoms: N1_3  and  C3_5
REMARK       I    between atoms: C3_5  and  N2_7
REMARK    2  A    between atoms: N2_7  and  C4_9
REMARK       I    between atoms: N3_13  and  C8_14
REMARK       I    between atoms: C8_14  and  N5_18
REMARK    3  A    between atoms: N5_18  and  C9_20
ROOT
HETATM    1  C4  UNL     1      28.765  10.396  17.704  1.00  0.00     0.104 C
HETATM    2  C5  UNL     1      29.450   9.096  17.401  1.00  0.00     0.028 C
HETATM    3  C6  UNL     1      28.514   7.917  17.350  1.00  0.00     0.022 C
HETATM    4  C7  UNL     1      27.637   7.992  18.608  1.00  0.00     0.141 C
HETATM    5  N3  UNL     1      26.867   9.209  18.501  1.00  0.00    -0.216 N
HETATM    6  C8  UNL     1      25.721   9.357  19.358  1.00  0.00     0.670 C
HETATM    7  N4  UNL     1      25.878  10.189  20.327  1.00  0.00    -0.235 N
ATOM      8  H41 UNL     1      25.065  10.294  20.934  1.00  0.00     0.174 HD
ATOM      9  H42 UNL     1      26.734  10.714  20.504  1.00  0.00     0.174 HD
HETATM   10  N5  UNL     1      24.524   8.622  19.111  1.00  0.00    -0.218 N
ATOM     11  H5  UNL     1      24.142   8.673  18.166  1.00  0.00     0.178 HD
HETATM   12  C13 UNL     1      27.280  10.216  17.546  1.00  0.00     0.166 C
ENDROOT
BRANCH  10  13
HETATM   13  C9  UNL     1      23.811   7.826  20.045  1.00  0.00     0.036 C
HETATM   14  C10 UNL     1      22.636   7.164  19.328  1.00  0.00     0.038 C
HETATM   15  C11 UNL     1      23.314   8.568  21.267  1.00  0.00     0.038 C
HETATM   16  C12 UNL     1      24.637   6.656  20.600  1.00  0.00     0.038 C
ENDBRANCH  10  13
BRANCH   1  17
HETATM   17  N2  UNL     1      29.312  11.428  16.880  1.00  0.00    -0.337 N
HETATM   18  C3  UNL     1      29.208  12.817  17.163  1.00  0.00     0.316 C
HETATM   19  N1  UNL     1      29.783  13.766  16.285  1.00  0.00    -0.343 N
HETATM   20  O1  UNL     1      28.614  13.251  18.180  1.00  0.00    -0.247 OA
ATOM     21  H1  UNL     1      30.272  13.443  15.450  1.00  0.00     0.164 HD
ATOM     22  H2  UNL     1      29.810  11.150  16.035  1.00  0.00     0.164 HD
BRANCH  19  23
HETATM   23  C2  UNL     1      29.693  15.182  16.548  1.00  0.00     0.120 C
HETATM   24  C1  UNL     1      29.290  15.955  15.328  1.00  0.00     0.026 C
ENDBRANCH  19  23
ENDBRANCH   1  17
TORSDOF 3
ENDMDL