MODEL 5
REMARK VINA RESULT: -4.985107445      2.431      4.341
REMARK  2 active torsions:
REMARK  status: ('A' for Active; 'I' for Inactive)
REMARK    1  A    between atoms: O1_1  and  C1_3
REMARK    2  A    between atoms: C1_3  and  C2_4
ROOT
HETATM    1  C2  UNL     1      27.256  10.612  19.128  1.00  0.00     0.039 C
HETATM    2  C3  UNL     1      27.319  11.974  19.755  1.00  0.00     0.246 C
HETATM    3  N1  UNL     1      28.651  12.428  20.041  1.00  0.00    -0.073 N
ATOM      4  H11 UNL     1      28.723  13.442  20.126  1.00  0.00     0.277 HD
ATOM      5  H12 UNL     1      29.293  12.322  19.255  1.00  0.00     0.277 HD
HETATM    6  C4  UNL     1      29.079  11.715  21.241  1.00  0.00     0.262 C
HETATM    7  C5  UNL     1      29.656  10.425  20.818  1.00  0.00     0.288 C
HETATM    8  N2  UNL     1      28.815   9.330  20.580  1.00  0.00     0.017 N
HETATM    9  C6  UNL     1      29.607   8.392  19.753  1.00  0.00     0.262 C
HETATM   10  C7  UNL     1      30.458   7.626  20.699  1.00  0.00     0.048 C
HETATM   11  C8  UNL     1      29.886   7.927  22.038  1.00  0.00     0.144 C
HETATM   12  N3  UNL     1      28.671   8.624  21.810  1.00  0.00    -0.046 NA
HETATM   13  C9  UNL     1      27.523   9.483  20.045  1.00  0.00     0.224 C
HETATM   14  C10 UNL     1      26.436   9.338  21.117  1.00  0.00     0.041 C
HETATM   15  C11 UNL     1      25.060   9.266  20.497  1.00  0.00    -0.012 C
HETATM   16  C12 UNL     1      25.029   8.269  19.346  1.00  0.00     0.005 C
HETATM   17  C13 UNL     1      25.520   9.062  18.148  1.00  0.00     0.006 C
HETATM   18  C14 UNL     1      25.801  10.461  18.646  1.00  0.00     0.000 C
HETATM   19  C15 UNL     1      24.825  10.559  19.782  1.00  0.00     0.010 C
ENDROOT
BRANCH   1  20
HETATM   20  C1  UNL     1      28.051  10.537  17.841  1.00  0.00     0.177 C
BRANCH  20  21
HETATM   21  O1  UNL     1      28.019  11.780  17.162  1.00  0.00    -0.400 OA
ATOM     22  H1  UNL     1      28.740  11.844  16.546  1.00  0.00     0.209 HD
ENDBRANCH  20  21
ENDBRANCH   1  20
TORSDOF 2
ENDMDL