MODEL 4
REMARK VINA RESULT: -5.464014580      2.851      4.227
REMARK  5 active torsions:
REMARK  status: ('A' for Active; 'I' for Inactive)
REMARK    1  A    between atoms: C2_2  and  C3_4
REMARK    2  A    between atoms: C3_4  and  N1_5
REMARK    3  A    between atoms: N1_5  and  C4_7
REMARK    4  A    between atoms: C4_7  and  N2_9
REMARK    5  A    between atoms: N2_9  and  C5_11
ROOT
HETATM    1  C5  UNL     1      29.740  11.304  17.981  1.00  0.00     0.090 C
HETATM    2  C6  UNL     1      31.187  11.683  17.715  1.00  0.00     0.030 C
HETATM    3  C7  UNL     1      31.992  10.420  17.909  1.00  0.00    -0.010 C
HETATM    4  C8  UNL     1      32.076   9.571  16.685  1.00  0.00     0.040 C
HETATM    5  C9  UNL     1      30.883   8.722  16.424  1.00  0.00     0.217 A
HETATM    6  N3  UNL     1      29.735   9.379  15.835  1.00  0.00    -0.062 N
ATOM      7  H31 UNL     1      29.163   9.235  15.002  1.00  0.00     0.278 HD
ATOM      8  H32 UNL     1      29.569  10.269  15.365  1.00  0.00     0.278 HD
HETATM    9  C10 UNL     1      29.699   8.922  17.179  1.00  0.00     0.222 A
HETATM   10  C11 UNL     1      29.757   9.864  18.343  1.00  0.00     0.041 C
HETATM   11  C12 UNL     1      31.150   9.701  18.967  1.00  0.00     0.013 C
ENDROOT
BRANCH   1  12
HETATM   12  N2  UNL     1      29.289  12.055  19.166  1.00  0.00    -0.362 N
ATOM     13  H2  UNL     1      29.955  12.245  19.915  1.00  0.00     0.162 HD
BRANCH  12  14
HETATM   14  C4  UNL     1      27.965  12.516  19.292  1.00  0.00     0.168 C
HETATM   15  S1  UNL     1      26.705  11.517  19.599  1.00  0.00    -0.041 SA
BRANCH  14  16
HETATM   16  N1  UNL     1      27.702  13.902  19.152  1.00  0.00    -0.360 N
ATOM     17  H1  UNL     1      26.742  14.242  19.199  1.00  0.00     0.162 HD
BRANCH  16  18
HETATM   18  C3  UNL     1      28.782  14.832  18.945  1.00  0.00     0.199 C
BRANCH  18  19
HETATM   19  C2  UNL     1      28.785  15.381  17.565  1.00  0.00     0.140 C
HETATM   20  C1  UNL     1      29.660  14.806  16.519  1.00  0.00     0.092 C
HETATM   21  O1  UNL     1      28.062  16.306  17.308  1.00  0.00    -0.297 OA
ENDBRANCH  18  19
ENDBRANCH  16  18
ENDBRANCH  14  16
ENDBRANCH  12  14
ENDBRANCH   1  12
TORSDOF 5
ENDMDL