MODEL 4
REMARK VINA RESULT: -5.473643461      2.717      6.123
REMARK  3 active torsions:
REMARK  status: ('A' for Active; 'I' for Inactive)
REMARK    1  A    between atoms: C2_2  and  N1_3
REMARK       I    between atoms: N1_3  and  C3_5
REMARK       I    between atoms: C3_5  and  N2_7
REMARK    2  A    between atoms: N2_7  and  C4_9
REMARK    3  A    between atoms: C8_13  and  O2_14
ROOT
HETATM    1  C4  UNL     1      30.086  10.849  17.398  1.00  0.00     0.092 C
HETATM    2  C5  UNL     1      29.445  12.154  17.045  1.00  0.00     0.061 C
HETATM    3  C6  UNL     1      28.563  12.763  18.052  1.00  0.00     0.229 C
HETATM    4  C7  UNL     1      29.301  13.058  19.366  1.00  0.00     0.076 C
HETATM    5  C8  UNL     1      28.758  11.884  20.194  1.00  0.00     0.091 C
HETATM    6  C9  UNL     1      29.484  10.664  19.851  1.00  0.00     0.046 C
HETATM    7  C10 UNL     1      29.383  10.099  18.503  1.00  0.00     0.013 C
HETATM    8  C11 UNL     1      27.998   9.809  18.006  1.00  0.00     0.042 C
HETATM    9  C12 UNL     1      27.014  10.872  18.231  1.00  0.00     0.226 C
HETATM   10  C13 UNL     1      26.550  10.747  19.692  1.00  0.00     0.075 C
HETATM   11  C14 UNL     1      27.328  11.980  19.868  1.00  0.00     0.260 C
HETATM   12  N3  UNL     1      27.368  12.173  18.414  1.00  0.00     0.105 N
ENDROOT
BRANCH   1  13
HETATM   13  N2  UNL     1      31.502  10.926  17.579  1.00  0.00    -0.338 N
HETATM   14  C3  UNL     1      32.377  10.118  16.831  1.00  0.00     0.316 C
HETATM   15  N1  UNL     1      33.792  10.152  16.968  1.00  0.00    -0.343 N
HETATM   16  O1  UNL     1      31.904   9.309  15.985  1.00  0.00    -0.247 OA
ATOM     17  H1  UNL     1      34.193  10.799  17.646  1.00  0.00     0.164 HD
ATOM     18  H2  UNL     1      31.884  11.579  18.263  1.00  0.00     0.164 HD
BRANCH  15  19
HETATM   19  C2  UNL     1      34.685   9.331  16.209  1.00  0.00     0.120 C
HETATM   20  C1  UNL     1      35.599  10.136  15.312  1.00  0.00     0.026 C
ENDBRANCH  15  19
ENDBRANCH   1  13
BRANCH   5  21
HETATM   21  O2  UNL     1      28.947  12.179  21.540  1.00  0.00    -0.388 OA
ATOM     22  H2  UNL     1      29.503  11.507  21.915  1.00  0.00     0.210 HD
ENDBRANCH   5  21
TORSDOF 3
ENDMDL