MODEL 3
REMARK VINA RESULT: -5.990791767      4.607      7.002
REMARK  3 active torsions:
REMARK  status: ('A' for Active; 'I' for Inactive)
REMARK    1  A    between atoms: C3_3  and  N1_4
REMARK       I    between atoms: N1_4  and  C4_6
REMARK       I    between atoms: C4_6  and  N3_10
REMARK    2  A    between atoms: N3_10  and  N4_12
REMARK       I    between atoms: N4_12  and  C5_14
REMARK    3  A    between atoms: C5_14  and  C6_16
ROOT
HETATM    1  C1  UNL     1      27.354  10.435  27.875  1.00  0.00     0.014 C
HETATM    2  C2  UNL     1      28.462  10.523  27.382  1.00  0.00    -0.097 C
HETATM    3  C3  UNL     1      29.791  10.627  26.761  1.00  0.00     0.231 C
ENDROOT
BRANCH   3   4
HETATM    4  N1  UNL     1      29.685  10.783  25.321  1.00  0.00    -0.215 N
HETATM    5  C4  UNL     1      29.112  11.939  24.725  1.00  0.00     0.687 C
HETATM    6  N2  UNL     1      29.378  13.088  25.247  1.00  0.00    -0.234 N
HETATM    7  N3  UNL     1      28.257  11.911  23.594  1.00  0.00    -0.130 N
ATOM      8  H22 UNL     1      29.992  13.107  26.060  1.00  0.00     0.174 HD
ATOM      9  H21 UNL     1      28.966  13.918  24.818  1.00  0.00     0.174 HD
ATOM     10  H3  UNL     1      27.254  11.868  23.772  1.00  0.00     0.205 HD
ATOM     11  H1  UNL     1      30.033  10.038  24.717  1.00  0.00     0.178 HD
BRANCH   7  12
HETATM   12  N4  UNL     1      28.659  11.937  22.268  1.00  0.00    -0.255 N
HETATM   13  C5  UNL     1      28.011  11.296  21.206  1.00  0.00     0.245 C
HETATM   14  O1  UNL     1      26.971  10.636  21.444  1.00  0.00    -0.271 OA
ATOM     15  H4  UNL     1      29.501  12.469  22.047  1.00  0.00     0.190 HD
BRANCH  13  16
HETATM   16  C6  UNL     1      28.457  11.334  19.804  1.00  0.00     0.047 C
HETATM   17  C7  UNL     1      29.957  11.077  19.612  1.00  0.00     0.024 C
HETATM   18  C8  UNL     1      30.206  11.858  18.337  1.00  0.00    -0.013 C
HETATM   19  C9  UNL     1      29.329  11.326  17.235  1.00  0.00     0.010 C
HETATM   20  C13 UNL     1      29.447  13.153  18.678  1.00  0.00     0.011 C
HETATM   21  C10 UNL     1      27.944  11.565  17.806  1.00  0.00    -0.008 C
HETATM   22  C11 UNL     1      27.660  10.472  18.846  1.00  0.00     0.025 C
HETATM   23  C12 UNL     1      28.103  12.509  18.970  1.00  0.00     0.008 C
ENDBRANCH  13  16
ENDBRANCH   7  12
ENDBRANCH   3   4
TORSDOF 3
ENDMDL