MODEL 5
REMARK VINA RESULT: -4.960604220      3.019      5.187
REMARK  7 active torsions:
REMARK  status: ('A' for Active; 'I' for Inactive)
REMARK       I    between atoms: C1_2  and  N1_3
REMARK    1  A    between atoms: C1_2  and  C7_18
REMARK    2  A    between atoms: N1_3  and  N2_5
REMARK    3  A    between atoms: N2_5  and  C2_7
REMARK    4  A    between atoms: C2_7  and  N3_9
REMARK    5  A    between atoms: N3_9  and  C3_11
REMARK    6  A    between atoms: C3_11  and  N4_13
REMARK    7  A    between atoms: N4_13  and  C4_15
ROOT
HETATM    1  C2  UNL     1      27.774  11.935  19.134  1.00  0.00     0.192 C
HETATM    2  S1  UNL     1      26.386  10.974  19.287  1.00  0.00    -0.039 SA
ENDROOT
BRANCH   1   3
HETATM    3  N2  UNL     1      28.328  12.450  20.321  1.00  0.00    -0.273 N
ATOM      4  H2  UNL     1      28.587  13.435  20.377  1.00  0.00     0.189 HD
BRANCH   3   5
HETATM    5  N1  UNL     1      28.526  11.601  21.440  1.00  0.00    -0.268 N
HETATM    6  C1  UNL     1      29.115  12.003  22.651  1.00  0.00     0.240 C
HETATM    7  O1  UNL     1      29.500  13.206  22.762  1.00  0.00    -0.271 OA
ATOM      8  H1  UNL     1      28.219  10.631  21.360  1.00  0.00     0.190 HD
BRANCH   6   9
HETATM    9  C7  UNL     1      29.297  11.074  23.791  1.00  0.00     0.080 A
HETATM   10  C8  UNL     1      28.148  11.174  24.824  1.00  0.00     0.015 A
HETATM   11  C9  UNL     1      29.581  11.510  25.158  1.00  0.00     0.015 A
ENDBRANCH   6   9
ENDBRANCH   3   5
ENDBRANCH   1   3
BRANCH   1  12
HETATM   12  N3  UNL     1      28.214  12.093  17.840  1.00  0.00    -0.309 N
ATOM     13  H3  UNL     1      27.499  12.067  17.113  1.00  0.00     0.170 HD
BRANCH  12  14
HETATM   14  C3  UNL     1      29.529  12.283  17.408  1.00  0.00     0.174 C
HETATM   15  S2  UNL     1      30.848  11.549  17.971  1.00  0.00    -0.041 SA
BRANCH  14  16
HETATM   16  N4  UNL     1      29.760  13.234  16.332  1.00  0.00    -0.362 N
ATOM     17  H4  UNL     1      29.732  12.942  15.355  1.00  0.00     0.162 HD
BRANCH  16  18
HETATM   18  C4  UNL     1      30.029  14.598  16.689  1.00  0.00     0.084 A
HETATM   19  C5  UNL     1      29.396  15.650  15.754  1.00  0.00     0.027 A
HETATM   20  C6  UNL     1      28.988  15.503  17.186  1.00  0.00     0.027 A
ENDBRANCH  16  18
ENDBRANCH  14  16
ENDBRANCH  12  14
ENDBRANCH   1  12
TORSDOF 7
ENDMDL