MODEL 4
REMARK VINA RESULT: -5.840744071      1.514      2.161
REMARK  7 active torsions:
REMARK  status: ('A' for Active; 'I' for Inactive)
REMARK    1  A    between atoms: C2_2  and  N1_3
REMARK    2  A    between atoms: C2_2  and  C3_7
REMARK    3  A    between atoms: C3_7  and  N3_11
REMARK    4  A    between atoms: N3_11  and  N4_13
REMARK    5  A    between atoms: N4_13  and  C4_15
REMARK    6  A    between atoms: C4_15  and  N5_17
REMARK    7  A    between atoms: N5_17  and  C5_19
ROOT
HETATM    1  N3  UNL     1      30.351  13.509  16.803  1.00  0.00    -0.285 N
ATOM      2  H3  UNL     1      30.848  13.483  17.693  1.00  0.00     0.188 HD
ENDROOT
BRANCH   1   3
HETATM    3  C3  UNL     1      30.026  14.767  16.260  1.00  0.00     0.120 C
HETATM    4  N2  UNL     1      30.443  15.047  15.073  1.00  0.00    -0.386 N
ATOM      5  H22 UNL     1      30.208  15.959  14.680  1.00  0.00     0.157 HD
ATOM      6  H21 UNL     1      30.994  14.362  14.557  1.00  0.00     0.157 HD
BRANCH   3   7
HETATM    7  C2  UNL     1      29.228  15.760  17.008  1.00  0.00     0.247 C
HETATM    8  C1  UNL     1      28.389  15.057  18.049  1.00  0.00     0.048 C
BRANCH   7   9
HETATM    9  N1  UNL     1      28.417  16.525  16.083  1.00  0.00    -0.069 N
ATOM     10  H13 UNL     1      27.463  16.630  16.428  1.00  0.00     0.275 HD
ATOM     11  H12 UNL     1      28.694  17.507  16.072  1.00  0.00     0.275 HD
ATOM     12  H11 UNL     1      28.429  16.126  15.144  1.00  0.00     0.275 HD
ENDBRANCH   7   9
ENDBRANCH   3   7
ENDBRANCH   1   3
BRANCH   1  13
HETATM   13  N4  UNL     1      30.031  12.292  16.193  1.00  0.00    -0.275 N
ATOM     14  H4  UNL     1      30.004  12.252  15.174  1.00  0.00     0.189 HD
BRANCH  13  15
HETATM   15  C4  UNL     1      29.741  11.112  16.923  1.00  0.00     0.186 C
HETATM   16  S1  UNL     1      30.622   9.788  16.562  1.00  0.00    -0.040 SA
BRANCH  15  17
HETATM   17  N5  UNL     1      28.732  11.091  17.908  1.00  0.00    -0.361 N
ATOM     18  H5  UNL     1      27.792  11.343  17.604  1.00  0.00     0.162 HD
BRANCH  17  19
HETATM   19  C5  UNL     1      28.890  10.755  19.283  1.00  0.00     0.083 C
HETATM   20  C6  UNL     1      27.838   9.819  19.757  1.00  0.00     0.025 C
HETATM   21  C7  UNL     1      27.160  10.135  21.030  1.00  0.00     0.002 C
HETATM   22  C8  UNL     1      27.904  10.900  22.056  1.00  0.00     0.000 C
HETATM   23  C9  UNL     1      29.260  11.347  21.584  1.00  0.00     0.002 C
HETATM   24  C10 UNL     1      29.046  11.963  20.192  1.00  0.00     0.025 C
ENDBRANCH  17  19
ENDBRANCH  15  17
ENDBRANCH  13  15
ENDBRANCH   1  13
TORSDOF 7
ENDMDL