MODEL 2
REMARK VINA RESULT: -5.539394337      1.894      2.425
REMARK  3 active torsions:
REMARK  status: ('A' for Active; 'I' for Inactive)
REMARK       I    between atoms: C2_2  and  N1_4
REMARK    1  A    between atoms: N1_4  and  C3_6
REMARK    2  A    between atoms: C6_12  and  C7_13
REMARK       I    between atoms: C7_13  and  N3_15
REMARK    3  A    between atoms: N3_15  and  C8_17
ROOT
HETATM    1  C3  UNL     1      29.773  13.471  17.996  1.00  0.00     0.111 C
HETATM    2  C4  UNL     1      30.565  12.374  17.334  1.00  0.00     0.257 C
HETATM    3  N2  UNL     1      31.070  11.403  18.265  1.00  0.00    -0.072 N
ATOM      4  H21 UNL     1      31.837  11.789  18.816  1.00  0.00     0.277 HD
ATOM      5  H22 UNL     1      31.573  10.660  17.781  1.00  0.00     0.277 HD
HETATM    6  C5  UNL     1      30.034  10.858  19.121  1.00  0.00     0.246 C
HETATM    7  C6  UNL     1      29.414  11.984  19.875  1.00  0.00     0.105 C
HETATM    8  C12 UNL     1      28.683  12.868  18.884  1.00  0.00     0.042 C
ENDROOT
BRANCH   7   9
HETATM    9  C7  UNL     1      28.587  11.571  21.006  1.00  0.00     0.224 C
HETATM   10  O2  UNL     1      27.364  11.842  20.997  1.00  0.00    -0.273 OA
HETATM   11  N3  UNL     1      29.204  10.869  22.087  1.00  0.00    -0.353 N
ATOM     12  H3  UNL     1      30.204  10.673  22.043  1.00  0.00     0.163 HD
BRANCH  11  13
HETATM   13  C8  UNL     1      28.454  10.427  23.241  1.00  0.00     0.022 C
HETATM   14  C9  UNL     1      27.972  11.582  24.085  1.00  0.00     0.037 C
HETATM   15  C10 UNL     1      27.307   9.572  22.746  1.00  0.00     0.037 C
HETATM   16  C11 UNL     1      29.310   9.551  24.125  1.00  0.00     0.037 C
ENDBRANCH  11  13
ENDBRANCH   7   9
BRANCH   1  17
HETATM   17  N1  UNL     1      29.141  14.287  16.994  1.00  0.00    -0.355 N
HETATM   18  C2  UNL     1      29.006  15.685  17.145  1.00  0.00     0.213 C
HETATM   19  C1  UNL     1      28.360  16.552  16.131  1.00  0.00     0.117 C
HETATM   20  O1  UNL     1      29.446  16.238  18.183  1.00  0.00    -0.274 OA
ATOM     21  H1  UNL     1      28.781  13.843  16.149  1.00  0.00     0.162 HD
ENDBRANCH   1  17
TORSDOF 3
ENDMDL