MODEL 3
REMARK VINA RESULT: -5.564884979      4.953      6.836
REMARK  5 active torsions:
REMARK  status: ('A' for Active; 'I' for Inactive)
REMARK    1  A    between atoms: C2_2  and  N1_3
REMARK    2  A    between atoms: N1_3  and  C3_5
REMARK    3  A    between atoms: C3_5  and  N2_7
REMARK    4  A    between atoms: N2_7  and  N3_9
REMARK       I    between atoms: N3_9  and  C4_11
REMARK    5  A    between atoms: C4_11  and  C5_13
ROOT
HETATM    1  N3  UNL     1      26.204  11.481  19.180  1.00  0.00    -0.268 N
ATOM      2  H3  UNL     1      25.969  11.665  18.204  1.00  0.00     0.190 HD
HETATM    3  C4  UNL     1      25.717  10.324  19.804  1.00  0.00     0.242 C
HETATM    4  O1  UNL     1      26.005  10.096  21.000  1.00  0.00    -0.271 OA
ENDROOT
BRANCH   3   5
HETATM    5  C5  UNL     1      24.876   9.370  19.083  1.00  0.00     0.110 C
HETATM    6  C6  UNL     1      24.262   8.318  19.997  1.00  0.00     0.018 C
HETATM    7  C7  UNL     1      23.246   7.587  19.107  1.00  0.00     0.034 C
HETATM    8  C8  UNL     1      23.915   7.161  17.808  1.00  0.00     0.186 C
HETATM    9  C9  UNL     1      23.733   8.169  16.697  1.00  0.00     0.035 C
HETATM   10  N4  UNL     1      25.327   7.181  18.035  1.00  0.00    -0.066 N
HETATM   11  C10 UNL     1      25.028   8.997  16.695  1.00  0.00     0.036 C
HETATM   12  C11 UNL     1      25.645   8.595  18.038  1.00  0.00     0.199 C
ATOM     13  H42 UNL     1      25.629   6.677  18.869  1.00  0.00     0.278 HD
ATOM     14  H41 UNL     1      25.871   6.625  17.374  1.00  0.00     0.278 HD
ENDBRANCH   3   5
BRANCH   1  15
HETATM   15  N2  UNL     1      26.998  12.375  19.873  1.00  0.00    -0.274 N
ATOM     16  H2  UNL     1      26.850  12.477  20.877  1.00  0.00     0.189 HD
BRANCH  15  17
HETATM   17  C3  UNL     1      28.007  13.157  19.258  1.00  0.00     0.186 C
HETATM   18  S1  UNL     1      29.465  12.472  18.900  1.00  0.00    -0.040 SA
BRANCH  17  19
HETATM   19  N1  UNL     1      27.792  14.519  18.935  1.00  0.00    -0.366 N
ATOM     20  H1  UNL     1      26.837  14.880  18.940  1.00  0.00     0.161 HD
BRANCH  19  21
HETATM   21  C2  UNL     1      28.863  15.407  18.603  1.00  0.00     0.117 C
HETATM   22  C1  UNL     1      28.839  15.744  17.123  1.00  0.00     0.026 C
ENDBRANCH  19  21
ENDBRANCH  17  19
ENDBRANCH  15  17
ENDBRANCH   1  15
TORSDOF 5
ENDMDL