MODEL 5
REMARK VINA RESULT: -5.619899379      1.877      2.799
REMARK  3 active torsions:
REMARK  status: ('A' for Active; 'I' for Inactive)
REMARK    1  A    between atoms: C7_10  and  N2_11
REMARK       I    between atoms: N2_11  and  C8_13
REMARK       I    between atoms: C8_13  and  N3_15
REMARK    2  A    between atoms: N3_15  and  N4_17
REMARK       I    between atoms: N4_17  and  C9_19
REMARK    3  A    between atoms: C9_19  and  C10_21
ROOT
HETATM    1  N2  UNL     1      38.487  -0.086  31.419  1.00  0.00    -0.336 N
ATOM      2  H2  UNL     1      37.805  -0.029  30.663  1.00  0.00     0.164 HD
HETATM    3  C8  UNL     1      39.868  -0.305  31.134  1.00  0.00     0.335 C
HETATM    4  O1  UNL     1      40.717  -0.375  32.069  1.00  0.00    -0.246 OA
HETATM    5  N3  UNL     1      40.349  -0.453  29.803  1.00  0.00    -0.249 N
ATOM      6  H3  UNL     1      39.667  -0.402  29.046  1.00  0.00     0.192 HD
ENDROOT
BRANCH   1   7
HETATM    7  C7  UNL     1      38.079   0.051  32.770  1.00  0.00     0.097 C
HETATM    8  C2  UNL     1      36.711  -0.496  33.102  1.00  0.00     0.035 C
HETATM    9  C1  UNL     1      35.745  -0.343  31.976  1.00  0.00     0.014 C
HETATM   10  C3  UNL     1      36.286   0.519  34.179  1.00  0.00     0.192 C
HETATM   11  C4  UNL     1      36.644   1.797  33.400  1.00  0.00     0.041 C
HETATM   12  N1  UNL     1      37.237   0.548  35.238  1.00  0.00    -0.070 N
HETATM   13  C5  UNL     1      38.135   1.459  33.309  1.00  0.00     0.036 C
HETATM   14  C6  UNL     1      38.394   1.346  34.799  1.00  0.00     0.239 C
ATOM     15  H12 UNL     1      36.839   0.883  36.114  1.00  0.00     0.277 HD
ATOM     16  H11 UNL     1      37.502  -0.386  35.554  1.00  0.00     0.277 HD
ENDBRANCH   1   7
BRANCH   5  17
HETATM   17  N4  UNL     1      41.671  -0.659  29.457  1.00  0.00    -0.266 N
HETATM   18  C9  UNL     1      42.022  -1.858  28.788  1.00  0.00     0.240 C
HETATM   19  O2  UNL     1      41.162  -2.745  28.501  1.00  0.00    -0.271 OA
ATOM     20  H4  UNL     1      42.381   0.039  29.679  1.00  0.00     0.190 HD
BRANCH  18  21
HETATM   21  C10 UNL     1      43.425  -2.131  28.392  1.00  0.00     0.080 A
HETATM   22  C11 UNL     1      43.727  -2.962  27.201  1.00  0.00     0.015 A
HETATM   23  C12 UNL     1      43.973  -1.469  27.167  1.00  0.00     0.015 A
ENDBRANCH  18  21
ENDBRANCH   5  17
TORSDOF 3
ENDMDL