MODEL 4
REMARK VINA RESULT: -5.947641021      2.183      6.274
REMARK  2 active torsions:
REMARK  status: ('A' for Active; 'I' for Inactive)
REMARK    1  A    between atoms: C7_14  and  N4_15
REMARK       I    between atoms: N4_15  and  C8_17
REMARK    2  A    between atoms: C8_17  and  C9_19
ROOT
HETATM    1  N1  UNL     1      43.847  -0.870  26.707  1.00  0.00    -0.235 N
ATOM      2  H11 UNL     1      44.012  -1.435  25.873  1.00  0.00     0.174 HD
ATOM      3  H12 UNL     1      44.082   0.107  26.881  1.00  0.00     0.174 HD
HETATM    4  C1  UNL     1      43.254  -1.506  27.670  1.00  0.00     0.668 C
HETATM    5  N2  UNL     1      43.024  -0.714  28.840  1.00  0.00    -0.220 N
ATOM      6  H2  UNL     1      43.347   0.253  28.856  1.00  0.00     0.178 HD
HETATM    7  C2  UNL     1      42.330  -1.259  30.025  1.00  0.00     0.123 C
HETATM    8  C3  UNL     1      43.098  -2.528  30.345  1.00  0.00     0.035 C
HETATM    9  C4  UNL     1      42.435  -3.677  29.723  1.00  0.00     0.019 A
HETATM   10  C5  UNL     1      42.193  -3.739  28.308  1.00  0.00     0.110 A
HETATM   11  N3  UNL     1      42.922  -2.887  27.425  1.00  0.00    -0.221 N
ATOM     12  H3  UNL     1      43.236  -3.291  26.542  1.00  0.00     0.178 HD
HETATM   13  C6  UNL     1      41.154  -3.209  29.127  1.00  0.00     0.040 A
HETATM   14  C7  UNL     1      41.038  -1.813  29.489  1.00  0.00     0.114 C
ENDROOT
BRANCH  14  15
HETATM   15  N4  UNL     1      40.058  -1.684  30.588  1.00  0.00    -0.354 N
HETATM   16  C8  UNL     1      39.452  -0.450  30.888  1.00  0.00     0.222 C
HETATM   17  O1  UNL     1      39.712   0.587  30.242  1.00  0.00    -0.273 OA
ATOM     18  H4  UNL     1      39.816  -2.507  31.141  1.00  0.00     0.163 HD
BRANCH  16  19
HETATM   19  C9  UNL     1      38.481  -0.375  31.993  1.00  0.00     0.078 C
HETATM   20  C10 UNL     1      38.598   0.936  32.753  1.00  0.00     0.014 C
HETATM   21  C11 UNL     1      37.202   1.509  32.839  1.00  0.00     0.001 C
HETATM   22  C12 UNL     1      36.336   0.265  32.668  1.00  0.00     0.001 C
HETATM   23  C13 UNL     1      37.048  -0.418  31.513  1.00  0.00     0.014 C
ENDBRANCH  16  19
ENDBRANCH  14  15
TORSDOF 2
ENDMDL