MODEL 5
REMARK VINA RESULT: -5.424185811      1.167      1.492
REMARK  1 active torsions:
REMARK  status: ('A' for Active; 'I' for Inactive)
REMARK    1  A    between atoms: C2_2  and  C4_4
ROOT
HETATM    1  C4  UNL     1      39.039  -3.192  30.427  1.00  0.00     0.035 C
HETATM    2  C5  UNL     1      38.545  -2.489  31.626  1.00  0.00     0.061 C
HETATM    3  N1  UNL     1      39.583  -2.098  32.476  1.00  0.00    -0.396 N
ATOM      4  H1  UNL     1      40.010  -2.791  33.091  1.00  0.00     0.159 HD
HETATM    5  C6  UNL     1      40.050  -0.780  32.506  1.00  0.00     0.098 C
HETATM    6  C7  UNL     1      41.580  -0.665  32.440  1.00  0.00     0.027 C
HETATM    7  C8  UNL     1      42.256  -1.965  32.302  1.00  0.00     0.016 C
HETATM    8  C9  UNL     1      42.557  -2.479  30.950  1.00  0.00     0.078 C
HETATM    9  C10 UNL     1      41.465  -3.388  30.498  1.00  0.00     0.023 C
HETATM   10  C11 UNL     1      40.303  -2.701  29.812  1.00  0.00     0.038 C
HETATM   11  C12 UNL     1      40.463  -1.299  29.469  1.00  0.00     0.184 C
HETATM   12  N2  UNL     1      40.345  -0.224  30.263  1.00  0.00    -0.399 N
ATOM     13  H2  UNL     1      40.982   0.530  30.008  1.00  0.00     0.155 HD
HETATM   14  C13 UNL     1      39.569   0.079  31.325  1.00  0.00     0.141 C
HETATM   15  N3  UNL     1      41.833  -1.252  28.942  1.00  0.00    -0.340 N
ATOM     16  H3  UNL     1      42.034  -1.018  27.971  1.00  0.00     0.164 HD
HETATM   17  C14 UNL     1      42.855  -1.555  29.873  1.00  0.00     0.223 C
HETATM   18  O1  UNL     1      43.991  -1.021  29.747  1.00  0.00    -0.273 OA
ENDROOT
BRANCH   1  19
HETATM   19  C2  UNL     1      37.936  -3.430  29.400  1.00  0.00    -0.013 C
HETATM   20  C1  UNL     1      37.353  -4.823  29.558  1.00  0.00     0.010 C
HETATM   21  C3  UNL     1      36.864  -2.407  29.398  1.00  0.00     0.010 C
ENDBRANCH   1  19
TORSDOF 1
ENDMDL