MODEL 4
REMARK VINA RESULT: -4.846192784      0.919      1.213
REMARK  5 active torsions:
REMARK  status: ('A' for Active; 'I' for Inactive)
REMARK    1  A    between atoms: C2_2  and  N1_5
REMARK    2  A    between atoms: N1_5  and  S1_7
REMARK    3  A    between atoms: S1_7  and  N2_9
REMARK    4  A    between atoms: S1_7  and  N5_16
REMARK       I    between atoms: N2_9  and  C5_11
REMARK    5  A    between atoms: N5_16  and  C6_18
ROOT
HETATM    1  S1  UNL     1      41.758  -2.139  29.241  1.00  0.00     0.198 S
HETATM    2  O1  UNL     1      41.787  -3.059  28.071  1.00  0.00    -0.206 OA
ENDROOT
BRANCH   1   3
HETATM    3  N1  UNL     1      42.579  -2.827  30.387  1.00  0.00    -0.311 N
ATOM      4  H1  UNL     1      43.349  -2.307  30.805  1.00  0.00     0.173 HD
BRANCH   3   5
HETATM    5  C2  UNL     1      42.312  -4.131  30.874  1.00  0.00     0.029 C
HETATM    6  C1  UNL     1      43.379  -5.123  30.468  1.00  0.00     0.038 C
HETATM    7  C3  UNL     1      40.931  -4.632  30.503  1.00  0.00     0.038 C
HETATM    8  C4  UNL     1      42.338  -4.054  32.399  1.00  0.00     0.038 C
ENDBRANCH   3   5
ENDBRANCH   1   3
BRANCH   1   9
HETATM    9  N2  UNL     1      42.566  -0.672  28.818  1.00  0.00    -0.259 N
HETATM   10  C5  UNL     1      43.729  -0.643  28.005  1.00  0.00     0.195 C
HETATM   11  N3  UNL     1      44.839  -0.298  28.540  1.00  0.00    -0.373 N
HETATM   12  N4  UNL     1      43.734  -0.978  26.622  1.00  0.00    -0.063 NA
ATOM     13  H32 UNL     1      44.834  -0.058  29.531  1.00  0.00     0.158 HD
ATOM     14  H31 UNL     1      45.675  -0.277  27.956  1.00  0.00     0.158 HD
ATOM     15  H2  UNL     1      42.191   0.210  29.166  1.00  0.00     0.181 HD
ENDBRANCH   1   9
BRANCH   1  16
HETATM   16  N5  UNL     1      40.186  -1.906  29.801  1.00  0.00    -0.311 N
ATOM     17  H5  UNL     1      39.389  -2.368  29.362  1.00  0.00     0.173 HD
BRANCH  16  18
HETATM   18  C6  UNL     1      40.020  -1.039  30.908  1.00  0.00     0.029 C
HETATM   19  C7  UNL     1      39.426   0.268  30.360  1.00  0.00     0.038 C
HETATM   20  C8  UNL     1      41.252  -0.684  31.655  1.00  0.00     0.038 C
HETATM   21  C9  UNL     1      38.956  -1.570  31.880  1.00  0.00     0.038 C
ENDBRANCH  16  18
ENDBRANCH   1  16
TORSDOF 5
ENDMDL