MODEL 1
REMARK VINA RESULT: -6.313126111      0.000      0.000
REMARK  4 active torsions:
REMARK  status: ('A' for Active; 'I' for Inactive)
REMARK       I    between atoms: C2_2  and  N1_4
REMARK       I    between atoms: N1_4  and  C3_6
REMARK       I    between atoms: C3_6  and  N3_13
REMARK    1  A    between atoms: N2_7  and  C4_9
REMARK    2  A    between atoms: N3_13  and  N4_15
REMARK       I    between atoms: N4_15  and  C8_17
REMARK       I    between atoms: C8_17  and  N5_19
REMARK    3  A    between atoms: N5_19  and  C9_21
REMARK    4  A    between atoms: C9_21  and  C10_22
ROOT
HETATM    1  C1  UNL     1      44.107  -2.623  25.075  1.00  0.00     0.118 C
HETATM    2  C2  UNL     1      43.541  -2.578  26.456  1.00  0.00     0.232 C
HETATM    3  O1  UNL     1      43.396  -1.461  26.981  1.00  0.00    -0.273 OA
HETATM    4  N1  UNL     1      43.204  -3.779  27.093  1.00  0.00    -0.159 N
ATOM      5  H1  UNL     1      43.352  -4.661  26.602  1.00  0.00     0.187 HD
HETATM    6  C3  UNL     1      42.659  -3.798  28.408  1.00  0.00     0.696 C
HETATM    7  N2  UNL     1      42.364  -4.903  28.974  1.00  0.00    -0.217 N
ATOM      8  H2  UNL     1      42.542  -5.743  28.424  1.00  0.00     0.178 HD
HETATM    9  N3  UNL     1      42.453  -2.552  29.060  1.00  0.00    -0.128 N
ATOM     10  H3  UNL     1      43.217  -2.146  29.600  1.00  0.00     0.205 HD
ENDROOT
BRANCH   7  11
HETATM   11  C4  UNL     1      41.819  -5.119  30.268  1.00  0.00     0.036 C
HETATM   12  C5  UNL     1      40.330  -4.855  30.283  1.00  0.00     0.038 C
HETATM   13  C6  UNL     1      42.471  -4.250  31.328  1.00  0.00     0.038 C
HETATM   14  C7  UNL     1      42.029  -6.574  30.716  1.00  0.00     0.038 C
ENDBRANCH   7  11
BRANCH   9  15
HETATM   15  N4  UNL     1      41.225  -1.855  28.987  1.00  0.00    -0.237 N
HETATM   16  C8  UNL     1      40.859  -0.924  29.980  1.00  0.00     0.335 C
HETATM   17  O2  UNL     1      41.662  -0.723  30.944  1.00  0.00    -0.246 OA
HETATM   18  N5  UNL     1      39.632  -0.209  29.936  1.00  0.00    -0.341 N
ATOM     19  H5  UNL     1      39.006  -0.391  29.151  1.00  0.00     0.164 HD
ATOM     20  H4  UNL     1      40.594  -2.029  28.205  1.00  0.00     0.192 HD
BRANCH  18  21
HETATM   21  C9  UNL     1      39.213   0.741  30.908  1.00  0.00     0.129 C
BRANCH  21  22
HETATM   22  C10 UNL     1      38.415   0.146  32.039  1.00  0.00     0.003 A
HETATM   23  C11 UNL     1      37.909   1.203  33.029  1.00  0.00     0.007 A
HETATM   24  C12 UNL     1      36.979   0.389  32.212  1.00  0.00     0.007 A
ENDBRANCH  21  22
ENDBRANCH  18  21
ENDBRANCH   9  15
TORSDOF 4
ENDMDL