MODEL 2
REMARK VINA RESULT: -5.495114621      1.959      6.208
REMARK  3 active torsions:
REMARK  status: ('A' for Active; 'I' for Inactive)
REMARK    1  A    between atoms: C5_6  and  C6_7
REMARK    2  A    between atoms: C6_7  and  N2_8
REMARK       I    between atoms: N2_8  and  C7_10
REMARK       I    between atoms: C7_10  and  N6_18
REMARK       I    between atoms: N3_11  and  C8_13
REMARK    3  A    between atoms: N6_18  and  C9_20
ROOT
HETATM    1  N2  UNL     1      41.152  -2.577  28.523  1.00  0.00    -0.224 N
ATOM      2  H2  UNL     1      41.026  -1.711  27.998  1.00  0.00     0.177 HD
HETATM    3  C7  UNL     1      40.213  -2.864  29.551  1.00  0.00     0.677 C
HETATM    4  N3  UNL     1      40.485  -2.911  30.795  1.00  0.00    -0.164 N
ATOM      5  H3  UNL     1      39.717  -3.129  31.430  1.00  0.00     0.187 HD
HETATM    6  C8  UNL     1      41.747  -2.687  31.370  1.00  0.00     0.200 C
HETATM    7  N4  UNL     1      42.294  -3.622  32.067  1.00  0.00    -0.373 N
ATOM      8  H41 UNL     1      43.211  -3.460  32.483  1.00  0.00     0.158 HD
ATOM      9  H42 UNL     1      41.781  -4.498  32.173  1.00  0.00     0.158 HD
HETATM   10  N5  UNL     1      42.464  -1.465  31.221  1.00  0.00    -0.063 NA
HETATM   11  N6  UNL     1      38.856  -3.112  29.138  1.00  0.00    -0.218 N
ATOM     12  H6  UNL     1      38.690  -3.598  28.257  1.00  0.00     0.178 HD
ENDROOT
BRANCH   1  13
HETATM   13  C6  UNL     1      42.262  -3.413  28.169  1.00  0.00     0.173 C
BRANCH  13  14
HETATM   14  C5  UNL     1      43.576  -2.677  28.034  1.00  0.00     0.240 C
HETATM   15  N1  UNL     1      43.397  -1.293  27.744  1.00  0.00     0.090 N
HETATM   16  C1  UNL     1      44.447  -0.452  28.280  1.00  0.00     0.310 C
HETATM   17  C2  UNL     1      43.421  -1.134  26.301  1.00  0.00     0.272 C
HETATM   18  C3  UNL     1      44.374  -2.191  25.785  1.00  0.00     0.032 C
HETATM   19  C4  UNL     1      44.318  -3.266  26.837  1.00  0.00     0.039 C
ENDBRANCH  13  14
ENDBRANCH   1  13
BRANCH  11  20
HETATM   20  C9  UNL     1      37.731  -2.697  29.923  1.00  0.00     0.036 C
HETATM   21  C10 UNL     1      36.525  -2.538  29.025  1.00  0.00     0.038 C
HETATM   22  C11 UNL     1      37.399  -3.690  31.034  1.00  0.00     0.038 C
HETATM   23  C12 UNL     1      37.960  -1.359  30.596  1.00  0.00     0.038 C
ENDBRANCH  11  20
TORSDOF 3
ENDMDL