MODEL 3
REMARK VINA RESULT: -5.684210589      1.801      4.394
REMARK  5 active torsions:
REMARK  status: ('A' for Active; 'I' for Inactive)
REMARK       I    between atoms: N1_2  and  C2_4
REMARK    1  A    between atoms: C2_4  and  C3_6
REMARK    2  A    between atoms: C3_6  and  N2_7
REMARK    3  A    between atoms: N2_7  and  C4_9
REMARK    4  A    between atoms: C6_14  and  C12_24
REMARK    5  A    between atoms: C10_18  and  N4_19
ROOT
HETATM    1  C3  UNL     1      42.227  -3.526  29.927  1.00  0.00     0.121 C
HETATM    2  C6  UNL     1      42.234  -2.894  31.350  1.00  0.00     0.029 C
HETATM    3  C7  UNL     1      40.903  -3.346  31.887  1.00  0.00     0.013 C
HETATM    4  C8  UNL     1      40.008  -3.191  30.700  1.00  0.00    -0.004 C
HETATM    5  C9  UNL     1      39.233  -1.877  30.811  1.00  0.00     0.044 C
HETATM    6  C10 UNL     1      40.226  -0.810  30.524  1.00  0.00     0.129 C
HETATM    7  C11 UNL     1      41.223  -0.544  31.635  1.00  0.00     0.044 C
HETATM    8  C12 UNL     1      42.195  -1.448  30.935  1.00  0.00     0.002 C
HETATM    9  C13 UNL     1      41.286  -1.461  29.726  1.00  0.00     0.033 C
HETATM   10  C14 UNL     1      40.922  -2.936  29.536  1.00  0.00     0.035 C
ENDROOT
BRANCH   1  11
HETATM   11  C2  UNL     1      42.373  -4.977  29.984  1.00  0.00     0.246 C
HETATM   12  N1  UNL     1      43.147  -5.796  30.783  1.00  0.00    -0.363 N
HETATM   13  C1  UNL     1      43.103  -7.258  30.617  1.00  0.00     0.149 C
ATOM     14  H1  UNL     1      43.753  -5.384  31.492  1.00  0.00     0.162 HD
HETATM   15  O1  UNL     1      41.631  -5.605  29.122  1.00  0.00    -0.271 OA
ENDBRANCH   1  11
BRANCH   1  16
HETATM   16  N2  UNL     1      43.378  -2.963  29.207  1.00  0.00    -0.362 N
ATOM     17  H2  UNL     1      44.190  -2.680  29.754  1.00  0.00     0.162 HD
BRANCH  16  18
HETATM   18  C4  UNL     1      43.432  -2.790  27.815  1.00  0.00     0.067 C
HETATM   19  C5  UNL     1      43.849  -1.556  27.103  1.00  0.00     0.088 C
HETATM   20  N3  UNL     1      43.097  -3.742  27.015  1.00  0.00    -0.389 N
ATOM     21  H32 UNL     1      42.811  -4.591  27.505  1.00  0.00     0.157 HD
ATOM     22  H31 UNL     1      43.136  -3.617  26.004  1.00  0.00     0.157 HD
ENDBRANCH  16  18
ENDBRANCH   1  16
BRANCH   6  23
HETATM   23  N4  UNL     1      39.723   0.384  29.866  1.00  0.00    -0.070 N
ATOM     24  H43 UNL     1      40.082   1.214  30.340  1.00  0.00     0.275 HD
ATOM     25  H42 UNL     1      40.166   0.486  28.953  1.00  0.00     0.275 HD
ATOM     26  H41 UNL     1      38.710   0.456  29.768  1.00  0.00     0.275 HD
ENDBRANCH   6  23
TORSDOF 5
ENDMDL