MODEL 1
REMARK VINA RESULT: -5.658749486      0.000      0.000
REMARK  4 active torsions:
REMARK  status: ('A' for Active; 'I' for Inactive)
REMARK       I    between atoms: C1_4  and  N3_6
REMARK    1  A    between atoms: C4_9  and  N4_10
REMARK    2  A    between atoms: N4_10  and  C5_12
REMARK    3  A    between atoms: C5_12  and  N5_14
REMARK    4  A    between atoms: N5_14  and  C6_16
ROOT
HETATM    1  N4  UNL     1      40.551  -4.158  29.524  1.00  0.00    -0.361 N
ATOM      2  H4  UNL     1      40.026  -4.929  29.935  1.00  0.00     0.162 HD
ENDROOT
BRANCH   1   3
HETATM    3  C4  UNL     1      39.909  -2.879  29.298  1.00  0.00     0.103 C
HETATM    4  C3  UNL     1      38.435  -3.035  29.354  1.00  0.00     0.046 C
HETATM    5  C2  UNL     1      37.940  -1.956  30.272  1.00  0.00     0.127 C
HETATM    6  N3  UNL     1      39.072  -1.186  30.717  1.00  0.00    -0.354 N
HETATM    7  C1  UNL     1      39.018   0.054  31.388  1.00  0.00     0.184 C
HETATM    8  C11 UNL     1      40.281  -1.892  30.365  1.00  0.00     0.150 C
HETATM    9  N1  UNL     1      38.943   1.134  30.709  1.00  0.00    -0.374 N
HETATM   10  N2  UNL     1      39.047   0.075  32.804  1.00  0.00    -0.064 NA
ATOM     11  H12 UNL     1      38.904   2.030  31.194  1.00  0.00     0.158 HD
ATOM     12  H11 UNL     1      38.922   1.119  29.690  1.00  0.00     0.158 HD
ENDBRANCH   1   3
BRANCH   1  13
HETATM   13  C5  UNL     1      41.912  -4.331  29.172  1.00  0.00     0.168 C
HETATM   14  S1  UNL     1      43.014  -4.823  30.267  1.00  0.00    -0.041 SA
BRANCH  13  15
HETATM   15  N5  UNL     1      42.362  -4.080  27.853  1.00  0.00    -0.363 N
ATOM     16  H5  UNL     1      41.868  -4.527  27.081  1.00  0.00     0.162 HD
BRANCH  15  17
HETATM   17  C6  UNL     1      43.472  -3.235  27.547  1.00  0.00     0.083 C
HETATM   18  C7  UNL     1      43.222  -1.803  28.015  1.00  0.00     0.025 C
HETATM   19  C8  UNL     1      43.759  -0.880  26.977  1.00  0.00     0.002 C
HETATM   20  C9  UNL     1      44.568  -1.781  26.070  1.00  0.00     0.002 C
HETATM   21  C10 UNL     1      43.662  -3.021  26.044  1.00  0.00     0.025 C
ENDBRANCH  15  17
ENDBRANCH  13  15
ENDBRANCH   1  13
TORSDOF 4
ENDMDL