MODEL 4
REMARK VINA RESULT: -5.252585476      4.784      6.816
REMARK  5 active torsions:
REMARK  status: ('A' for Active; 'I' for Inactive)
REMARK    1  A    between atoms: C2_2  and  N1_4
REMARK    2  A    between atoms: N1_4  and  C4_6
REMARK    3  A    between atoms: C4_6  and  N2_8
REMARK    4  A    between atoms: N2_8  and  N3_10
REMARK       I    between atoms: N3_10  and  C5_12
REMARK       I    between atoms: C5_12  and  N4_14
REMARK    5  A    between atoms: N4_14  and  C6_16
ROOT
HETATM    1  N3  UNL     1      41.708  -5.560  29.551  1.00  0.00    -0.249 N
ATOM      2  H3  UNL     1      40.960  -5.840  28.917  1.00  0.00     0.192 HD
HETATM    3  C5  UNL     1      42.685  -4.592  29.170  1.00  0.00     0.335 C
HETATM    4  O1  UNL     1      43.580  -4.297  30.008  1.00  0.00    -0.246 OA
HETATM    5  N4  UNL     1      42.637  -3.991  27.879  1.00  0.00    -0.337 N
ATOM      6  H4  UNL     1      41.908  -4.236  27.209  1.00  0.00     0.164 HD
ENDROOT
BRANCH   1   7
HETATM    7  N2  UNL     1      41.820  -6.110  30.840  1.00  0.00    -0.272 N
ATOM      8  H2  UNL     1      41.375  -5.631  31.622  1.00  0.00     0.189 HD
BRANCH   7   9
HETATM    9  C4  UNL     1      42.529  -7.305  31.085  1.00  0.00     0.186 C
HETATM   10  S1  UNL     1      41.756  -8.546  31.782  1.00  0.00    -0.040 SA
BRANCH   9  11
HETATM   11  N1  UNL     1      43.887  -7.412  30.737  1.00  0.00    -0.362 N
ATOM     12  H1  UNL     1      44.177  -7.128  29.801  1.00  0.00     0.162 HD
BRANCH  11  13
HETATM   13  C2  UNL     1      44.892  -7.909  31.655  1.00  0.00     0.076 C
HETATM   14  C1  UNL     1      45.666  -6.763  32.246  1.00  0.00     0.032 C
HETATM   15  C3  UNL     1      45.869  -8.831  30.988  1.00  0.00     0.032 C
ENDBRANCH  11  13
ENDBRANCH   9  11
ENDBRANCH   7   9
ENDBRANCH   1   7
BRANCH   5  16
HETATM   16  C6  UNL     1      43.656  -3.023  27.556  1.00  0.00     0.086 C
HETATM   17  C7  UNL     1      43.139  -1.642  27.907  1.00  0.00     0.025 C
HETATM   18  C8  UNL     1      44.065  -0.768  27.085  1.00  0.00     0.002 C
HETATM   19  C9  UNL     1      43.985  -1.473  25.723  1.00  0.00     0.002 C
HETATM   20  C10 UNL     1      43.963  -2.961  26.078  1.00  0.00     0.025 C
ENDBRANCH   5  16
TORSDOF 5
ENDMDL