MODEL 1
REMARK VINA RESULT: -4.825618707      0.000      0.000
REMARK  8 active torsions:
REMARK  status: ('A' for Active; 'I' for Inactive)
REMARK    1  A    between atoms: C2_2  and  N1_4
REMARK    2  A    between atoms: N1_4  and  C4_6
REMARK    3  A    between atoms: C4_6  and  N2_8
REMARK    4  A    between atoms: N2_8  and  N3_10
REMARK    5  A    between atoms: N3_10  and  C5_12
REMARK    6  A    between atoms: C5_12  and  N4_14
REMARK    7  A    between atoms: N4_14  and  C6_16
REMARK    8  A    between atoms: C6_16  and  C7_17
ROOT
HETATM    1  N3  UNL     1      41.932  -5.225  29.050  1.00  0.00    -0.274 N
ATOM      2  H3  UNL     1      42.752  -5.826  29.137  1.00  0.00     0.189 HD
ENDROOT
BRANCH   1   3
HETATM    3  N2  UNL     1      41.943  -4.246  28.054  1.00  0.00    -0.274 N
ATOM      4  H2  UNL     1      41.324  -4.361  27.251  1.00  0.00     0.189 HD
BRANCH   3   5
HETATM    5  C4  UNL     1      42.779  -3.096  28.108  1.00  0.00     0.191 C
HETATM    6  S1  UNL     1      42.375  -1.817  29.048  1.00  0.00    -0.039 SA
BRANCH   5   7
HETATM    7  N1  UNL     1      43.971  -3.015  27.358  1.00  0.00    -0.337 N
ATOM      8  H1  UNL     1      44.863  -3.299  27.764  1.00  0.00     0.168 HD
BRANCH   7   9
HETATM    9  C2  UNL     1      43.903  -2.532  26.028  1.00  0.00    -0.002 C
HETATM   10  C1  UNL     1      43.743  -3.393  25.042  1.00  0.00     0.037 C
HETATM   11  C3  UNL     1      44.010  -1.078  25.739  1.00  0.00     0.067 C
ENDBRANCH   7   9
ENDBRANCH   5   7
ENDBRANCH   3   5
ENDBRANCH   1   3
BRANCH   1  12
HETATM   12  C5  UNL     1      40.864  -5.435  29.939  1.00  0.00     0.186 C
HETATM   13  S2  UNL     1      41.081  -6.426  31.198  1.00  0.00    -0.040 SA
BRANCH  12  14
HETATM   14  N4  UNL     1      39.632  -4.810  29.746  1.00  0.00    -0.366 N
ATOM     15  H4  UNL     1      38.974  -5.289  29.131  1.00  0.00     0.161 HD
BRANCH  14  16
HETATM   16  C6  UNL     1      39.182  -3.563  30.317  1.00  0.00     0.126 C
BRANCH  16  17
HETATM   17  C7  UNL     1      38.453  -2.706  29.337  1.00  0.00     0.003 A
HETATM   18  C8  UNL     1      37.281  -3.142  28.580  1.00  0.00     0.007 A
HETATM   19  C9  UNL     1      37.041  -2.252  29.720  1.00  0.00     0.007 A
ENDBRANCH  16  17
ENDBRANCH  14  16
ENDBRANCH  12  14
ENDBRANCH   1  12
TORSDOF 8
ENDMDL