MODEL 5
REMARK VINA RESULT: -5.880180282      1.830      2.144
REMARK  3 active torsions:
REMARK  status: ('A' for Active; 'I' for Inactive)
REMARK    1  A    between atoms: C2_2  and  C3_3
REMARK    2  A    between atoms: C3_3  and  N1_4
REMARK       I    between atoms: N1_4  and  C4_6
REMARK       I    between atoms: C4_6  and  N3_10
REMARK    3  A    between atoms: C10_16  and  N4_17
ROOT
HETATM    1  N1  UNL     1       8.510   0.836  25.798  1.00  0.00    -0.223 N
ATOM      2  H1  UNL     1       8.271   1.400  26.613  1.00  0.00     0.178 HD
HETATM    3  C4  UNL     1       8.848   1.519  24.630  1.00  0.00     0.669 C
HETATM    4  N2  UNL     1       8.818   0.967  23.468  1.00  0.00    -0.235 N
ATOM      5  H21 UNL     1       9.065   1.467  22.614  1.00  0.00     0.174 HD
ATOM      6  H22 UNL     1       8.538  -0.013  23.450  1.00  0.00     0.174 HD
HETATM    7  N3  UNL     1       9.241   2.901  24.655  1.00  0.00    -0.218 N
HETATM    8  C5  UNL     1       8.478   3.751  25.583  1.00  0.00     0.146 C
HETATM    9  C6  UNL     1       8.348   5.095  24.879  1.00  0.00     0.006 C
HETATM   10  C7  UNL     1       8.286   4.795  23.384  1.00  0.00     0.014 C
HETATM   11  C8  UNL     1       9.790   4.693  23.080  1.00  0.00     0.027 C
HETATM   12  C9  UNL     1      10.279   3.479  23.866  1.00  0.00     0.148 C
HETATM   13  C10 UNL     1      10.238   5.995  23.731  1.00  0.00     0.089 C
HETATM   14  C12 UNL     1       9.652   5.858  25.104  1.00  0.00     0.032 C
ENDROOT
BRANCH   1  15
HETATM   15  C3  UNL     1       8.470  -0.574  25.953  1.00  0.00     0.164 C
BRANCH  15  16
HETATM   16  C2  UNL     1       7.074  -1.075  25.973  1.00  0.00    -0.017 C
HETATM   17  C1  UNL     1       6.460  -1.400  27.103  1.00  0.00     0.008 C
ENDBRANCH  15  16
ENDBRANCH   1  15
BRANCH  13  18
HETATM   18  N4  UNL     1      11.640   6.211  23.673  1.00  0.00    -0.362 N
HETATM   19  C11 UNL     1      12.088   7.184  22.935  1.00  0.00     0.197 C
HETATM   20  N5  UNL     1      11.196   8.023  22.198  1.00  0.00    -0.067 NA
HETATM   21  N6  UNL     1      13.462   7.473  22.811  1.00  0.00    -0.067 NA
ATOM     22  H4  UNL     1      12.281   5.618  24.199  1.00  0.00     0.162 HD
ENDBRANCH  13  18
TORSDOF 3
ENDMDL