MODEL 1
REMARK VINA RESULT: -5.780037489      0.000      0.000
REMARK  5 active torsions:
REMARK  status: ('A' for Active; 'I' for Inactive)
REMARK    1  A    between atoms: O1_2  and  C2_3
REMARK    2  A    between atoms: C2_3  and  N6_15
REMARK    3  A    between atoms: N1_4  and  C3_6
REMARK    4  A    between atoms: C3_6  and  N2_8
REMARK    5  A    between atoms: N2_8  and  N3_10
ROOT
HETATM    1  C2  UNL     1       7.989   5.068  24.215  1.00  0.00     0.223 C
HETATM    2  N1  UNL     1       8.290   6.308  24.008  1.00  0.00    -0.298 N
ATOM      3  H1  UNL     1       7.522   6.958  23.846  1.00  0.00     0.172 HD
ENDROOT
BRANCH   2   4
HETATM    4  C3  UNL     1       9.588   6.825  23.991  1.00  0.00     0.193 C
HETATM    5  S1  UNL     1      10.129   7.657  25.286  1.00  0.00    -0.039 SA
BRANCH   4   6
HETATM    6  N2  UNL     1      10.460   6.660  22.893  1.00  0.00    -0.274 N
ATOM      7  H2  UNL     1      10.053   6.653  21.958  1.00  0.00     0.189 HD
BRANCH   6   8
HETATM    8  N3  UNL     1      11.832   6.506  23.001  1.00  0.00    -0.274 N
HETATM    9  C4  UNL     1      12.602   7.382  22.449  1.00  0.00     0.215 C
HETATM   10  N4  UNL     1      14.012   7.237  22.554  1.00  0.00    -0.065 NA
HETATM   11  N5  UNL     1      12.073   8.510  21.728  1.00  0.00    -0.065 NA
ATOM     12  H3  UNL     1      12.226   5.714  23.508  1.00  0.00     0.189 HD
ENDBRANCH   6   8
ENDBRANCH   4   6
ENDBRANCH   2   4
BRANCH   1  13
HETATM   13  O1  UNL     1       6.638   4.748  24.193  1.00  0.00    -0.327 OA
HETATM   14  C1  UNL     1       5.634   5.771  24.284  1.00  0.00     0.213 C
ENDBRANCH   1  13
BRANCH   1  15
HETATM   15  N6  UNL     1       8.965   4.059  24.455  1.00  0.00    -0.347 N
HETATM   16  C5  UNL     1       9.361   3.671  25.814  1.00  0.00     0.126 C
HETATM   17  C6  UNL     1       9.002   2.236  25.995  1.00  0.00     0.020 C
HETATM   18  C7  UNL     1       9.391   1.334  24.891  1.00  0.00     0.003 C
HETATM   19  C8  UNL     1       9.292   1.894  23.520  1.00  0.00     0.020 C
HETATM   20  C9  UNL     1       9.642   3.338  23.397  1.00  0.00     0.126 C
ENDBRANCH   1  15
TORSDOF 5
ENDMDL