MODEL 2
REMARK VINA RESULT: -6.521838124      2.653      4.329
REMARK  5 active torsions:
REMARK  status: ('A' for Active; 'I' for Inactive)
REMARK       I    between atoms: N1_2  and  C2_4
REMARK    1  A    between atoms: C2_4  and  C3_6
REMARK    2  A    between atoms: C3_6  and  N2_7
REMARK    3  A    between atoms: N2_7  and  C4_9
REMARK    4  A    between atoms: C4_9  and  N3_11
REMARK    5  A    between atoms: N3_11  and  N4_13
REMARK       I    between atoms: N4_13  and  C5_15
REMARK       I    between atoms: C5_15  and  N5_17
ROOT
HETATM    1  N3  UNL     1      10.446   5.216  23.532  1.00  0.00    -0.272 N
ATOM      2  H3  UNL     1      11.458   5.338  23.567  1.00  0.00     0.189 HD
ENDROOT
BRANCH   1   3
HETATM    3  C4  UNL     1       9.635   6.189  22.921  1.00  0.00     0.186 C
HETATM    4  S1  UNL     1      10.069   7.735  22.878  1.00  0.00    -0.040 SA
BRANCH   3   5
HETATM    5  N2  UNL     1       8.402   5.774  22.334  1.00  0.00    -0.357 N
ATOM      6  H2  UNL     1       8.382   5.094  21.573  1.00  0.00     0.162 HD
BRANCH   5   7
HETATM    7  C3  UNL     1       7.188   6.347  22.851  1.00  0.00     0.224 C
BRANCH   7   8
HETATM    8  C2  UNL     1       6.933   5.925  24.215  1.00  0.00     0.234 C
HETATM    9  N1  UNL     1       6.780   6.763  25.348  1.00  0.00    -0.364 N
HETATM   10  C1  UNL     1       6.524   6.134  26.658  1.00  0.00     0.149 C
ATOM     11  H1  UNL     1       6.846   7.778  25.259  1.00  0.00     0.161 HD
HETATM   12  O1  UNL     1       6.829   4.669  24.440  1.00  0.00    -0.272 OA
ENDBRANCH   7   8
ENDBRANCH   5   7
ENDBRANCH   3   5
ENDBRANCH   1   3
BRANCH   1  13
HETATM   13  N4  UNL     1       9.857   4.087  24.088  1.00  0.00    -0.249 N
HETATM   14  C5  UNL     1       9.891   2.853  23.439  1.00  0.00     0.337 C
HETATM   15  O2  UNL     1      10.441   2.652  22.300  1.00  0.00    -0.245 OA
HETATM   16  N5  UNL     1       9.274   1.711  24.075  1.00  0.00    -0.333 N
HETATM   17  C6  UNL     1       8.623   1.783  25.370  1.00  0.00     0.127 C
HETATM   18  C9  UNL     1       9.237   0.393  23.513  1.00  0.00     0.127 C
HETATM   19  C7  UNL     1       8.710   0.348  25.856  1.00  0.00     0.022 C
HETATM   20  C8  UNL     1       8.714  -0.494  24.594  1.00  0.00     0.022 C
ATOM     21  H4  UNL     1       9.389   4.163  24.991  1.00  0.00     0.192 HD
ENDBRANCH   1  13
TORSDOF 5
ENDMDL