MODEL 4
REMARK VINA RESULT: -5.640739592      2.430      4.671
REMARK  5 active torsions:
REMARK  status: ('A' for Active; 'I' for Inactive)
REMARK    1  A    between atoms: C2_2  and  C4_4
REMARK       I    between atoms: C4_4  and  N1_6
REMARK    2  A    between atoms: N1_6  and  C5_8
REMARK    3  A    between atoms: C7_10  and  O2_11
REMARK    4  A    between atoms: C11_16  and  C12_17
REMARK    5  A    between atoms: N2_18  and  N3_20
ROOT
HETATM    1  C5  UNL     1       7.076   5.366  23.852  1.00  0.00     0.095 C
HETATM    2  C6  UNL     1       8.021   5.850  22.777  1.00  0.00     0.064 C
HETATM    3  C7  UNL     1       9.088   5.101  23.477  1.00  0.00     0.066 C
HETATM    4  C8  UNL     1      10.368   5.827  23.729  1.00  0.00     0.038 C
HETATM    5  C9  UNL     1      10.084   7.093  24.451  1.00  0.00     0.004 C
HETATM    6  C10 UNL     1       9.513   6.806  25.780  1.00  0.00     0.010 C
HETATM    7  C11 UNL     1       8.613   5.606  25.902  1.00  0.00     0.034 C
HETATM    8  C13 UNL     1       8.216   4.919  24.661  1.00  0.00     0.052 C
ENDROOT
BRANCH   1   9
HETATM    9  N1  UNL     1       6.208   6.397  24.307  1.00  0.00    -0.356 N
HETATM   10  C4  UNL     1       4.845   6.139  24.554  1.00  0.00     0.221 C
HETATM   11  O1  UNL     1       4.336   4.996  24.386  1.00  0.00    -0.273 OA
ATOM     12  H1  UNL     1       6.577   7.336  24.456  1.00  0.00     0.162 HD
BRANCH  10  13
HETATM   13  C2  UNL     1       3.977   7.241  25.026  1.00  0.00     0.070 C
HETATM   14  C1  UNL     1       3.660   8.227  23.926  1.00  0.00     0.019 C
HETATM   15  C3  UNL     1       4.612   8.026  26.156  1.00  0.00     0.019 C
ENDBRANCH  10  13
ENDBRANCH   1   9
BRANCH   3  16
HETATM   16  O2  UNL     1       9.380   3.920  22.749  1.00  0.00    -0.389 OA
ATOM     17  H2  UNL     1       9.693   3.255  23.350  1.00  0.00     0.210 HD
ENDBRANCH   3  16
BRANCH   7  18
HETATM   18  C12 UNL     1       7.514   5.903  26.838  1.00  0.00     0.084 C
HETATM   19  N2  UNL     1       6.871   4.968  27.406  1.00  0.00    -0.322 N
ATOM     20  H2  UNL     1       7.133   4.004  27.199  1.00  0.00     0.185 HD
BRANCH  19  21
HETATM   21  N3  UNL     1       5.817   5.197  28.305  1.00  0.00    -0.346 N
ATOM     22  H32 UNL     1       5.249   4.395  28.577  1.00  0.00     0.176 HD
ATOM     23  H31 UNL     1       5.602   6.117  28.690  1.00  0.00     0.176 HD
ENDBRANCH  19  21
ENDBRANCH   7  18
TORSDOF 5
ENDMDL