MODEL 3
REMARK VINA RESULT: -5.914038454      1.092      1.263
REMARK  5 active torsions:
REMARK  status: ('A' for Active; 'I' for Inactive)
REMARK    1  A    between atoms: N1_1  and  N2_4
REMARK    2  A    between atoms: N2_4  and  N3_6
REMARK    3  A    between atoms: C1_8  and  C2_9
REMARK    4  A    between atoms: C9_16  and  O1_17
REMARK    5  A    between atoms: C11_20  and  O2_21
ROOT
HETATM    1  C2  UNL     1       9.712   4.786  25.381  1.00  0.00     0.065 C
HETATM    2  C3  UNL     1       9.423   5.945  26.308  1.00  0.00     0.006 C
HETATM    3  C4  UNL     1       8.523   5.751  27.415  1.00  0.00     0.006 C
HETATM    4  C5  UNL     1       7.068   5.695  27.306  1.00  0.00     0.004 C
HETATM    5  C6  UNL     1       6.359   6.843  26.628  1.00  0.00     0.027 C
HETATM    6  C7  UNL     1       6.633   6.617  25.156  1.00  0.00    -0.021 C
HETATM    7  C8  UNL     1       7.812   6.710  24.603  1.00  0.00    -0.051 C
HETATM    8  C9  UNL     1       7.889   6.449  23.134  1.00  0.00     0.150 C
HETATM    9  C10 UNL     1       8.838   5.231  23.038  1.00  0.00     0.075 C
HETATM   10  C11 UNL     1       9.969   5.348  24.001  1.00  0.00     0.070 C
HETATM   11  C12 UNL     1      10.210   6.831  24.313  1.00  0.00     0.048 C
HETATM   12  C13 UNL     1       9.087   7.040  25.309  1.00  0.00     0.024 C
ENDROOT
BRANCH   1  13
HETATM   13  C1  UNL     1       8.717   3.718  25.430  1.00  0.00     0.089 C
HETATM   14  N3  UNL     1       9.044   2.566  25.916  1.00  0.00    -0.301 N
ATOM     15  H3  UNL     1      10.002   2.454  26.249  1.00  0.00     0.187 HD
BRANCH  14  16
HETATM   16  N2  UNL     1       8.208   1.477  26.023  1.00  0.00    -0.250 N
ATOM     17  H2  UNL     1       7.197   1.580  25.921  1.00  0.00     0.207 HD
BRANCH  16  18
HETATM   18  N1  UNL     1       8.734   0.327  26.254  1.00  0.00    -0.331 N
ATOM     19  H12 UNL     1       8.420  -0.226  27.051  1.00  0.00     0.178 HD
ATOM     20  H11 UNL     1       9.463  -0.004  25.622  1.00  0.00     0.178 HD
ENDBRANCH  16  18
ENDBRANCH  14  16
ENDBRANCH   1  13
BRANCH  10  21
HETATM   21  O2  UNL     1      11.145   4.832  23.425  1.00  0.00    -0.389 OA
ATOM     22  H2  UNL     1      11.006   3.983  23.022  1.00  0.00     0.210 HD
ENDBRANCH  10  21
BRANCH   8  23
HETATM   23  O1  UNL     1       6.646   6.036  22.711  1.00  0.00    -0.391 OA
ATOM     24  H1  UNL     1       6.458   5.201  23.125  1.00  0.00     0.210 HD
ENDBRANCH   8  23
TORSDOF 5
ENDMDL