MODEL 1
REMARK VINA RESULT: -7.293493136      0.000      0.000
REMARK  3 active torsions:
REMARK  status: ('A' for Active; 'I' for Inactive)
REMARK       I    between atoms: C1_4  and  N2_5
REMARK       I    between atoms: C1_4  and  N3_12
REMARK    1  A    between atoms: N2_5  and  C2_7
REMARK    2  A    between atoms: C2_7  and  C3_8
REMARK    3  A    between atoms: N3_12  and  N4_14
REMARK       I    between atoms: N4_14  and  C5_16
REMARK       I    between atoms: C5_16  and  N5_18
ROOT
HETATM    1  C3  UNL     1       8.695  -0.166  24.678  1.00  0.00    -0.056 C
HETATM    2  C4  UNL     1       8.110  -0.562  25.656  1.00  0.00     0.053 C
HETATM    3  O1  UNL     1       7.421  -1.003  26.769  1.00  0.00    -0.314 OA
ATOM      4  H1  UNL     1       6.960  -1.315  27.539  1.00  0.00     0.230 HD
ENDROOT
BRANCH   1   5
HETATM    5  C2  UNL     1       9.376   0.317  23.475  1.00  0.00     0.235 C
BRANCH   5   6
HETATM    6  N2  UNL     1      10.373   1.348  23.780  1.00  0.00    -0.215 N
HETATM    7  C1  UNL     1      10.200   2.654  23.261  1.00  0.00     0.687 C
HETATM    8  N1  UNL     1       9.942   2.747  21.984  1.00  0.00    -0.234 N
HETATM    9  N3  UNL     1      10.286   3.830  24.020  1.00  0.00    -0.129 N
ATOM     10  H12 UNL     1       9.880   1.891  21.432  1.00  0.00     0.174 HD
ATOM     11  H11 UNL     1       9.817   3.687  21.610  1.00  0.00     0.174 HD
ATOM     12  H3  UNL     1      11.029   3.917  24.713  1.00  0.00     0.205 HD
ATOM     13  H2  UNL     1      11.182   1.126  24.359  1.00  0.00     0.178 HD
BRANCH   9  14
HETATM   14  N4  UNL     1       9.391   4.881  23.856  1.00  0.00    -0.237 N
HETATM   15  C5  UNL     1       8.043   4.751  24.301  1.00  0.00     0.337 C
HETATM   16  O2  UNL     1       7.622   3.695  24.842  1.00  0.00    -0.245 OA
HETATM   17  N5  UNL     1       7.105   5.826  24.153  1.00  0.00    -0.333 N
HETATM   18  C6  UNL     1       7.643   6.982  23.485  1.00  0.00     0.127 C
HETATM   19  C11 UNL     1       5.804   5.534  24.720  1.00  0.00     0.127 C
HETATM   20  C7  UNL     1       6.694   8.135  23.388  1.00  0.00     0.020 C
HETATM   21  C8  UNL     1       5.258   7.754  23.262  1.00  0.00     0.002 C
HETATM   22  C9  UNL     1       4.590   7.648  24.638  1.00  0.00     0.002 C
HETATM   23  C10 UNL     1       5.381   6.744  25.537  1.00  0.00     0.020 C
ATOM     24  H4  UNL     1       9.701   5.748  23.416  1.00  0.00     0.192 HD
ENDBRANCH   9  14
ENDBRANCH   5   6
ENDBRANCH   1   5
TORSDOF 3
ENDMDL