MODEL 2
REMARK VINA RESULT: -6.397091141      1.006      1.074
REMARK  5 active torsions:
REMARK  status: ('A' for Active; 'I' for Inactive)
REMARK    1  A    between atoms: C2_2  and  N1_3
REMARK    2  A    between atoms: N1_3  and  N2_4
REMARK    3  A    between atoms: N3_12  and  C9_13
REMARK    4  A    between atoms: C9_13  and  C10_17
REMARK    5  A    between atoms: C10_17  and  O1_21
ROOT
HETATM    1  N1  UNL     1       7.192   5.989  25.658  1.00  0.00     0.017 N
HETATM    2  C4  UNL     1       8.063   7.114  25.277  1.00  0.00     0.268 C
HETATM    3  C5  UNL     1       9.183   6.518  26.070  1.00  0.00     0.072 C
HETATM    4  C6  UNL     1       8.418   5.209  25.824  1.00  0.00     0.156 C
HETATM    5  C7  UNL     1       8.420   4.277  26.987  1.00  0.00     0.061 C
HETATM    6  C8  UNL     1       9.220   3.019  26.762  1.00  0.00     0.127 C
HETATM    7  N3  UNL     1       8.928   2.384  25.512  1.00  0.00    -0.364 N
HETATM    8  C11 UNL     1       8.482   3.145  24.392  1.00  0.00     0.127 C
HETATM    9  C12 UNL     1       8.933   4.576  24.577  1.00  0.00     0.061 C
ENDROOT
BRANCH   7  10
HETATM   10  C9  UNL     1       9.089   0.984  25.406  1.00  0.00     0.148 C
HETATM   11  N4  UNL     1       8.827   0.219  26.400  1.00  0.00    -0.382 N
ATOM     12  H42 UNL     1       8.500   0.624  27.277  1.00  0.00     0.157 HD
ATOM     13  H41 UNL     1       8.942  -0.791  26.324  1.00  0.00     0.157 HD
BRANCH  10  14
HETATM   14  C10 UNL     1       9.552   0.412  24.166  1.00  0.00     0.178 C
HETATM   15  N5  UNL     1       8.807  -0.405  23.514  1.00  0.00    -0.377 N
ATOM     16  H52 UNL     1       7.884  -0.657  23.868  1.00  0.00     0.158 HD
ATOM     17  H51 UNL     1       9.135  -0.810  22.638  1.00  0.00     0.158 HD
BRANCH  14  18
HETATM   18  O1  UNL     1      10.796   0.751  23.689  1.00  0.00    -0.344 OA
ATOM     19  H1  UNL     1      11.126   0.329  22.905  1.00  0.00     0.219 HD
ENDBRANCH  14  18
ENDBRANCH  10  14
ENDBRANCH   7  10
BRANCH   1  20
HETATM   20  C2  UNL     1       6.515   6.316  26.868  1.00  0.00     0.261 C
HETATM   21  C1  UNL     1       5.037   6.489  26.589  1.00  0.00     0.037 C
ENDBRANCH   1  20
BRANCH   1  22
HETATM   22  N2  UNL     1       6.482   5.539  24.592  1.00  0.00    -0.256 N
HETATM   23  C3  UNL     1       6.324   6.398  23.487  1.00  0.00     0.175 C
ATOM     24  H2  UNL     1       6.074   4.604  24.591  1.00  0.00     0.186 HD
ENDBRANCH   1  22
TORSDOF 5
ENDMDL