MODEL 3
REMARK VINA RESULT: -6.022718505      1.398      2.206
REMARK  5 active torsions:
REMARK  status: ('A' for Active; 'I' for Inactive)
REMARK    1  A    between atoms: N1_2  and  C2_3
REMARK    2  A    between atoms: C2_3  and  C3_4
REMARK    3  A    between atoms: C4_5  and  C5_6
REMARK    4  A    between atoms: C6_7  and  C7_8
REMARK    5  A    between atoms: C7_8  and  N2_9
ROOT
HETATM    1  C2  UNL     1      14.215   8.218  22.910  1.00  0.00     0.388 C
ENDROOT
BRANCH   1   2
HETATM    2  N1  UNL     1      13.869   9.456  22.241  1.00  0.00     0.110 N
HETATM    3  C1  UNL     1      13.301  10.470  23.093  1.00  0.00     0.335 C
HETATM    4  N3  UNL     1      15.003   9.959  21.597  1.00  0.00    -0.164 N
HETATM    5  C13 UNL     1      14.216  10.206  20.460  1.00  0.00     0.222 C
ATOM      6  H3  UNL     1      15.983  10.091  21.847  1.00  0.00     0.199 HD
HETATM    7  N4  UNL     1      14.317  10.894  19.391  1.00  0.00    -0.369 N
HETATM    8  N5  UNL     1      13.249   9.344  21.025  1.00  0.00    -0.164 N
ATOM      9  H42 UNL     1      15.015  11.516  18.982  1.00  0.00     0.159 HD
ATOM     10  H41 UNL     1      13.746  11.073  18.565  1.00  0.00     0.159 HD
ATOM     11  H5  UNL     1      12.431   8.846  20.674  1.00  0.00     0.199 HD
ENDBRANCH   1   2
BRANCH   1  12
HETATM   12  C3  UNL     1      12.982   7.468  23.138  1.00  0.00    -0.060 C
HETATM   13  C4  UNL     1      11.963   6.827  23.324  1.00  0.00    -0.013 C
BRANCH  13  14
HETATM   14  C5  UNL     1      10.794   6.058  23.542  1.00  0.00    -0.013 C
HETATM   15  C6  UNL     1       9.798   5.378  23.727  1.00  0.00    -0.073 C
BRANCH  15  16
HETATM   16  C7  UNL     1       8.615   4.546  23.943  1.00  0.00     0.212 C
BRANCH  16  17
HETATM   17  N2  UNL     1       8.988   3.203  24.241  1.00  0.00    -0.402 N
HETATM   18  C8  UNL     1       9.247   2.977  25.629  1.00  0.00     0.117 C
HETATM   19  C9  UNL     1       9.025   1.501  25.894  1.00  0.00     0.019 C
HETATM   20  C10 UNL     1       8.841   0.728  24.631  1.00  0.00     0.003 C
HETATM   21  C11 UNL     1       9.940   1.102  23.654  1.00  0.00     0.019 C
HETATM   22  C12 UNL     1       9.916   2.595  23.343  1.00  0.00     0.117 C
ENDBRANCH  16  17
ENDBRANCH  15  16
ENDBRANCH  13  14
ENDBRANCH   1  12
TORSDOF 5
ENDMDL