MODEL 1
REMARK VINA RESULT: -6.011102842      0.000      0.000
REMARK  3 active torsions:
REMARK  status: ('A' for Active; 'I' for Inactive)
REMARK    1  A    between atoms: C2_2  and  C3_3
REMARK    2  A    between atoms: N1_4  and  C4_5
REMARK    3  A    between atoms: C6_9  and  N3_10
REMARK       I    between atoms: N3_10  and  C7_12
ROOT
HETATM    1  C3  UNL     1       9.439   5.694  25.143  1.00  0.00     0.119 C
HETATM    2  N1  UNL     1       8.531   5.453  24.038  1.00  0.00    -0.350 N
HETATM    3  C5  UNL     1       8.360   4.019  23.943  1.00  0.00     0.151 C
HETATM    4  C6  UNL     1       8.992   3.430  25.227  1.00  0.00     0.112 C
HETATM    5  C8  UNL     1       8.957   4.642  26.116  1.00  0.00     0.006 C
HETATM    6  C9  UNL     1       9.607   4.611  27.433  1.00  0.00     0.014 C
HETATM    7  C10 UNL     1       8.302   5.129  28.050  1.00  0.00     0.002 C
HETATM    8  C11 UNL     1       7.608   4.908  26.723  1.00  0.00     0.014 C
ENDROOT
BRANCH   4   9
HETATM    9  N3  UNL     1       8.277   2.295  25.670  1.00  0.00    -0.358 N
HETATM   10  C7  UNL     1       8.740   0.985  25.448  1.00  0.00     0.182 C
HETATM   11  N4  UNL     1       8.941   0.211  26.487  1.00  0.00    -0.374 N
HETATM   12  N5  UNL     1       8.993   0.448  24.139  1.00  0.00    -0.064 NA
ATOM     13  H42 UNL     1       8.762   0.592  27.417  1.00  0.00     0.158 HD
ATOM     14  H41 UNL     1       9.276  -0.739  26.327  1.00  0.00     0.158 HD
ATOM     15  H3  UNL     1       7.397   2.429  26.166  1.00  0.00     0.162 HD
ENDBRANCH   4   9
BRANCH   2  16
HETATM   16  C4  UNL     1       7.904   6.386  23.189  1.00  0.00     0.183 C
HETATM   17  N2  UNL     1       8.524   6.870  22.019  1.00  0.00    -0.070 NA
HETATM   18  S1  UNL     1       6.394   6.981  23.508  1.00  0.00    -0.044 SA
ENDBRANCH   2  16
BRANCH   1  19
HETATM   19  C2  UNL     1       9.420   7.049  25.656  1.00  0.00    -0.011 C
HETATM   20  C1  UNL     1      10.320   7.926  25.250  1.00  0.00     0.009 C
ENDBRANCH   1  19
TORSDOF 3
ENDMDL