MODEL 2
REMARK VINA RESULT: -6.679928272      3.425      8.404
REMARK  3 active torsions:
REMARK  status: ('A' for Active; 'I' for Inactive)
REMARK       I    between atoms: C1_4  and  N2_5
REMARK       I    between atoms: C1_4  and  N5_20
REMARK       I    between atoms: N3_7  and  C2_9
REMARK       I    between atoms: C2_9  and  N4_11
REMARK    1  A    between atoms: N4_11  and  C3_13
REMARK    2  A    between atoms: N5_20  and  C10_22
REMARK    3  A    between atoms: C10_22  and  C11_23
ROOT
HETATM    1  N1  UNL     1      39.765   0.171  30.193  1.00  0.00    -0.234 N
ATOM      2  H11 UNL     1      38.923   0.419  30.712  1.00  0.00     0.174 HD
ATOM      3  H12 UNL     1      40.163   0.835  29.528  1.00  0.00     0.174 HD
HETATM    4  C1  UNL     1      40.314  -0.964  30.375  1.00  0.00     0.686 C
HETATM    5  N2  UNL     1      41.476  -1.306  29.659  1.00  0.00    -0.129 N
ATOM      6  H2  UNL     1      41.512  -2.139  29.070  1.00  0.00     0.205 HD
HETATM    7  N3  UNL     1      42.480  -0.533  29.777  1.00  0.00    -0.237 N
ATOM      8  H3  UNL     1      42.461   0.303  30.362  1.00  0.00     0.192 HD
HETATM    9  C2  UNL     1      43.644  -0.923  29.025  1.00  0.00     0.335 C
HETATM   10  O1  UNL     1      44.785  -0.924  29.525  1.00  0.00    -0.246 OA
HETATM   11  N4  UNL     1      43.423  -1.308  27.679  1.00  0.00    -0.337 N
ATOM     12  H4  UNL     1      42.484  -1.303  27.282  1.00  0.00     0.164 HD
HETATM   13  N5  UNL     1      39.766  -1.880  31.292  1.00  0.00    -0.220 N
ATOM     14  H5  UNL     1      38.764  -2.072  31.284  1.00  0.00     0.178 HD
ENDROOT
BRANCH  13  15
HETATM   15  C10 UNL     1      40.621  -2.546  32.243  1.00  0.00     0.195 C
BRANCH  15  16
HETATM   16  C11 UNL     1      41.248  -1.519  33.111  1.00  0.00     0.028 A
HETATM   17  C12 UNL     1      42.605  -1.345  33.261  1.00  0.00     0.047 A
HETATM   18  C13 UNL     1      42.754  -0.301  34.141  1.00  0.00     0.028 A
HETATM   19 BR1  UNL     1      44.397   0.434  34.766  1.00  0.00    -0.050 Br
HETATM   20  C14 UNL     1      41.515   0.156  34.522  1.00  0.00     0.107 A
HETATM   21  N6  UNL     1      40.614  -0.612  33.873  1.00  0.00    -0.366 N
ATOM     22  H6  UNL     1      39.601  -0.517  33.950  1.00  0.00     0.165 HD
ENDBRANCH  15  16
ENDBRANCH  13  15
BRANCH  11  23
HETATM   23  C3  UNL     1      44.550  -1.705  26.889  1.00  0.00     0.086 C
HETATM   24  C4  UNL     1      44.514  -1.016  25.567  1.00  0.00     0.025 C
HETATM   25  C5  UNL     1      43.611  -1.629  24.558  1.00  0.00     0.002 C
HETATM   26  C6  UNL     1      44.261  -2.861  23.967  1.00  0.00     0.000 C
HETATM   27  C7  UNL     1      43.688  -4.062  24.645  1.00  0.00     0.000 C
HETATM   28  C8  UNL     1      43.422  -3.821  26.124  1.00  0.00     0.002 C
HETATM   29  C9  UNL     1      44.596  -3.206  26.801  1.00  0.00     0.025 C
ENDBRANCH  11  23
TORSDOF 3
ENDMDL