MODEL 3
REMARK VINA RESULT: -6.391751831      1.325      1.546
REMARK  8 active torsions:
REMARK  status: ('A' for Active; 'I' for Inactive)
REMARK    1  A    between atoms: C8_9  and  C9_10
REMARK    2  A    between atoms: C9_10  and  N1_11
REMARK    3  A    between atoms: N1_11  and  C10_13
REMARK    4  A    between atoms: C10_13  and  N2_15
REMARK    5  A    between atoms: N2_15  and  N3_17
REMARK    6  A    between atoms: N3_17  and  C11_19
REMARK    7  A    between atoms: C11_19  and  N4_21
REMARK    8  A    between atoms: N4_21  and  C12_23
ROOT
HETATM    1  C10 UNL     1      42.076  -4.797  29.257  1.00  0.00     0.190 C
HETATM    2  S1  UNL     1      43.126  -5.047  30.489  1.00  0.00    -0.039 SA
ENDROOT
BRANCH   1   3
HETATM    3  N1  UNL     1      42.570  -4.712  27.901  1.00  0.00    -0.341 N
ATOM      4  H1  UNL     1      42.071  -5.185  27.148  1.00  0.00     0.167 HD
BRANCH   3   5
HETATM    5  C9  UNL     1      43.739  -3.977  27.614  1.00  0.00     0.103 C
BRANCH   5   6
HETATM    6  C8  UNL     1      43.808  -2.971  26.584  1.00  0.00    -0.009 A
HETATM    7  C2  UNL     1      43.816  -1.631  27.064  1.00  0.00    -0.047 A
HETATM    8  C1  UNL     1      43.785  -1.439  28.516  1.00  0.00     0.049 C
HETATM    9  C3  UNL     1      43.851  -0.597  26.175  1.00  0.00     0.049 A
HETATM   10  C4  UNL     1      43.882  -0.768  24.812  1.00  0.00     0.117 A
HETATM   11  F1  UNL     1      43.918   0.301  23.957  1.00  0.00    -0.206 F
HETATM   12  C5  UNL     1      43.873  -2.055  24.359  1.00  0.00     0.049 A
HETATM   13  C6  UNL     1      43.836  -3.162  25.238  1.00  0.00    -0.047 A
HETATM   14  C7  UNL     1      43.781  -4.506  24.600  1.00  0.00     0.049 C
ENDBRANCH   5   6
ENDBRANCH   3   5
ENDBRANCH   1   3
BRANCH   1  15
HETATM   15  N2  UNL     1      40.693  -4.652  29.527  1.00  0.00    -0.274 N
ATOM     16  H2  UNL     1      40.196  -5.379  30.042  1.00  0.00     0.189 HD
BRANCH  15  17
HETATM   17  N3  UNL     1      40.002  -3.507  29.085  1.00  0.00    -0.274 N
ATOM     18  H3  UNL     1      40.396  -2.923  28.348  1.00  0.00     0.189 HD
BRANCH  17  19
HETATM   19  C11 UNL     1      38.756  -3.172  29.672  1.00  0.00     0.186 C
HETATM   20  S2  UNL     1      37.377  -3.728  28.998  1.00  0.00    -0.040 SA
BRANCH  19  21
HETATM   21  N4  UNL     1      38.663  -2.367  30.825  1.00  0.00    -0.361 N
ATOM     22  H4  UNL     1      38.650  -2.822  31.738  1.00  0.00     0.162 HD
BRANCH  21  23
HETATM   23  C12 UNL     1      38.585  -0.908  30.766  1.00  0.00     0.083 C
HETATM   24  C13 UNL     1      37.884  -0.374  31.981  1.00  0.00     0.025 C
HETATM   25  C14 UNL     1      38.800   0.493  32.772  1.00  0.00     0.002 C
HETATM   26  C15 UNL     1      40.106  -0.211  33.107  1.00  0.00     0.000 C
HETATM   27  C16 UNL     1      40.829  -0.582  31.819  1.00  0.00     0.002 C
HETATM   28  C17 UNL     1      39.933  -0.290  30.627  1.00  0.00     0.025 C
ENDBRANCH  21  23
ENDBRANCH  19  21
ENDBRANCH  17  19
ENDBRANCH  15  17
ENDBRANCH   1  15
TORSDOF 8
ENDMDL