MODEL 3
REMARK VINA RESULT: -7.027636339      1.467      2.020
REMARK  5 active torsions:
REMARK  status: ('A' for Active; 'I' for Inactive)
REMARK    1  A    between atoms: C10_10  and  C11_11
REMARK    2  A    between atoms: C11_11  and  N1_12
REMARK    3  A    between atoms: N1_12  and  C12_14
REMARK    4  A    between atoms: C12_14  and  N2_16
REMARK       I    between atoms: N2_16  and  C13_18
REMARK       I    between atoms: C13_18  and  N4_22
REMARK    5  A    between atoms: N4_22  and  C14_24
ROOT
HETATM    1  C12 UNL     1      42.538  -2.635  30.011  1.00  0.00     0.190 C
HETATM    2  S1  UNL     1      42.794  -3.793  31.125  1.00  0.00    -0.040 SA
ENDROOT
BRANCH   1   3
HETATM    3  N1  UNL     1      41.264  -2.306  29.512  1.00  0.00    -0.345 N
ATOM      4  H1  UNL     1      41.274  -1.776  28.640  1.00  0.00     0.167 HD
BRANCH   3   5
HETATM    5  C11 UNL     1      39.974  -2.587  30.016  1.00  0.00     0.074 C
BRANCH   5   6
HETATM    6  C10 UNL     1      39.443  -1.690  31.009  1.00  0.00     0.004 C
HETATM    7  C2  UNL     1      37.919  -1.683  31.104  1.00  0.00    -0.027 C
HETATM    8  C1  UNL     1      37.159  -1.848  29.890  1.00  0.00     0.016 C
HETATM    9  C3  UNL     1      37.794  -2.831  32.123  1.00  0.00     0.015 C
HETATM   10  C6  UNL     1      37.689  -0.417  31.890  1.00  0.00    -0.001 C
HETATM   11  C4  UNL     1      38.569  -2.078  33.226  1.00  0.00    -0.008 C
HETATM   12  C5  UNL     1      37.614  -0.912  33.342  1.00  0.00     0.011 C
HETATM   13  C9  UNL     1      39.813  -1.682  32.435  1.00  0.00     0.004 C
HETATM   14  C8  UNL     1      39.990  -0.166  32.766  1.00  0.00     0.011 C
HETATM   15  C7  UNL     1      38.964   0.378  31.804  1.00  0.00    -0.008 C
HETATM   16  C19 UNL     1      39.560  -0.195  30.538  1.00  0.00     0.021 C
ENDBRANCH   5   6
ENDBRANCH   3   5
ENDBRANCH   1   3
BRANCH   1  17
HETATM   17  N2  UNL     1      43.730  -2.033  29.477  1.00  0.00    -0.167 N
HETATM   18  C13 UNL     1      43.713  -1.045  28.461  1.00  0.00     0.674 C
HETATM   19  N3  UNL     1      44.140   0.161  28.670  1.00  0.00    -0.235 N
HETATM   20  N4  UNL     1      43.218  -1.394  27.193  1.00  0.00    -0.219 N
ATOM     21  H32 UNL     1      44.500   0.415  29.590  1.00  0.00     0.174 HD
ATOM     22  H31 UNL     1      44.128   0.872  27.939  1.00  0.00     0.174 HD
ATOM     23  H4  UNL     1      42.298  -1.059  26.908  1.00  0.00     0.178 HD
ATOM     24  H2  UNL     1      44.633  -2.332  29.847  1.00  0.00     0.186 HD
BRANCH  20  25
HETATM   25  C14 UNL     1      43.978  -2.208  26.291  1.00  0.00     0.133 C
HETATM   26  C15 UNL     1      43.609  -3.664  26.328  1.00  0.00     0.029 C
HETATM   27  C16 UNL     1      44.238  -4.193  25.057  1.00  0.00     0.005 C
HETATM   28  C17 UNL     1      44.409  -3.006  24.129  1.00  0.00     0.039 C
HETATM   29  C18 UNL     1      43.730  -1.868  24.851  1.00  0.00     0.193 C
HETATM   30  F1  UNL     1      44.167  -0.636  24.465  1.00  0.00    -0.247 F
ENDBRANCH  20  25
ENDBRANCH   1  17
TORSDOF 5
ENDMDL