MODEL 1
REMARK VINA RESULT: -6.580384375      0.000      0.000
REMARK  4 active torsions:
REMARK  status: ('A' for Active; 'I' for Inactive)
REMARK    1  A    between atoms: C3_4  and  C4_5
REMARK    2  A    between atoms: C4_5  and  N2_9
REMARK       I    between atoms: C5_11  and  N3_12
REMARK       I    between atoms: C5_11  and  N4_20
REMARK    3  A    between atoms: N3_12  and  C6_14
REMARK    4  A    between atoms: N4_20  and  C12_22
ROOT
HETATM    1  N2  UNL     1      42.668  -0.969  28.620  1.00  0.00    -0.178 N
ATOM      2  H2  UNL     1      42.174  -0.161  28.242  1.00  0.00     0.185 HD
HETATM    3  C5  UNL     1      42.091  -1.627  29.547  1.00  0.00     0.676 C
HETATM    4  N3  UNL     1      40.804  -1.169  29.967  1.00  0.00    -0.222 N
ATOM      5  H3  UNL     1      40.018  -1.277  29.326  1.00  0.00     0.178 HD
HETATM    6  N4  UNL     1      42.652  -2.773  30.174  1.00  0.00    -0.222 N
ATOM      7  H4  UNL     1      43.180  -2.673  31.041  1.00  0.00     0.178 HD
ENDROOT
BRANCH   1   8
HETATM    8  C4  UNL     1      43.941  -1.270  28.074  1.00  0.00     0.115 C
HETATM    9  N1  UNL     1      44.947  -0.647  28.534  1.00  0.00    -0.385 N
ATOM     10  H12 UNL     1      45.863  -0.864  28.142  1.00  0.00     0.157 HD
ATOM     11  H11 UNL     1      44.839   0.048  29.272  1.00  0.00     0.157 HD
BRANCH   8  12
HETATM   12  C3  UNL     1      44.094  -2.255  27.029  1.00  0.00     0.062 C
HETATM   13  C2  UNL     1      44.044  -2.023  25.759  1.00  0.00    -0.012 C
HETATM   14  C1  UNL     1      43.818  -0.697  25.177  1.00  0.00     0.056 C
HETATM   15 BR1  UNL     1      44.273  -3.486  24.535  1.00  0.00    -0.056 Br
ENDBRANCH   8  12
ENDBRANCH   1   8
BRANCH   4  16
HETATM   16  C6  UNL     1      40.564  -0.563  31.250  1.00  0.00     0.099 C
HETATM   17  C7  UNL     1      39.372   0.338  31.281  1.00  0.00     0.026 C
HETATM   18  C8  UNL     1      38.144  -0.313  31.877  1.00  0.00     0.002 C
HETATM   19  C9  UNL     1      38.161  -1.773  31.467  1.00  0.00     0.000 C
HETATM   20  C10 UNL     1      39.253  -2.446  32.257  1.00  0.00     0.002 C
HETATM   21  C11 UNL     1      40.519  -1.648  32.296  1.00  0.00     0.026 C
ENDBRANCH   4  16
BRANCH   6  22
HETATM   22  C12 UNL     1      42.473  -4.092  29.574  1.00  0.00     0.099 C
HETATM   23  C13 UNL     1      43.555  -5.044  30.035  1.00  0.00     0.026 C
HETATM   24  C14 UNL     1      42.828  -6.387  29.890  1.00  0.00     0.002 C
HETATM   25  C15 UNL     1      41.533  -6.071  30.608  1.00  0.00     0.002 C
HETATM   26  C16 UNL     1      41.160  -4.725  29.996  1.00  0.00     0.026 C
ENDBRANCH   6  22
TORSDOF 4
ENDMDL