MODEL 2
REMARK VINA RESULT: -7.292440338      1.557      2.318
REMARK  8 active torsions:
REMARK  status: ('A' for Active; 'I' for Inactive)
REMARK    1  A    between atoms: C6_6  and  C7_7
REMARK    2  A    between atoms: C7_7  and  N1_8
REMARK    3  A    between atoms: N1_8  and  C8_10
REMARK    4  A    between atoms: C8_10  and  N2_12
REMARK    5  A    between atoms: N2_12  and  N3_14
REMARK    6  A    between atoms: N3_14  and  C9_16
REMARK    7  A    between atoms: C9_16  and  N4_18
REMARK    8  A    between atoms: N4_18  and  C10_20
ROOT
HETATM    1  C8  UNL     1      43.315  -0.323  32.635  1.00  0.00     0.186 C
HETATM    2  S1  UNL     1      41.977  -0.554  33.508  1.00  0.00    -0.040 SA
ENDROOT
BRANCH   1   3
HETATM    3  N1  UNL     1      43.338  -0.602  31.248  1.00  0.00    -0.362 N
ATOM      4  H1  UNL     1      43.375   0.171  30.584  1.00  0.00     0.162 HD
BRANCH   3   5
HETATM    5  C7  UNL     1      43.310  -1.958  30.751  1.00  0.00     0.161 C
BRANCH   5   6
HETATM    6  C6  UNL     1      43.491  -2.126  29.320  1.00  0.00    -0.032 A
HETATM    7  C4  UNL     1      43.637  -3.445  28.863  1.00  0.00    -0.053 A
HETATM    8  C3  UNL     1      43.817  -3.736  27.529  1.00  0.00     0.017 A
HETATM    9  C5  UNL     1      43.598  -4.542  29.833  1.00  0.00     0.049 C
HETATM   10  C2  UNL     1      43.860  -2.726  26.584  1.00  0.00    -0.023 A
HETATM   11  C1  UNL     1      44.050  -2.950  25.141  1.00  0.00     0.051 C
HETATM   12  C17 UNL     1      43.717  -1.412  27.016  1.00  0.00     0.122 A
HETATM   13  C16 UNL     1      43.537  -1.143  28.367  1.00  0.00     0.052 A
HETATM   14  F1  UNL     1      43.746  -0.370  26.171  1.00  0.00    -0.206 F
ENDBRANCH   5   6
ENDBRANCH   3   5
ENDBRANCH   1   3
BRANCH   1  15
HETATM   15  N2  UNL     1      44.490   0.168  33.261  1.00  0.00    -0.274 N
ATOM     16  H2  UNL     1      45.332  -0.406  33.295  1.00  0.00     0.189 HD
BRANCH  15  17
HETATM   17  N3  UNL     1      44.483   1.441  33.829  1.00  0.00    -0.274 N
ATOM     18  H3  UNL     1      44.213   2.195  33.198  1.00  0.00     0.189 HD
BRANCH  17  19
HETATM   19  C9  UNL     1      44.786   1.833  35.110  1.00  0.00     0.186 C
HETATM   20  S2  UNL     1      43.537   2.603  35.939  1.00  0.00    -0.040 SA
BRANCH  19  21
HETATM   21  N4  UNL     1      45.956   1.696  35.826  1.00  0.00    -0.361 N
ATOM     22  H4  UNL     1      46.539   2.532  35.868  1.00  0.00     0.162 HD
BRANCH  21  23
HETATM   23  C10 UNL     1      46.477   0.550  36.521  1.00  0.00     0.083 C
HETATM   24  C11 UNL     1      47.525  -0.210  35.792  1.00  0.00     0.025 C
HETATM   25  C12 UNL     1      48.917  -0.083  36.291  1.00  0.00     0.002 C
HETATM   26  C13 UNL     1      49.103  -0.190  37.765  1.00  0.00     0.000 C
HETATM   27  C14 UNL     1      47.807  -0.102  38.535  1.00  0.00     0.002 C
HETATM   28  C15 UNL     1      46.924   0.962  37.919  1.00  0.00     0.025 C
ENDBRANCH  21  23
ENDBRANCH  19  21
ENDBRANCH  17  19
ENDBRANCH  15  17
ENDBRANCH   1  15
TORSDOF 8
ENDMDL