MODEL 2
REMARK VINA RESULT: -7.914526630      0.816      1.109
REMARK  2 active torsions:
REMARK  status: ('A' for Active; 'I' for Inactive)
REMARK       I    between atoms: N4_11  and  C5_13
REMARK       I    between atoms: C5_13  and  N5_15
REMARK    1  A    between atoms: N5_15  and  C6_17
REMARK    2  A    between atoms: C6_17  and  C7_18
ROOT
HETATM    1  C1  UNL     1      44.111  -4.115  25.711  1.00  0.00     0.070 C
HETATM    2  C2  UNL     1      43.964  -2.983  26.670  1.00  0.00     0.025 A
HETATM    3  N1  UNL     1      44.217  -1.681  26.473  1.00  0.00    -0.343 N
ATOM      4  H1  UNL     1      44.559  -1.285  25.598  1.00  0.00     0.167 HD
HETATM    5  C3  UNL     1      43.956  -0.959  27.595  1.00  0.00     0.136 A
HETATM    6  N2  UNL     1      43.945   0.255  28.167  1.00  0.00    -0.283 N
ATOM      7  H2  UNL     1      44.225   1.112  27.689  1.00  0.00     0.188 HD
HETATM    8  N3  UNL     1      43.531   0.209  29.417  1.00  0.00    -0.283 N
ATOM      9  H3  UNL     1      43.438   0.999  30.057  1.00  0.00     0.188 HD
HETATM   10  C4  UNL     1      43.258  -1.071  29.688  1.00  0.00     0.139 A
HETATM   11  N4  UNL     1      42.829  -1.521  30.803  1.00  0.00    -0.293 N
ATOM     12  H4  UNL     1      42.642  -2.515  30.938  1.00  0.00     0.172 HD
HETATM   13  C5  UNL     1      42.620  -0.562  31.871  1.00  0.00     0.325 C
HETATM   14  O1  UNL     1      41.458  -0.146  31.955  1.00  0.00    -0.247 OA
HETATM   15  N5  UNL     1      43.714  -0.221  32.666  1.00  0.00    -0.322 N
ATOM     16  H5  UNL     1      44.577  -0.688  32.388  1.00  0.00     0.169 HD
HETATM   17  C13 UNL     1      43.511  -1.839  28.569  1.00  0.00     0.074 A
HETATM   18  C14 UNL     1      43.525  -3.082  27.974  1.00  0.00     0.051 A
HETATM   19 BR1  UNL     1      42.994  -4.684  28.890  1.00  0.00    -0.048 Br
ENDROOT
BRANCH  15  20
HETATM   20  C6  UNL     1      43.874   0.633  33.773  1.00  0.00     0.070 C
BRANCH  20  21
HETATM   21  C7  UNL     1      44.277  -0.027  35.042  1.00  0.00     0.024 C
HETATM   22  C8  UNL     1      45.685   0.444  35.448  1.00  0.00     0.010 C
HETATM   23  C9  UNL     1      45.645   1.414  36.609  1.00  0.00     0.001 C
HETATM   24  C10 UNL     1      45.083   0.733  37.849  1.00  0.00     0.000 C
HETATM   25  C11 UNL     1      44.161  -0.403  37.440  1.00  0.00     0.001 C
HETATM   26  C12 UNL     1      43.382   0.101  36.203  1.00  0.00     0.010 C
ENDBRANCH  20  21
ENDBRANCH  15  20
TORSDOF 2
ENDMDL