MODEL 2
REMARK VINA RESULT: -7.107393776      0.825      1.007
REMARK  5 active torsions:
REMARK  status: ('A' for Active; 'I' for Inactive)
REMARK    1  A    between atoms: C3_3  and  N1_4
REMARK       I    between atoms: N1_4  and  C4_6
REMARK       I    between atoms: C4_6  and  N2_8
REMARK    2  A    between atoms: N2_8  and  C5_10
REMARK    3  A    between atoms: C5_10  and  C7_13
REMARK    4  A    between atoms: C7_13  and  C8_14
REMARK    5  A    between atoms: N4_23  and  C15_25
ROOT
HETATM    1  C1  UNL     1      42.880  -2.695  31.980  1.00  0.00     0.054 C
HETATM    2  C2  UNL     1      42.808  -3.002  30.529  1.00  0.00     0.011 A
HETATM    3  C3  UNL     1      42.331  -4.205  30.084  1.00  0.00     0.117 A
HETATM    4  N3  UNL     1      42.301  -4.400  28.757  1.00  0.00    -0.351 N
ATOM      5  H3  UNL     1      41.949  -5.288  28.395  1.00  0.00     0.166 HD
HETATM    6  C12 UNL     1      42.720  -3.461  27.886  1.00  0.00     0.107 A
HETATM    7  C13 UNL     1      43.205  -2.244  28.311  1.00  0.00     0.053 A
HETATM    8  C14 UNL     1      43.692  -1.117  27.686  1.00  0.00     0.130 A
HETATM    9  N4  UNL     1      43.851  -0.841  26.482  1.00  0.00    -0.371 N
ATOM     10  H4  UNL     1      44.240   0.093  26.349  1.00  0.00     0.161 HD
HETATM   11  N5  UNL     1      44.021  -0.227  28.680  1.00  0.00    -0.284 N
ATOM     12  H5  UNL     1      44.410   0.706  28.541  1.00  0.00     0.188 HD
HETATM   13  N6  UNL     1      43.751  -0.776  29.831  1.00  0.00    -0.298 N
ATOM     14  H6  UNL     1      43.899  -0.332  30.737  1.00  0.00     0.187 HD
HETATM   15  C18 UNL     1      43.252  -2.005  29.656  1.00  0.00     0.073 A
ENDROOT
BRANCH   3  16
HETATM   16  N1  UNL     1      41.941  -5.073  30.931  1.00  0.00    -0.294 N
HETATM   17  C4  UNL     1      42.219  -6.467  30.821  1.00  0.00     0.324 C
HETATM   18  O1  UNL     1      41.690  -7.105  29.853  1.00  0.00    -0.247 OA
HETATM   19  N2  UNL     1      43.060  -7.106  31.768  1.00  0.00    -0.307 N
ATOM     20  H2  UNL     1      43.463  -6.549  32.522  1.00  0.00     0.167 HD
ATOM     21  H1  UNL     1      41.400  -4.752  31.734  1.00  0.00     0.172 HD
BRANCH  19  22
HETATM   22  C5  UNL     1      43.375  -8.547  31.703  1.00  0.00     0.176 C
HETATM   23  C6  UNL     1      42.202  -9.236  32.322  1.00  0.00     0.076 C
HETATM   24  F1  UNL     1      43.513  -8.822  30.358  1.00  0.00    -0.220 F
BRANCH  22  25
HETATM   25  C7  UNL     1      44.606  -8.756  32.486  1.00  0.00     0.074 C
BRANCH  25  26
HETATM   26  C8  UNL     1      45.581  -9.769  32.036  1.00  0.00    -0.047 C
HETATM   27  C9  UNL     1      45.089 -11.124  31.692  1.00  0.00     0.014 C
HETATM   28  C10 UNL     1      46.560  -9.968  33.213  1.00  0.00     0.014 C
HETATM   29  C11 UNL     1      46.441  -9.212  30.902  1.00  0.00     0.014 C
ENDBRANCH  25  26
ENDBRANCH  22  25
ENDBRANCH  19  22
ENDBRANCH   3  16
BRANCH   9  30
HETATM   30  C15 UNL     1      43.626  -1.499  25.269  1.00  0.00     0.075 C
HETATM   31  C16 UNL     1      44.681  -2.604  25.090  1.00  0.00     0.031 C
HETATM   32  C17 UNL     1      43.806  -0.523  24.117  1.00  0.00     0.031 C
ENDBRANCH   9  30
TORSDOF 5
ENDMDL