MODEL 5
REMARK VINA RESULT: -6.244816087      2.905      6.680
REMARK  2 active torsions:
REMARK  status: ('A' for Active; 'I' for Inactive)
REMARK       I    between atoms: N1_2  and  C2_4
REMARK       I    between atoms: C2_4  and  N3_8
REMARK       I    between atoms: C3_10  and  N4_11
REMARK       I    between atoms: C3_10  and  N5_20
REMARK    1  A    between atoms: N4_11  and  C4_13
REMARK    2  A    between atoms: N5_20  and  C10_22
ROOT
HETATM    1  C1  UNL     1      43.969  -2.022  27.811  1.00  0.00     0.165 C
HETATM    2  N1  UNL     1      43.247  -2.809  28.820  1.00  0.00    -0.230 N
ATOM      3  H1  UNL     1      43.382  -2.595  29.809  1.00  0.00     0.177 HD
HETATM    4  C2  UNL     1      42.368  -3.859  28.450  1.00  0.00     0.685 C
HETATM    5  N2  UNL     1      42.726  -4.559  27.409  1.00  0.00    -0.234 N
ATOM      6  H21 UNL     1      42.093  -5.314  27.144  1.00  0.00     0.174 HD
ATOM      7  H22 UNL     1      43.583  -4.384  26.885  1.00  0.00     0.174 HD
HETATM    8  N3  UNL     1      41.199  -4.098  29.165  1.00  0.00    -0.023 N
ATOM      9  H3  UNL     1      40.351  -3.808  28.677  1.00  0.00     0.203 HD
HETATM   10  C3  UNL     1      40.989  -4.603  30.295  1.00  0.00     0.689 C
HETATM   11  N4  UNL     1      42.035  -5.062  31.123  1.00  0.00    -0.221 N
ATOM     12  H4  UNL     1      42.047  -4.733  32.089  1.00  0.00     0.178 HD
HETATM   13  N5  UNL     1      39.650  -4.726  30.773  1.00  0.00    -0.216 N
ATOM     14  H5  UNL     1      39.363  -5.646  31.108  1.00  0.00     0.178 HD
ENDROOT
BRANCH  11  15
HETATM   15  C4  UNL     1      43.093  -5.960  30.713  1.00  0.00     0.102 C
HETATM   16  C5  UNL     1      42.530  -7.296  30.319  1.00  0.00     0.026 C
HETATM   17  C6  UNL     1      43.199  -8.484  30.900  1.00  0.00     0.005 C
HETATM   18  C7  UNL     1      44.692  -8.402  31.000  1.00  0.00     0.037 C
HETATM   19  C8  UNL     1      45.192  -7.018  31.315  1.00  0.00     0.172 C
HETATM   20  F1  UNL     1      46.303  -7.021  32.118  1.00  0.00    -0.249 F
HETATM   21  C9  UNL     1      44.029  -6.245  31.907  1.00  0.00     0.062 C
ENDBRANCH  11  15
BRANCH  13  22
HETATM   22  C10 UNL     1      38.671  -3.686  30.827  1.00  0.00     0.055 C
HETATM   23  C11 UNL     1      37.433  -4.233  30.092  1.00  0.00     0.037 C
HETATM   24  C12 UNL     1      36.278  -3.294  30.116  1.00  0.00    -0.012 C
HETATM   25  C13 UNL     1      36.696  -2.015  29.424  1.00  0.00     0.009 C
HETATM   26  C17 UNL     1      35.847  -3.018  31.522  1.00  0.00     0.010 C
HETATM   27  C14 UNL     1      37.887  -1.451  30.168  1.00  0.00    -0.012 C
HETATM   28  C15 UNL     1      37.445  -1.181  31.577  1.00  0.00     0.010 C
HETATM   29  C21 UNL     1      39.038  -2.426  30.095  1.00  0.00     0.037 C
HETATM   30  C16 UNL     1      37.028  -2.465  32.260  1.00  0.00    -0.004 C
HETATM   31  C18 UNL     1      38.213  -3.401  32.247  1.00  0.00    -0.018 C
HETATM   32  C19 UNL     1      39.281  -2.724  33.077  1.00  0.00     0.018 C
HETATM   33  C20 UNL     1      37.884  -4.720  32.915  1.00  0.00     0.018 C
ENDBRANCH  13  22
TORSDOF 2
ENDMDL