MODEL 1
REMARK VINA RESULT: -6.342674655      0.000      0.000
REMARK  2 active torsions:
REMARK  status: ('A' for Active; 'I' for Inactive)
REMARK    1  A    between atoms: C2_2  and  N1_3
REMARK       I    between atoms: N4_13  and  C7_15
REMARK       I    between atoms: C7_15  and  N6_19
REMARK    2  A    between atoms: N6_19  and  C8_21
ROOT
HETATM    1  N1  UNL     1      39.833  -4.383  31.164  1.00  0.00    -0.364 N
HETATM    2  C3  UNL     1      38.621  -4.243  31.731  1.00  0.00     0.112 A
HETATM    3  C4  UNL     1      38.085  -3.010  32.033  1.00  0.00     0.055 A
HETATM    4 BR1  UNL     1      36.364  -2.864  32.837  1.00  0.00    -0.047 Br
HETATM    5  C5  UNL     1      38.792  -1.858  31.755  1.00  0.00     0.082 A
HETATM    6  N2  UNL     1      38.561  -0.545  31.919  1.00  0.00    -0.297 N
ATOM      7  H2  UNL     1      37.713  -0.154  32.330  1.00  0.00     0.187 HD
HETATM    8  N3  UNL     1      39.572   0.169  31.480  1.00  0.00    -0.284 N
ATOM      9  H3  UNL     1      39.645   1.186  31.489  1.00  0.00     0.188 HD
HETATM   10  C6  UNL     1      40.510  -0.712  31.008  1.00  0.00     0.149 A
HETATM   11  N4  UNL     1      41.592  -0.323  30.524  1.00  0.00    -0.175 N
ATOM     12  H4  UNL     1      41.690   0.693  30.522  1.00  0.00     0.186 HD
HETATM   13  C7  UNL     1      42.692  -0.981  29.985  1.00  0.00     0.673 C
HETATM   14  N5  UNL     1      43.722  -1.331  30.694  1.00  0.00    -0.235 N
ATOM     15  H51 UNL     1      44.529  -1.814  30.298  1.00  0.00     0.174 HD
ATOM     16  H52 UNL     1      43.719  -1.125  31.692  1.00  0.00     0.174 HD
HETATM   17  N6  UNL     1      42.696  -1.268  28.590  1.00  0.00    -0.222 N
ATOM     18  H6  UNL     1      41.841  -1.064  28.072  1.00  0.00     0.178 HD
HETATM   19  C14 UNL     1      40.035  -1.989  31.174  1.00  0.00     0.055 A
HETATM   20  C15 UNL     1      40.521  -3.260  30.893  1.00  0.00     0.108 A
ENDROOT
BRANCH  17  21
HETATM   21  C8  UNL     1      43.790  -1.818  27.848  1.00  0.00     0.099 C
HETATM   22  C9  UNL     1      43.722  -1.331  26.389  1.00  0.00     0.026 C
HETATM   23  C10 UNL     1      44.850  -1.956  25.634  1.00  0.00     0.002 C
HETATM   24  C11 UNL     1      44.472  -3.422  25.400  1.00  0.00     0.000 C
HETATM   25  C12 UNL     1      43.447  -3.863  26.414  1.00  0.00     0.002 C
HETATM   26  C13 UNL     1      43.716  -3.335  27.788  1.00  0.00     0.026 C
ENDBRANCH  17  21
BRANCH   1  27
HETATM   27  C2  UNL     1      40.359  -5.709  30.863  1.00  0.00     0.123 C
HETATM   28  C1  UNL     1      41.466  -5.658  29.840  1.00  0.00     0.027 C
ENDBRANCH   1  27
TORSDOF 2
ENDMDL