MODEL 5
REMARK VINA RESULT: -7.438702091      1.821      2.226
REMARK  3 active torsions:
REMARK  status: ('A' for Active; 'I' for Inactive)
REMARK    1  A    between atoms: C2_2  and  N1_3
REMARK       I    between atoms: N1_3  and  C3_5
REMARK       I    between atoms: C3_5  and  N2_7
REMARK    2  A    between atoms: N2_7  and  C4_9
REMARK    3  A    between atoms: C4_9  and  C5_10
ROOT
HETATM    1  C5  UNL     1      42.398  -4.461  29.462  1.00  0.00     0.087 C
HETATM    2  C6  UNL     1      42.944  -4.142  28.136  1.00  0.00    -0.100 C
HETATM    3  C7  UNL     1      43.366  -3.848  27.181  1.00  0.00    -0.106 C
HETATM    4  C8  UNL     1      43.911  -3.410  25.995  1.00  0.00     0.094 C
HETATM    5  C9  UNL     1      44.507  -2.033  25.937  1.00  0.00     0.014 C
HETATM    6  C10 UNL     1      43.943  -0.924  26.713  1.00  0.00     0.020 C
HETATM    7  C11 UNL     1      44.500  -0.518  28.004  1.00  0.00     0.114 C
HETATM    8  N3  UNL     1      43.559  -0.214  29.096  1.00  0.00    -0.417 N
ATOM      9  H3  UNL     1      43.060   0.668  29.206  1.00  0.00     0.153 HD
HETATM   10  C12 UNL     1      43.450  -1.267  29.931  1.00  0.00     0.081 C
HETATM   11  C13 UNL     1      43.244  -1.379  31.383  1.00  0.00     0.030 C
HETATM   12  C14 UNL     1      42.792  -2.873  31.581  1.00  0.00    -0.002 C
HETATM   13  C15 UNL     1      41.459  -3.046  32.081  1.00  0.00    -0.003 C
HETATM   14  C16 UNL     1      41.063  -2.998  33.478  1.00  0.00     0.042 C
HETATM   15  C17 UNL     1      39.532  -2.871  33.336  1.00  0.00     0.171 C
HETATM   16  F1  UNL     1      39.058  -1.823  34.070  1.00  0.00    -0.249 F
HETATM   17  C18 UNL     1      39.282  -2.519  31.856  1.00  0.00     0.042 C
HETATM   18  C19 UNL     1      40.640  -1.861  31.555  1.00  0.00    -0.007 C
HETATM   19  C20 UNL     1      40.992  -1.626  30.187  1.00  0.00     0.012 C
HETATM   20  C21 UNL     1      42.239  -2.122  29.559  1.00  0.00     0.014 C
HETATM   21  C22 UNL     1      42.876  -3.354  30.232  1.00  0.00     0.013 C
ENDROOT
BRANCH   1  22
HETATM   22  C4  UNL     1      42.777  -5.849  29.849  1.00  0.00     0.142 C
BRANCH  22  23
HETATM   23  N2  UNL     1      41.615  -6.667  30.122  1.00  0.00    -0.342 N
HETATM   24  C3  UNL     1      41.805  -7.995  30.587  1.00  0.00     0.316 C
HETATM   25  N1  UNL     1      40.641  -8.775  30.846  1.00  0.00    -0.344 N
HETATM   26  O1  UNL     1      42.958  -8.456  30.760  1.00  0.00    -0.247 OA
ATOM     27  H1  UNL     1      39.716  -8.373  30.697  1.00  0.00     0.164 HD
ATOM     28  H2  UNL     1      40.676  -6.296  29.982  1.00  0.00     0.164 HD
BRANCH  25  29
HETATM   29  C2  UNL     1      40.769 -10.133  31.321  1.00  0.00     0.120 C
HETATM   30  C1  UNL     1      40.682 -11.129  30.171  1.00  0.00     0.026 C
ENDBRANCH  25  29
ENDBRANCH  22  23
ENDBRANCH   1  22
TORSDOF 3
ENDMDL