MODEL 1
REMARK VINA RESULT: -6.739359681      0.000      0.000
REMARK  3 active torsions:
REMARK  status: ('A' for Active; 'I' for Inactive)
REMARK    1  A    between atoms: C5_5  and  C6_6
REMARK    2  A    between atoms: C7_7  and  N1_8
REMARK       I    between atoms: N1_8  and  C8_10
REMARK    3  A    between atoms: C8_10  and  C9_12
REMARK       I    between atoms: N2_20  and  C17_21
ROOT
HETATM    1  C6  UNL     1      10.203   6.923  24.098  1.00  0.00     0.115 C
HETATM    2  C7  UNL     1       9.173   7.955  23.599  1.00  0.00     0.107 C
HETATM    3  C13 UNL     1       9.412   9.173  24.511  1.00  0.00     0.027 C
HETATM    4  C14 UNL     1      10.528  10.048  24.097  1.00  0.00     0.004 C
HETATM    5  C15 UNL     1      11.864   9.786  24.712  1.00  0.00     0.020 C
HETATM    6  C16 UNL     1      12.226   8.338  24.834  1.00  0.00     0.126 C
HETATM    7  N2  UNL     1      11.468   7.518  23.865  1.00  0.00    -0.349 N
HETATM    8  C17 UNL     1      12.184   7.433  22.658  1.00  0.00     0.184 C
HETATM    9  N3  UNL     1      11.769   7.813  21.498  1.00  0.00    -0.374 N
ATOM     10  H31 UNL     1      12.288   7.752  20.622  1.00  0.00     0.158 HD
ATOM     11  H32 UNL     1      10.828   8.205  21.470  1.00  0.00     0.158 HD
HETATM   12  N4  UNL     1      13.487   6.890  22.697  1.00  0.00    -0.064 NA
ENDROOT
BRANCH   1  13
HETATM   13  C5  UNL     1       9.912   5.553  23.728  1.00  0.00     0.036 C
HETATM   14  C4  UNL     1       8.976   4.871  24.744  1.00  0.00     0.010 C
HETATM   15  C3  UNL     1       8.339   3.650  24.108  1.00  0.00     0.033 C
HETATM   16  C2  UNL     1       9.478   2.704  23.778  1.00  0.00     0.181 C
HETATM   17  C1  UNL     1       9.010   1.442  23.141  1.00  0.00     0.040 C
HETATM   18  N5  UNL     1      10.363   3.377  22.870  1.00  0.00    -0.071 N
HETATM   19  C18 UNL     1      10.979   4.565  23.474  1.00  0.00     0.239 C
ATOM     20  H52 UNL     1      11.071   2.739  22.504  1.00  0.00     0.277 HD
ATOM     21  H51 UNL     1       9.890   3.610  21.997  1.00  0.00     0.277 HD
ENDBRANCH   1  13
BRANCH   2  22
HETATM   22  N1  UNL     1       7.823   7.538  23.819  1.00  0.00    -0.354 N
HETATM   23  C8  UNL     1       6.952   7.058  22.812  1.00  0.00     0.222 C
HETATM   24  O1  UNL     1       7.390   6.994  21.642  1.00  0.00    -0.273 OA
ATOM     25  H1  UNL     1       7.461   7.589  24.771  1.00  0.00     0.162 HD
BRANCH  23  26
HETATM   26  C9  UNL     1       5.558   6.627  23.043  1.00  0.00     0.082 A
HETATM   27  C10 UNL     1       4.540   7.761  23.379  1.00  0.00     0.019 A
HETATM   28  C11 UNL     1       4.977   6.784  24.386  1.00  0.00    -0.005 A
HETATM   29  C12 UNL     1       3.937   5.842  24.929  1.00  0.00     0.011 C
ENDBRANCH  23  26
ENDBRANCH   2  22
TORSDOF 3
ENDMDL