MODEL 1
REMARK VINA RESULT: -6.538059202      0.000      0.000
REMARK  8 active torsions:
REMARK  status: ('A' for Active; 'I' for Inactive)
REMARK    1  A    between atoms: C1_2  and  N1_3
REMARK    2  A    between atoms: C1_2  and  N2_12
REMARK    3  A    between atoms: N1_3  and  C2_5
REMARK    4  A    between atoms: C2_5  and  C3_6
REMARK    5  A    between atoms: N2_12  and  N3_14
REMARK    6  A    between atoms: N3_14  and  C9_16
REMARK    7  A    between atoms: C9_16  and  N4_18
REMARK    8  A    between atoms: N4_18  and  C10_20
ROOT
HETATM    1  N2  UNL     1      11.012   6.356  23.101  1.00  0.00    -0.274 N
ATOM      2  H2  UNL     1      11.264   5.384  23.283  1.00  0.00     0.189 HD
ENDROOT
BRANCH   1   3
HETATM    3  C1  UNL     1      12.044   7.344  22.900  1.00  0.00     0.186 C
HETATM    4  S1  UNL     1      12.672   8.111  24.191  1.00  0.00    -0.040 SA
BRANCH   3   5
HETATM    5  N1  UNL     1      12.475   7.653  21.594  1.00  0.00    -0.366 N
ATOM      6  H1  UNL     1      12.110   7.120  20.805  1.00  0.00     0.161 HD
BRANCH   5   7
HETATM    7  C2  UNL     1      13.418   8.704  21.361  1.00  0.00     0.126 C
BRANCH   7   8
HETATM    8  C3  UNL     1      12.862   9.667  20.334  1.00  0.00     0.003 C
HETATM    9  C4  UNL     1      12.078  10.710  21.143  1.00  0.00     0.006 C
HETATM   10  C5  UNL     1      11.499  11.781  20.261  1.00  0.00     0.000 C
HETATM   11  C6  UNL     1      12.508  12.162  19.189  1.00  0.00     0.000 C
HETATM   12  C7  UNL     1      13.915  11.774  19.647  1.00  0.00     0.000 C
HETATM   13  C8  UNL     1      14.035  10.286  19.604  1.00  0.00     0.006 C
ENDBRANCH   7   8
ENDBRANCH   5   7
ENDBRANCH   3   5
ENDBRANCH   1   3
BRANCH   1  14
HETATM   14  N3  UNL     1       9.654   6.737  23.045  1.00  0.00    -0.274 N
ATOM     15  H3  UNL     1       9.367   7.706  23.181  1.00  0.00     0.189 HD
BRANCH  14  16
HETATM   16  C9  UNL     1       8.705   5.711  22.792  1.00  0.00     0.186 C
HETATM   17  S2  UNL     1       7.133   6.171  22.735  1.00  0.00    -0.040 SA
BRANCH  16  18
HETATM   18  N4  UNL     1       9.067   4.356  22.586  1.00  0.00    -0.361 N
ATOM     19  H4  UNL     1       9.546   4.122  21.716  1.00  0.00     0.162 HD
BRANCH  18  20
HETATM   20  C10 UNL     1       8.810   3.293  23.506  1.00  0.00     0.083 C
HETATM   21  C11 UNL     1       9.886   2.210  23.320  1.00  0.00     0.025 C
HETATM   22  C12 UNL     1       9.275   0.916  23.798  1.00  0.00     0.002 C
HETATM   23  C13 UNL     1       8.328   1.213  24.913  1.00  0.00     0.000 C
HETATM   24  C14 UNL     1       8.706   2.394  25.762  1.00  0.00     0.002 C
HETATM   25  C15 UNL     1       8.894   3.669  24.960  1.00  0.00     0.025 C
ENDBRANCH  18  20
ENDBRANCH  16  18
ENDBRANCH  14  16
ENDBRANCH   1  14
TORSDOF 8
ENDMDL