MODEL 3
REMARK VINA RESULT: -6.850193412      2.662      4.496
REMARK  3 active torsions:
REMARK  status: ('A' for Active; 'I' for Inactive)
REMARK       I    between atoms: N1_2  and  C2_4
REMARK       I    between atoms: C2_4  and  N2_6
REMARK    1  A    between atoms: N2_6  and  C3_8
REMARK    2  A    between atoms: C7_12  and  N3_13
REMARK       I    between atoms: N3_13  and  C8_15
REMARK       I    between atoms: C8_15  and  N4_17
REMARK    3  A    between atoms: N4_17  and  C9_19
ROOT
HETATM    1  N3  UNL     1       7.530   3.749  25.591  1.00  0.00    -0.337 N
ATOM      2  H3  UNL     1       6.972   4.012  24.778  1.00  0.00     0.164 HD
HETATM    3  C8  UNL     1       7.196   4.321  26.842  1.00  0.00     0.317 C
HETATM    4  O2  UNL     1       7.866   4.013  27.850  1.00  0.00    -0.247 OA
HETATM    5  N4  UNL     1       6.129   5.230  26.988  1.00  0.00    -0.334 N
ATOM      6  H4  UNL     1       5.593   5.469  26.154  1.00  0.00     0.165 HD
ENDROOT
BRANCH   1   7
HETATM    7  C7  UNL     1       8.613   2.817  25.403  1.00  0.00     0.109 C
HETATM    8  C3  UNL     1       9.210   2.978  24.018  1.00  0.00     0.109 C
HETATM    9  C4  UNL     1       9.364   1.606  23.448  1.00  0.00     0.027 C
HETATM   10  C5  UNL     1       9.044   0.641  24.572  1.00  0.00     0.004 C
HETATM   11  C6  UNL     1       8.023   1.422  25.373  1.00  0.00     0.027 C
BRANCH   8  12
HETATM   12  N2  UNL     1       8.403   3.848  23.194  1.00  0.00    -0.337 N
HETATM   13  C2  UNL     1       8.524   5.245  23.173  1.00  0.00     0.316 C
HETATM   14  N1  UNL     1       7.746   6.108  22.377  1.00  0.00    -0.347 N
HETATM   15  O1  UNL     1       9.409   5.759  23.937  1.00  0.00    -0.247 OA
HETATM   16  C1  UNL     1       7.883   7.547  22.367  1.00  0.00     0.151 C
ATOM     17  H1  UNL     1       7.041   5.692  21.769  1.00  0.00     0.163 HD
ATOM     18  H2  UNL     1       7.702   3.419  22.590  1.00  0.00     0.164 HD
ENDBRANCH   8  12
ENDBRANCH   1   7
BRANCH   5  19
HETATM   19  C9  UNL     1       5.740   5.847  28.241  1.00  0.00     0.035 C
HETATM   20  C10 UNL     1       6.515   5.345  29.421  1.00  0.00     0.035 C
HETATM   21  C11 UNL     1       5.933   5.877  30.697  1.00  0.00    -0.012 C
HETATM   22  C12 UNL     1       6.120   7.385  30.705  1.00  0.00     0.009 C
HETATM   23  C16 UNL     1       4.488   5.521  30.811  1.00  0.00     0.009 C
HETATM   24  C13 UNL     1       5.399   7.939  29.495  1.00  0.00    -0.012 C
HETATM   25  C14 UNL     1       3.932   7.689  29.688  1.00  0.00     0.009 C
HETATM   26  C18 UNL     1       5.928   7.363  28.197  1.00  0.00     0.035 C
HETATM   27  C15 UNL     1       3.727   6.192  29.693  1.00  0.00    -0.012 C
HETATM   28  C17 UNL     1       4.246   5.641  28.398  1.00  0.00     0.035 C
ENDBRANCH   5  19
TORSDOF 3
ENDMDL