MODEL 4
REMARK VINA RESULT: -6.377141904      1.695      2.652
REMARK  3 active torsions:
REMARK  status: ('A' for Active; 'I' for Inactive)
REMARK    1  A    between atoms: C5_5  and  N1_6
REMARK       I    between atoms: N1_6  and  C6_8
REMARK       I    between atoms: C6_8  and  N3_12
REMARK    2  A    between atoms: C9_15  and  N4_16
REMARK       I    between atoms: N4_16  and  C10_18
REMARK       I    between atoms: C10_18  and  N5_20
REMARK    3  A    between atoms: N5_20  and  C11_22
ROOT
HETATM    1  N1  UNL     1      13.014  10.012  21.875  1.00  0.00    -0.222 N
ATOM      2  H1  UNL     1      13.678   9.291  22.159  1.00  0.00     0.178 HD
HETATM    3  C6  UNL     1      11.677   9.988  22.353  1.00  0.00     0.670 C
HETATM    4  N2  UNL     1      11.099  11.128  22.546  1.00  0.00    -0.235 N
ATOM      5  H21 UNL     1      10.139  11.111  22.890  1.00  0.00     0.174 HD
ATOM      6  H22 UNL     1      11.583  12.008  22.364  1.00  0.00     0.174 HD
HETATM    7  N3  UNL     1      10.995   8.748  22.610  1.00  0.00    -0.218 N
HETATM    8  C7  UNL     1       9.578   8.790  22.711  1.00  0.00     0.143 C
HETATM    9  C8  UNL     1       8.885   7.520  22.955  1.00  0.00     0.045 C
HETATM   10  C9  UNL     1       9.703   6.285  22.955  1.00  0.00     0.089 C
HETATM   11  C14 UNL     1      11.104   6.457  23.477  1.00  0.00     0.045 C
HETATM   12  C15 UNL     1      11.818   7.566  22.744  1.00  0.00     0.143 C
ENDROOT
BRANCH   1  13
HETATM   13  C5  UNL     1      13.417  11.059  20.991  1.00  0.00     0.099 C
HETATM   14  C4  UNL     1      12.728  11.000  19.638  1.00  0.00     0.026 C
HETATM   15  C3  UNL     1      12.974  12.332  18.965  1.00  0.00     0.006 C
HETATM   16  C2  UNL     1      14.032  13.147  19.641  1.00  0.00    -0.019 C
HETATM   17  C1  UNL     1      14.503  14.200  18.627  1.00  0.00     0.010 C
HETATM   18  C17 UNL     1      15.239  12.366  20.047  1.00  0.00     0.006 C
HETATM   19  C16 UNL     1      14.904  11.047  20.710  1.00  0.00     0.026 C
ENDBRANCH   1  13
BRANCH  10  20
HETATM   20  N4  UNL     1       9.054   5.296  23.801  1.00  0.00    -0.338 N
HETATM   21  C10 UNL     1       9.428   3.936  23.818  1.00  0.00     0.316 C
HETATM   22  O1  UNL     1      10.358   3.506  23.089  1.00  0.00    -0.247 OA
HETATM   23  N5  UNL     1       8.742   3.034  24.674  1.00  0.00    -0.339 N
ATOM     24  H5  UNL     1       7.986   3.375  25.268  1.00  0.00     0.164 HD
ATOM     25  H4  UNL     1       8.293   5.599  24.410  1.00  0.00     0.164 HD
BRANCH  23  26
HETATM   26  C11 UNL     1       9.105   1.645  24.709  1.00  0.00     0.078 C
HETATM   27  C12 UNL     1       8.916   1.024  23.356  1.00  0.00     0.032 C
HETATM   28  C13 UNL     1       8.172   0.961  25.709  1.00  0.00     0.032 C
ENDBRANCH  23  26
ENDBRANCH  10  20
TORSDOF 3
ENDMDL