MODEL 5
REMARK VINA RESULT: -5.690766099      2.182      2.685
REMARK  4 active torsions:
REMARK  status: ('A' for Active; 'I' for Inactive)
REMARK    1  A    between atoms: C2_2  and  N1_3
REMARK       I    between atoms: N1_3  and  C3_5
REMARK       I    between atoms: C3_5  and  N3_9
REMARK       I    between atoms: C4_11  and  N4_12
REMARK       I    between atoms: C4_11  and  N5_22
REMARK    2  A    between atoms: N4_12  and  C5_14
REMARK    3  A    between atoms: C5_14  and  C6_15
REMARK    4  A    between atoms: C6_15  and  O1_16
ROOT
HETATM    1  N1  UNL     1      16.924  11.562  22.071  1.00  0.00    -0.226 N
ATOM      2  H1  UNL     1      16.672  11.612  21.085  1.00  0.00     0.177 HD
HETATM    3  C3  UNL     1      16.482  10.432  22.783  1.00  0.00     0.686 C
HETATM    4  N2  UNL     1      17.099   9.284  22.683  1.00  0.00    -0.234 N
ATOM      5  H21 UNL     1      16.779   8.465  23.200  1.00  0.00     0.174 HD
ATOM      6  H22 UNL     1      17.916   9.205  22.077  1.00  0.00     0.174 HD
HETATM    7  N3  UNL     1      15.353  10.541  23.621  1.00  0.00    -0.023 N
ATOM      8  H3  UNL     1      15.467  10.209  24.579  1.00  0.00     0.203 HD
HETATM    9  C4  UNL     1      14.208  11.008  23.316  1.00  0.00     0.691 C
HETATM   10  N4  UNL     1      13.200  11.030  24.309  1.00  0.00    -0.214 N
ATOM     11  H4  UNL     1      12.638  11.878  24.389  1.00  0.00     0.178 HD
HETATM   12  N5  UNL     1      13.919  11.494  22.044  1.00  0.00    -0.217 N
HETATM   13  C11 UNL     1      13.855  12.912  21.790  1.00  0.00     0.142 C
HETATM   14  C12 UNL     1      12.475  13.216  21.200  1.00  0.00     0.029 C
HETATM   15  C13 UNL     1      12.131  12.377  20.021  1.00  0.00    -0.045 C
HETATM   16  C14 UNL     1      11.894  13.239  18.774  1.00  0.00     0.015 C
HETATM   17  C15 UNL     1      10.814  11.658  20.265  1.00  0.00     0.015 C
HETATM   18  C16 UNL     1      13.232  11.409  19.709  1.00  0.00     0.029 C
HETATM   19  C17 UNL     1      13.667  10.608  20.934  1.00  0.00     0.142 C
ENDROOT
BRANCH  10  20
HETATM   20  C5  UNL     1      12.906   9.962  25.204  1.00  0.00     0.068 C
HETATM   21  C7  UNL     1      11.603  10.258  25.914  1.00  0.00     0.033 C
HETATM   22  C8  UNL     1      11.760   9.733  27.312  1.00  0.00     0.003 C
HETATM   23  C9  UNL     1      13.123   9.139  27.414  1.00  0.00     0.003 C
HETATM   24  C10 UNL     1      13.907   9.856  26.340  1.00  0.00     0.033 C
BRANCH  20  25
HETATM   25  C6  UNL     1      12.770   8.623  24.511  1.00  0.00     0.195 C
BRANCH  25  26
HETATM   26  O1  UNL     1      13.938   7.902  24.455  1.00  0.00    -0.398 OA
ATOM     27  H1  UNL     1      14.659   8.299  24.929  1.00  0.00     0.209 HD
ENDBRANCH  25  26
ENDBRANCH  20  25
ENDBRANCH  10  20
BRANCH   1  28
HETATM   28  C2  UNL     1      17.687  12.640  22.594  1.00  0.00     0.133 C
HETATM   29  C1  UNL     1      18.186  13.596  21.542  1.00  0.00     0.027 C
ENDBRANCH   1  28
TORSDOF 4
ENDMDL