MODEL 2
REMARK VINA RESULT: -6.843398923      1.312      1.575
REMARK  3 active torsions:
REMARK  status: ('A' for Active; 'I' for Inactive)
REMARK    1  A    between atoms: C2_2  and  N1_4
REMARK       I    between atoms: N1_4  and  C4_6
REMARK       I    between atoms: C4_6  and  N2_8
REMARK    2  A    between atoms: C7_11  and  C8_12
REMARK       I    between atoms: C8_12  and  N3_14
REMARK    3  A    between atoms: N3_14  and  C9_16
ROOT
HETATM    1  C8  UNL     1      10.113   6.568  23.162  1.00  0.00     0.222 C
HETATM    2  O2  UNL     1       9.272   7.048  22.335  1.00  0.00    -0.273 OA
HETATM    3  N3  UNL     1       9.867   5.274  23.686  1.00  0.00    -0.351 N
ATOM      4  H3  UNL     1      10.532   4.876  24.348  1.00  0.00     0.163 HD
ENDROOT
BRANCH   1   5
HETATM    5  C7  UNL     1      11.299   7.346  23.551  1.00  0.00     0.081 C
HETATM    6  C6  UNL     1      10.988   8.818  23.728  1.00  0.00     0.034 C
HETATM    7  C5  UNL     1      12.206   9.413  24.448  1.00  0.00     0.128 C
HETATM    8  N2  UNL     1      13.326   9.221  23.559  1.00  0.00    -0.334 N
HETATM    9  C4  UNL     1      14.568   9.797  23.869  1.00  0.00     0.318 C
HETATM   10  C16 UNL     1      13.214   8.449  22.348  1.00  0.00     0.128 C
HETATM   11  N1  UNL     1      14.708  10.569  25.065  1.00  0.00    -0.339 N
HETATM   12  O1  UNL     1      15.527   9.620  23.085  1.00  0.00    -0.247 OA
ATOM     13  H1  UNL     1      13.904  10.692  25.681  1.00  0.00     0.164 HD
HETATM   14  C15 UNL     1      12.364   7.222  22.496  1.00  0.00     0.034 C
BRANCH  11  15
HETATM   15  C2  UNL     1      15.969  11.174  25.413  1.00  0.00     0.078 C
HETATM   16  C1  UNL     1      16.191  10.972  26.907  1.00  0.00     0.032 C
HETATM   17  C3  UNL     1      16.088  12.602  25.006  1.00  0.00     0.032 C
ENDBRANCH  11  15
ENDBRANCH   1   5
BRANCH   3  18
HETATM   18  C9  UNL     1       8.711   4.506  23.312  1.00  0.00     0.138 C
HETATM   19  C10 UNL     1       7.534   4.693  24.211  1.00  0.00     0.032 C
HETATM   20  C11 UNL     1       7.711   4.168  25.597  1.00  0.00     0.008 C
HETATM   21  C12 UNL     1       8.728   3.085  25.745  1.00  0.00     0.061 C
HETATM   22  C13 UNL     1       9.055   2.379  24.485  1.00  0.00     0.051 A
HETATM   23  N4  UNL     1       9.401   1.254  23.846  1.00  0.00    -0.303 N
HETATM   24  C14 UNL     1       9.050   3.061  23.298  1.00  0.00     0.072 A
HETATM   25  N5  UNL     1       9.400   1.895  22.706  1.00  0.00    -0.301 N
ATOM     26  H4  UNL     1       9.588   0.292  24.131  1.00  0.00     0.186 HD
ATOM     27  H5  UNL     1       9.590   1.621  21.742  1.00  0.00     0.186 HD
ENDBRANCH   3  18
TORSDOF 3
ENDMDL