MODEL 2
REMARK VINA RESULT: -6.238488230      1.953      3.552
REMARK  4 active torsions:
REMARK  status: ('A' for Active; 'I' for Inactive)
REMARK       I    between atoms: C1_4  and  N3_6
REMARK    1  A    between atoms: C4_9  and  N4_10
REMARK       I    between atoms: N4_10  and  C5_12
REMARK    2  A    between atoms: C5_12  and  C6_14
REMARK    3  A    between atoms: C15_23  and  C16_24
REMARK    4  A    between atoms: C16_24  and  N5_25
ROOT
HETATM    1  C6  UNL     1      14.397  12.400  20.301  1.00  0.00     0.083 C
HETATM    2  C7  UNL     1      13.085  13.083  20.711  1.00  0.00     0.014 C
HETATM    3  C8  UNL     1      12.229  13.465  19.577  1.00  0.00     0.001 C
HETATM    4  C9  UNL     1      12.867  14.298  18.499  1.00  0.00     0.000 C
HETATM    5  C10 UNL     1      13.693  15.414  19.001  1.00  0.00     0.000 C
HETATM    6  C11 UNL     1      15.008  15.654  18.402  1.00  0.00     0.000 C
HETATM    7  C12 UNL     1      15.859  14.561  17.955  1.00  0.00     0.000 C
HETATM    8  C13 UNL     1      16.609  13.748  18.932  1.00  0.00     0.000 C
HETATM    9  C14 UNL     1      16.384  13.977  20.371  1.00  0.00     0.007 C
HETATM   10  C15 UNL     1      15.559  12.902  21.071  1.00  0.00     0.024 C
ENDROOT
BRANCH   1  11
HETATM   11  C5  UNL     1      14.234  10.917  20.332  1.00  0.00     0.222 C
HETATM   12  N4  UNL     1      13.792  10.223  21.483  1.00  0.00    -0.356 N
ATOM     13  H4  UNL     1      13.577  10.768  22.317  1.00  0.00     0.162 HD
HETATM   14  O1  UNL     1      14.479  10.179  19.342  1.00  0.00    -0.273 OA
BRANCH  12  15
HETATM   15  C4  UNL     1      13.629   8.811  21.547  1.00  0.00     0.087 C
HETATM   16  C3  UNL     1      12.224   8.345  21.276  1.00  0.00     0.045 C
HETATM   17  C2  UNL     1      11.269   8.764  22.350  1.00  0.00     0.127 C
HETATM   18  N3  UNL     1      11.828   8.667  23.676  1.00  0.00    -0.356 N
HETATM   19  C1  UNL     1      10.896   8.664  24.767  1.00  0.00     0.183 C
HETATM   20  C18 UNL     1      13.216   8.574  23.986  1.00  0.00     0.127 C
HETATM   21  N1  UNL     1      11.294   8.840  25.999  1.00  0.00    -0.374 N
HETATM   22  N2  UNL     1       9.507   8.474  24.583  1.00  0.00    -0.064 NA
ATOM     23  H12 UNL     1      10.631   8.838  26.775  1.00  0.00     0.158 HD
ATOM     24  H11 UNL     1      12.296   8.977  26.131  1.00  0.00     0.158 HD
HETATM   25  C17 UNL     1      14.093   8.199  22.840  1.00  0.00     0.045 C
ENDBRANCH  12  15
ENDBRANCH   1  11
BRANCH  10  26
HETATM   26  C16 UNL     1      16.457  11.833  21.640  1.00  0.00     0.235 C
BRANCH  26  27
HETATM   27  N5  UNL     1      17.670  12.343  22.220  1.00  0.00    -0.079 N
ATOM     28  H53 UNL     1      17.565  13.328  22.462  1.00  0.00     0.274 HD
ATOM     29  H52 UNL     1      17.816  11.953  23.151  1.00  0.00     0.274 HD
ATOM     30  H51 UNL     1      18.495  12.202  21.637  1.00  0.00     0.274 HD
ENDBRANCH  26  27
ENDBRANCH  10  26
TORSDOF 4
ENDMDL