MODEL 3
REMARK VINA RESULT: -6.746908073      0.421      1.882
REMARK  9 active torsions:
REMARK  status: ('A' for Active; 'I' for Inactive)
REMARK    1  A    between atoms: C2_2  and  N1_3
REMARK    2  A    between atoms: C2_2  and  C15_20
REMARK    3  A    between atoms: N1_3  and  C3_5
REMARK    4  A    between atoms: C3_5  and  N2_7
REMARK    5  A    between atoms: N2_7  and  C4_9
REMARK    6  A    between atoms: C15_20  and  O1_21
REMARK    7  A    between atoms: C15_20  and  N3_23
REMARK    8  A    between atoms: N3_23  and  C16_25
REMARK    9  A    between atoms: C16_25  and  O2_27
ROOT
HETATM    1  C3  UNL     1       8.601   6.172  22.844  1.00  0.00     0.168 C
HETATM    2  S1  UNL     1      10.020   6.920  23.139  1.00  0.00    -0.041 SA
ENDROOT
BRANCH   1   3
HETATM    3  N1  UNL     1       8.511   4.760  22.749  1.00  0.00    -0.356 N
ATOM      4  H1  UNL     1       8.050   4.324  21.951  1.00  0.00     0.162 HD
BRANCH   3   5
HETATM    5  C2  UNL     1       9.084   3.941  23.805  1.00  0.00     0.154 C
HETATM    6  C1  UNL     1       7.929   3.692  24.770  1.00  0.00     0.041 C
BRANCH   5   7
HETATM    7  C15 UNL     1       9.552   2.699  23.189  1.00  0.00     0.141 C
BRANCH   7   8
HETATM    8  O1  UNL     1       9.794   2.672  21.909  1.00  0.00    -0.348 OA
ATOM      9  H1  UNL     1       9.106   2.411  21.309  1.00  0.00     0.219 HD
ENDBRANCH   7   8
BRANCH   7  10
HETATM   10  N3  UNL     1       9.775   1.499  23.846  1.00  0.00    -0.307 N
ATOM     11  H3  UNL     1      10.644   1.413  24.373  1.00  0.00     0.170 HD
BRANCH  10  12
HETATM   12  C16 UNL     1       8.913   0.392  23.852  1.00  0.00     0.231 C
HETATM   13  N4  UNL     1       8.323  -0.209  24.981  1.00  0.00    -0.056 NA
BRANCH  12  14
HETATM   14  O2  UNL     1       8.633  -0.133  22.696  1.00  0.00    -0.335 OA
ATOM     15  H2  UNL     1       7.713  -0.269  22.503  1.00  0.00     0.220 HD
ENDBRANCH  12  14
ENDBRANCH  10  12
ENDBRANCH   7  10
ENDBRANCH   5   7
ENDBRANCH   3   5
ENDBRANCH   1   3
BRANCH   1  16
HETATM   16  N2  UNL     1       7.430   6.928  22.675  1.00  0.00    -0.358 N
ATOM     17  H2  UNL     1       7.315   7.362  21.759  1.00  0.00     0.162 HD
BRANCH  16  18
HETATM   18  C4  UNL     1       6.380   7.174  23.605  1.00  0.00     0.034 C
HETATM   19  C5  UNL     1       5.354   6.097  23.534  1.00  0.00     0.035 C
HETATM   20  C6  UNL     1       4.366   6.202  24.679  1.00  0.00    -0.011 C
HETATM   21  C7  UNL     1       5.072   6.204  25.996  1.00  0.00     0.009 C
HETATM   22  C12 UNL     1       3.621   7.507  24.460  1.00  0.00     0.014 C
HETATM   23  C8  UNL     1       6.019   7.388  26.058  1.00  0.00    -0.011 C
HETATM   24  C9  UNL     1       5.227   8.645  25.882  1.00  0.00     0.014 C
HETATM   25  C14 UNL     1       7.042   7.221  24.990  1.00  0.00     0.035 C
HETATM   26  C10 UNL     1       4.617   8.621  24.487  1.00  0.00    -0.041 C
HETATM   27  C11 UNL     1       3.886   9.933  24.248  1.00  0.00     0.015 C
HETATM   28  C13 UNL     1       5.703   8.517  23.455  1.00  0.00     0.040 C
ENDBRANCH  16  18
ENDBRANCH   1  16
TORSDOF 9
ENDMDL