MODEL 3
REMARK VINA RESULT: -6.029109936      1.887      2.305
REMARK  6 active torsions:
REMARK  status: ('A' for Active; 'I' for Inactive)
REMARK    1  A    between atoms: C2_2  and  C4_4
REMARK    2  A    between atoms: C4_4  and  N1_5
REMARK       I    between atoms: N1_5  and  C5_7
REMARK       I    between atoms: C5_7  and  N2_9
REMARK    3  A    between atoms: N2_9  and  N3_11
REMARK    4  A    between atoms: N3_11  and  C6_13
REMARK    5  A    between atoms: C6_13  and  N4_15
REMARK    6  A    between atoms: N4_15  and  C7_17
ROOT
HETATM    1  C6  UNL     1      16.105  10.482  22.883  1.00  0.00     0.186 C
HETATM    2  S1  UNL     1      15.567  11.093  24.280  1.00  0.00    -0.040 SA
ENDROOT
BRANCH   1   3
HETATM    3  N3  UNL     1      15.843   9.085  22.673  1.00  0.00    -0.272 N
ATOM      4  H3  UNL     1      16.581   8.427  22.924  1.00  0.00     0.189 HD
BRANCH   3   5
HETATM    5  N2  UNL     1      14.674   8.564  22.161  1.00  0.00    -0.249 N
HETATM    6  C5  UNL     1      13.679   7.923  22.944  1.00  0.00     0.334 C
HETATM    7  N1  UNL     1      12.493   7.413  22.395  1.00  0.00    -0.341 N
HETATM    8  O1  UNL     1      13.872   7.809  24.186  1.00  0.00    -0.246 OA
ATOM      9  H1  UNL     1      12.351   7.509  21.389  1.00  0.00     0.164 HD
ATOM     10  H2  UNL     1      14.514   8.644  21.156  1.00  0.00     0.192 HD
BRANCH   7  11
HETATM   11  C4  UNL     1      11.472   6.767  23.160  1.00  0.00     0.128 C
BRANCH  11  12
HETATM   12  C2  UNL     1      10.204   7.530  23.335  1.00  0.00    -0.005 C
HETATM   13  C1  UNL     1      10.188   8.062  24.757  1.00  0.00     0.011 C
HETATM   14  C3  UNL     1       8.998   6.618  23.186  1.00  0.00     0.011 C
ENDBRANCH  11  12
ENDBRANCH   7  11
ENDBRANCH   3   5
ENDBRANCH   1   3
BRANCH   1  15
HETATM   15  N4  UNL     1      16.763  11.255  21.913  1.00  0.00    -0.361 N
ATOM     16  H4  UNL     1      17.611  10.877  21.492  1.00  0.00     0.162 HD
BRANCH  15  17
HETATM   17  C7  UNL     1      16.313  12.542  21.482  1.00  0.00     0.088 C
HETATM   18  C8  UNL     1      17.277  13.155  20.541  1.00  0.00     0.030 C
HETATM   19  C9  UNL     1      16.790  14.402  19.842  1.00  0.00    -0.012 C
HETATM   20  C10 UNL     1      15.873  15.255  20.640  1.00  0.00     0.009 C
HETATM   21  C14 UNL     1      16.282  14.034  18.486  1.00  0.00     0.009 C
HETATM   22  C11 UNL     1      14.419  14.881  20.505  1.00  0.00    -0.013 C
HETATM   23  C12 UNL     1      14.003  14.550  19.111  1.00  0.00     0.009 C
HETATM   24  C17 UNL     1      14.128  13.668  21.378  1.00  0.00     0.011 C
HETATM   25  C13 UNL     1      14.903  13.431  18.608  1.00  0.00    -0.013 C
HETATM   26  C15 UNL     1      14.863  12.218  19.463  1.00  0.00     0.011 C
HETATM   27  C16 UNL     1      14.900  12.480  20.926  1.00  0.00     0.009 C
ENDBRANCH  15  17
ENDBRANCH   1  15
TORSDOF 6
ENDMDL