MODEL 4
REMARK VINA RESULT: -8.655046240      1.390      1.758
REMARK  20 active torsions:
REMARK  status: ('A' for Active; 'I' for Inactive)
REMARK    1  A    between atoms: C2_3  and  C3_4
REMARK    2  A    between atoms: C3_4  and  C4_5
REMARK    3  A    between atoms: C11_12  and  C12_13
REMARK       I    between atoms: C12_13  and  N2_15
REMARK       I    between atoms: N2_15  and  C13_17
REMARK       I    between atoms: C13_17  and  N4_21
REMARK    4  A    between atoms: N4_21  and  C14_23
REMARK    5  A    between atoms: C14_23  and  C15_24
REMARK    6  A    between atoms: C15_24  and  C16_25
REMARK    7  A    between atoms: C16_25  and  C17_26
REMARK    8  A    between atoms: C17_26  and  N5_27
REMARK    9  A    between atoms: N5_27  and  C18_29
REMARK   10  A    between atoms: C18_29  and  C19_30
REMARK   11  A    between atoms: C19_30  and  C20_31
REMARK   12  A    between atoms: C20_31  and  N6_32
REMARK       I    between atoms: N6_32  and  C21_34
REMARK   13  A    between atoms: C21_34  and  C22_36
REMARK   14  A    between atoms: C22_36  and  C23_37
REMARK   15  A    between atoms: C23_37  and  N7_38
REMARK       I    between atoms: N7_38  and  C24_40
REMARK   16  A    between atoms: C24_40  and  C25_42
REMARK   17  A    between atoms: C25_42  and  C26_43
REMARK   18  A    between atoms: C26_43  and  N8_44
REMARK   19  A    between atoms: N8_44  and  N9_46
REMARK   20  A    between atoms: N11_51  and  O4_52
ROOT
HETATM    1  C14 UNL     1      -9.150  14.790  23.754  1.00  0.00     0.079 C
ENDROOT
BRANCH   1   2
HETATM    2  N4  UNL     1      -8.951  15.652  24.820  1.00  0.00    -0.206 N
HETATM    3  C13 UNL     1      -9.759  16.584  25.447  1.00  0.00     0.678 C
HETATM    4  N2  UNL     1     -10.680  16.297  26.501  1.00  0.00    -0.158 N
HETATM    5  N3  UNL     1      -9.652  17.842  25.071  1.00  0.00    -0.234 N
HETATM    6  C12 UNL     1     -10.922  15.050  27.077  1.00  0.00     0.261 C
ATOM      7  H2  UNL     1     -11.214  17.084  26.870  1.00  0.00     0.187 HD
HETATM    8  O1  UNL     1     -10.271  14.043  26.653  1.00  0.00    -0.270 OA
ATOM      9  H32 UNL     1     -10.248  18.529  25.533  1.00  0.00     0.174 HD
ATOM     10  H31 UNL     1      -8.996  18.046  24.319  1.00  0.00     0.174 HD
ATOM     11  H4  UNL     1      -8.017  15.587  25.225  1.00  0.00     0.183 HD
BRANCH   6  12
HETATM   12  C11 UNL     1     -11.870  14.817  28.142  1.00  0.00     0.217 C
HETATM   13  C10 UNL     1     -11.263  14.239  29.425  1.00  0.00     0.090 C
HETATM   14  C2  UNL     1     -12.310  14.353  30.477  1.00  0.00    -0.000 C
HETATM   15  N1  UNL     1     -13.560  14.256  30.259  1.00  0.00    -0.309 N
HETATM   16  C1  UNL     1     -14.570  14.342  31.296  1.00  0.00     0.161 C
HETATM   17  C27 UNL     1     -14.038  14.082  28.931  1.00  0.00     0.348 C
HETATM   18  N11 UNL     1     -13.038  14.031  27.887  1.00  0.00    -0.196 N
HETATM   19  O5  UNL     1     -15.254  13.969  28.619  1.00  0.00    -0.244 OA
BRANCH  14  20
HETATM   20  C3  UNL     1     -11.865  14.568  31.862  1.00  0.00     0.091 C
BRANCH  20  21
HETATM   21  C4  UNL     1     -10.574  15.339  31.946  1.00  0.00    -0.053 A
HETATM   22  C5  UNL     1     -10.348  16.420  31.128  1.00  0.00     0.007 A
HETATM   23  C6  UNL     1      -9.161  17.101  31.228  1.00  0.00     0.001 A
HETATM   24  C7  UNL     1      -8.172  16.742  32.125  1.00  0.00     0.000 A
HETATM   25  C8  UNL     1      -8.443  15.654  32.924  1.00  0.00     0.001 A
HETATM   26  C9  UNL     1      -9.634  14.953  32.839  1.00  0.00     0.007 A
ENDBRANCH  20  21
ENDBRANCH  14  20
BRANCH  18  27
HETATM   27  O4  UNL     1     -13.250  13.268  26.810  1.00  0.00    -0.283 OA
ATOM     28  H4  UNL     1     -13.000  12.356  26.715  1.00  0.00     0.245 HD
ENDBRANCH  18  27
ENDBRANCH   6  12
ENDBRANCH   1   2
BRANCH   1  29
HETATM   29  C15 UNL     1      -8.660  15.160  22.381  1.00  0.00     0.050 C
BRANCH  29  30
HETATM   30  C16 UNL     1      -9.665  15.689  21.465  1.00  0.00     0.049 C
BRANCH  30  31
HETATM   31  C17 UNL     1      -9.437  17.084  20.980  1.00  0.00     0.056 C
BRANCH  31  32
HETATM   32  N5  UNL     1      -8.375  17.438  20.191  1.00  0.00    -0.402 N
ATOM     33  H5  UNL     1      -8.522  17.396  19.182  1.00  0.00     0.158 HD
BRANCH  32  34
HETATM   34  C18 UNL     1      -7.116  17.848  20.619  1.00  0.00     0.120 C
BRANCH  34  35
HETATM   35  C19 UNL     1      -6.014  16.903  20.100  1.00  0.00     0.039 C
BRANCH  35  36
HETATM   36  C20 UNL     1      -4.696  17.479  20.499  1.00  0.00     0.124 C
BRANCH  36  37
HETATM   37  N6  UNL     1      -4.791  18.436  21.577  1.00  0.00    -0.361 N
HETATM   38  C21 UNL     1      -3.994  18.324  22.723  1.00  0.00     0.219 C
HETATM   39  O2  UNL     1      -3.157  17.425  22.911  1.00  0.00    -0.274 OA
ATOM     40  H6  UNL     1      -5.451  19.210  21.501  1.00  0.00     0.162 HD
BRANCH  38  41
HETATM   41  C22 UNL     1      -4.165  19.366  23.806  1.00  0.00     0.122 C
BRANCH  41  42
HETATM   42  C23 UNL     1      -3.383  18.950  25.008  1.00  0.00     0.132 C
BRANCH  42  43
HETATM   43  N7  UNL     1      -4.075  17.934  25.740  1.00  0.00    -0.361 N
HETATM   44  C24 UNL     1      -4.690  18.185  26.970  1.00  0.00     0.219 C
HETATM   45  O3  UNL     1      -4.658  19.339  27.505  1.00  0.00    -0.274 OA
ATOM     46  H7  UNL     1      -4.123  16.992  25.350  1.00  0.00     0.162 HD
BRANCH  44  47
HETATM   47  C25 UNL     1      -5.401  17.092  27.681  1.00  0.00     0.124 C
BRANCH  47  48
HETATM   48  C26 UNL     1      -6.855  17.093  27.295  1.00  0.00     0.150 C
BRANCH  48  49
HETATM   49  N8  UNL     1      -7.530  18.200  27.933  1.00  0.00    -0.322 N
ATOM     50  H8  UNL     1      -7.793  18.110  28.915  1.00  0.00     0.181 HD
BRANCH  49  51
HETATM   51  N9  UNL     1      -7.836  19.376  27.272  1.00  0.00    -0.254 N
HETATM   52  N10 UNL     1      -7.299  20.476  27.634  1.00  0.00    -0.331 N
ATOM     53 2H10 UNL     1      -6.644  20.470  28.415  1.00  0.00     0.178 HD
ATOM     54 1H10 UNL     1      -7.525  21.344  27.147  1.00  0.00     0.178 HD
ATOM     55  H9  UNL     1      -8.493  19.365  26.493  1.00  0.00     0.207 HD
ENDBRANCH  49  51
ENDBRANCH  48  49
ENDBRANCH  47  48
ENDBRANCH  44  47
ENDBRANCH  42  43
ENDBRANCH  41  42
ENDBRANCH  38  41
ENDBRANCH  36  37
ENDBRANCH  35  36
ENDBRANCH  34  35
ENDBRANCH  32  34
ENDBRANCH  31  32
ENDBRANCH  30  31
ENDBRANCH  29  30
ENDBRANCH   1  29
TORSDOF 20
ENDMDL