MODEL 3
REMARK VINA RESULT: -7.909880029      2.318     10.520
REMARK  22 active torsions:
REMARK  status: ('A' for Active; 'I' for Inactive)
REMARK       I    between atoms: C2_2  and  N1_4
REMARK    1  A    between atoms: N1_4  and  C3_6
REMARK    2  A    between atoms: C3_6  and  C4_7
REMARK    3  A    between atoms: C4_7  and  N2_8
REMARK    4  A    between atoms: N2_8  and  C6_10
REMARK    5  A    between atoms: N2_8  and  C7_13
REMARK    6  A    between atoms: C6_10  and  O2_11
REMARK    7  A    between atoms: C7_13  and  C8_14
REMARK    8  A    between atoms: C8_14  and  C9_15
REMARK    9  A    between atoms: C9_15  and  C10_16
REMARK   10  A    between atoms: C10_16  and  C11_17
REMARK   11  A    between atoms: C11_17  and  N3_18
REMARK       I    between atoms: N3_18  and  C12_20
REMARK       I    between atoms: C12_20  and  N8_31
REMARK   12  A    between atoms: N4_21  and  C13_23
REMARK   13  A    between atoms: C13_23  and  C14_24
REMARK   14  A    between atoms: C14_24  and  C15_25
REMARK   15  A    between atoms: C15_25  and  N5_26
REMARK   16  A    between atoms: N8_31  and  C17_32
REMARK   17  A    between atoms: C19_36  and  C20_37
REMARK   18  A    between atoms: C20_37  and  O3_38
REMARK   19  A    between atoms: O3_38  and  C21_39
REMARK   20  A    between atoms: C21_39  and  C22_40
REMARK   21  A    between atoms: C21_39  and  C26_45
REMARK   22  A    between atoms: C22_40  and  N10_41
ROOT
HETATM    1  N3  UNL     1     -10.264  17.455  29.055  1.00  0.00    -0.351 N
ATOM      2  H3  UNL     1     -10.759  18.291  29.362  1.00  0.00     0.163 HD
HETATM    3  C12 UNL     1     -10.764  16.643  27.943  1.00  0.00     0.254 C
HETATM    4  N4  UNL     1     -11.883  16.069  28.187  1.00  0.00    -0.350 N
ATOM      5  H4  UNL     1     -12.291  16.237  29.107  1.00  0.00     0.163 HD
HETATM    6  N8  UNL     1     -10.068  16.580  26.838  1.00  0.00    -0.336 NA
ENDROOT
BRANCH   1   7
HETATM    7  C11 UNL     1      -9.067  17.035  29.689  1.00  0.00     0.123 C
BRANCH   7   8
HETATM    8  C10 UNL     1      -9.294  16.154  30.915  1.00  0.00     0.020 C
BRANCH   8   9
HETATM    9  C9  UNL     1      -8.387  16.686  32.052  1.00  0.00     0.003 C
BRANCH   9  10
HETATM   10  C8  UNL     1      -8.265  15.606  33.052  1.00  0.00     0.028 C
BRANCH  10  11
HETATM   11  C7  UNL     1      -9.438  14.706  33.256  1.00  0.00     0.239 C
BRANCH  11  12
HETATM   12  N2  UNL     1     -10.392  15.092  34.221  1.00  0.00    -0.049 N
HETATM   13  C5  UNL     1     -11.663  15.528  33.602  1.00  0.00     0.275 C
BRANCH  12  14
HETATM   14  C4  UNL     1     -10.717  13.982  35.057  1.00  0.00     0.259 C
BRANCH  14  15
HETATM   15  C3  UNL     1     -12.116  13.520  35.162  1.00  0.00     0.150 C
BRANCH  15  16
HETATM   16  N1  UNL     1     -12.196  12.162  34.575  1.00  0.00    -0.360 N
HETATM   17  C2  UNL     1     -13.366  11.563  34.120  1.00  0.00     0.213 C
HETATM   18  C1  UNL     1     -13.318  10.193  33.545  1.00  0.00     0.117 C
HETATM   19  O1  UNL     1     -14.465  12.155  34.182  1.00  0.00    -0.274 OA
ATOM     20  H1  UNL     1     -11.330  11.627  34.500  1.00  0.00     0.162 HD
ENDBRANCH  15  16
ENDBRANCH  14  15
ENDBRANCH  12  14
BRANCH  12  21
HETATM   21  C6  UNL     1      -9.976  16.201  35.060  1.00  0.00     0.401 C
BRANCH  21  22
HETATM   22  O2  UNL     1      -9.255  15.838  36.156  1.00  0.00    -0.374 OA
ATOM     23  H2  UNL     1      -8.824  16.560  36.600  1.00  0.00     0.211 HD
ENDBRANCH  21  22
ENDBRANCH  12  21
ENDBRANCH  11  12
ENDBRANCH  10  11
ENDBRANCH   9  10
ENDBRANCH   8   9
ENDBRANCH   7   8
ENDBRANCH   1   7
BRANCH   4  24
HETATM   24  C13 UNL     1     -12.618  15.220  27.308  1.00  0.00     0.125 C
BRANCH  24  25
HETATM   25  C14 UNL     1     -14.094  15.367  27.605  1.00  0.00     0.039 C
BRANCH  25  26
HETATM   26  C15 UNL     1     -14.490  14.305  28.592  1.00  0.00     0.123 C
BRANCH  26  27
HETATM   27  N5  UNL     1     -14.813  14.911  29.851  1.00  0.00    -0.367 N
HETATM   28  C16 UNL     1     -14.887  14.175  30.901  1.00  0.00     0.196 C
HETATM   29  N6  UNL     1     -14.648  12.792  30.793  1.00  0.00    -0.067 NA
HETATM   30  N7  UNL     1     -15.207  14.776  32.139  1.00  0.00    -0.067 NA
ATOM     31  H5  UNL     1     -14.982  15.916  29.912  1.00  0.00     0.161 HD
ENDBRANCH  26  27
ENDBRANCH  25  26
ENDBRANCH  24  25
ENDBRANCH   4  24
BRANCH   6  32
HETATM   32  C17 UNL     1      -9.442  16.503  25.835  1.00  0.00     0.262 A
HETATM   33  N9  UNL     1      -9.238  15.402  25.052  1.00  0.00    -0.324 N
HETATM   34  C18 UNL     1      -8.492  15.720  24.006  1.00  0.00     0.119 A
ATOM     35  H9  UNL     1      -9.607  14.471  25.246  1.00  0.00     0.169 HD
HETATM   36  C19 UNL     1      -8.191  17.046  24.085  1.00  0.00     0.052 A
HETATM   37  N12 UNL     1      -8.760  17.522  25.184  1.00  0.00    -0.317 N
ATOM     38  H12 UNL     1      -8.704  18.490  25.502  1.00  0.00     0.170 HD
BRANCH  36  39
HETATM   39  C20 UNL     1      -7.389  17.827  23.111  1.00  0.00     0.227 C
BRANCH  39  40
HETATM   40  O3  UNL     1      -6.059  17.883  23.394  1.00  0.00    -0.369 OA
BRANCH  40  41
HETATM   41  C21 UNL     1      -5.745  18.874  24.396  1.00  0.00     0.236 C
BRANCH  41  42
HETATM   42  C22 UNL     1      -5.115  18.067  25.475  1.00  0.00     0.277 C
BRANCH  42  43
HETATM   43  N10 UNL     1      -5.432  18.306  26.834  1.00  0.00    -0.076 N
HETATM   44  C23 UNL     1      -6.408  19.306  27.108  1.00  0.00     0.271 C
HETATM   45  C24 UNL     1      -5.958  17.050  27.440  1.00  0.00     0.271 C
HETATM   46  C25 UNL     1      -4.230  18.573  27.595  1.00  0.00     0.271 C
ENDBRANCH  42  43
ENDBRANCH  41  42
BRANCH  41  47
HETATM   47  C26 UNL     1      -4.862  19.831  23.693  1.00  0.00     0.261 C
HETATM   48  N11 UNL     1      -3.474  19.669  23.638  1.00  0.00    -0.060 NA
HETATM   49  O4  UNL     1      -5.358  20.846  23.111  1.00  0.00    -0.274 OA
ENDBRANCH  41  47
ENDBRANCH  40  41
ENDBRANCH  39  40
ENDBRANCH  36  39
ENDBRANCH   6  32
TORSDOF 22
ENDMDL