MODEL 2
REMARK VINA RESULT: -7.608360166      3.651     11.618
REMARK  19 active torsions:
REMARK  status: ('A' for Active; 'I' for Inactive)
REMARK    1  A    between atoms: C2_2  and  C3_3
REMARK    2  A    between atoms: C3_3  and  C4_4
REMARK    3  A    between atoms: C4_4  and  C5_5
REMARK    4  A    between atoms: C4_4  and  C9_14
REMARK    5  A    between atoms: C4_4  and  N8_27
REMARK       I    between atoms: C5_5  and  N1_7
REMARK       I    between atoms: C6_9  and  N3_11
REMARK       I    between atoms: C9_14  and  N4_16
REMARK    6  A    between atoms: N4_16  and  C10_18
REMARK    7  A    between atoms: C10_18  and  C11_19
REMARK    8  A    between atoms: C11_19  and  N5_20
REMARK       I    between atoms: N5_20  and  C12_22
REMARK    9  A    between atoms: N8_27  and  C13_28
REMARK   10  A    between atoms: N8_27  and  C23_47
REMARK   11  A    between atoms: C13_28  and  C14_29
REMARK   12  A    between atoms: C14_29  and  N9_30
REMARK       I    between atoms: N9_30  and  C15_32
REMARK       I    between atoms: C15_32  and  N10_34
REMARK   13  A    between atoms: N10_34  and  C16_36
REMARK   14  A    between atoms: C16_36  and  C17_37
REMARK   15  A    between atoms: C17_37  and  C18_38
REMARK   16  A    between atoms: C18_38  and  N11_39
REMARK   17  A    between atoms: N11_39  and  C19_42
REMARK   18  A    between atoms: C19_42  and  N12_43
REMARK   19  A    between atoms: C23_47  and  C24_48
ROOT
HETATM    1  N8  UNL     1     -13.123  14.128  30.530  1.00  0.00    -0.361 N
ENDROOT
BRANCH   1   2
HETATM    2  C4  UNL     1     -14.016  13.789  31.530  1.00  0.00     0.195 C
BRANCH   2   3
HETATM    3  C3  UNL     1     -15.301  14.609  31.457  1.00  0.00     0.051 C
BRANCH   3   4
HETATM    4  C2  UNL     1     -16.151  14.421  30.254  1.00  0.00    -0.001 C
HETATM    5  C1  UNL     1     -17.640  14.386  30.724  1.00  0.00     0.005 C
ENDBRANCH   3   4
ENDBRANCH   2   3
BRANCH   2   6
HETATM    6  C5  UNL     1     -14.277  12.396  31.727  1.00  0.00     0.262 C
HETATM    7  O1  UNL     1     -15.301  12.019  32.405  1.00  0.00    -0.270 OA
HETATM    8  N1  UNL     1     -13.533  11.281  31.260  1.00  0.00    -0.299 N
HETATM    9  C6  UNL     1     -13.360  10.160  31.793  1.00  0.00     0.192 C
ATOM     10  H1  UNL     1     -13.073  11.410  30.358  1.00  0.00     0.171 HD
HETATM   11  N2  UNL     1     -12.539   9.226  31.052  1.00  0.00    -0.063 NA
HETATM   12  N3  UNL     1     -13.863   9.701  33.015  1.00  0.00    -0.364 N
HETATM   13  C7  UNL     1     -15.138   9.040  33.138  1.00  0.00     0.151 C
HETATM   14  C8  UNL     1     -13.071   9.889  34.217  1.00  0.00     0.151 C
ENDBRANCH   2   6
BRANCH   2  15
HETATM   15  C9  UNL     1     -13.475  14.268  32.918  1.00  0.00     0.256 C
HETATM   16  O2  UNL     1     -13.407  15.481  33.189  1.00  0.00    -0.270 OA
HETATM   17  N4  UNL     1     -13.053  13.321  33.872  1.00  0.00    -0.357 N
ATOM     18  H4  UNL     1     -13.099  12.328  33.644  1.00  0.00     0.162 HD
BRANCH  17  19
HETATM   19  C10 UNL     1     -12.560  13.724  35.159  1.00  0.00     0.142 C
BRANCH  19  20
HETATM   20  C11 UNL     1     -11.102  14.039  35.095  1.00  0.00     0.142 C
BRANCH  20  21
HETATM   21  N5  UNL     1     -10.962  15.483  35.111  1.00  0.00    -0.363 N
HETATM   22  C12 UNL     1      -9.849  16.089  34.479  1.00  0.00     0.181 C
HETATM   23  N6  UNL     1      -9.529  17.313  34.754  1.00  0.00    -0.374 N
HETATM   24  N7  UNL     1      -9.069  15.361  33.533  1.00  0.00    -0.064 NA
ATOM     25  H62 UNL     1     -10.088  17.833  35.430  1.00  0.00     0.158 HD
ATOM     26  H61 UNL     1      -8.727  17.749  34.298  1.00  0.00     0.158 HD
ATOM     27  H5  UNL     1     -11.662  16.060  35.576  1.00  0.00     0.162 HD
ENDBRANCH  20  21
ENDBRANCH  19  20
ENDBRANCH  17  19
ENDBRANCH   2  15
ENDBRANCH   1   2
BRANCH   1  28
HETATM   28  C13 UNL     1     -13.609  14.549  29.257  1.00  0.00     0.143 C
BRANCH  28  29
HETATM   29  C14 UNL     1     -13.104  13.955  28.015  1.00  0.00     0.144 C
BRANCH  29  30
HETATM   30  N9  UNL     1     -12.492  14.971  27.155  1.00  0.00    -0.342 N
HETATM   31  C15 UNL     1     -11.160  14.822  26.719  1.00  0.00     0.316 C
HETATM   32  O3  UNL     1     -10.502  13.814  27.094  1.00  0.00    -0.247 OA
HETATM   33  N10 UNL     1     -10.620  15.817  25.871  1.00  0.00    -0.343 N
ATOM     34  H10 UNL     1     -11.196  16.618  25.613  1.00  0.00     0.164 HD
ATOM     35  H9  UNL     1     -13.031  15.788  26.872  1.00  0.00     0.164 HD
BRANCH  33  36
HETATM   36  C16 UNL     1      -9.288  15.725  25.367  1.00  0.00     0.126 C
BRANCH  36  37
HETATM   37  C17 UNL     1      -9.210  16.352  23.995  1.00  0.00     0.047 C
BRANCH  37  38
HETATM   38  C18 UNL     1      -7.943  17.170  23.882  1.00  0.00     0.236 C
BRANCH  38  39
HETATM   39  N11 UNL     1      -7.738  17.922  25.084  1.00  0.00    -0.051 N
ATOM     40 2H11 UNL     1      -8.245  18.807  25.068  1.00  0.00     0.279 HD
ATOM     41 1H11 UNL     1      -8.206  17.494  25.883  1.00  0.00     0.279 HD
BRANCH  39  42
HETATM   42  C19 UNL     1      -6.336  18.113  25.323  1.00  0.00     0.466 C
BRANCH  42  43
HETATM   43  N12 UNL     1      -6.124  18.334  26.747  1.00  0.00    -0.055 N
HETATM   44  C20 UNL     1      -5.213  19.441  26.957  1.00  0.00     0.273 C
HETATM   45  C21 UNL     1      -7.392  18.650  27.358  1.00  0.00     0.273 C
HETATM   46  C22 UNL     1      -5.531  17.141  27.323  1.00  0.00     0.273 C
ENDBRANCH  42  43
ENDBRANCH  39  42
ENDBRANCH  38  39
ENDBRANCH  37  38
ENDBRANCH  36  37
ENDBRANCH  33  36
ENDBRANCH  29  30
ENDBRANCH  28  29
ENDBRANCH   1  28
BRANCH   1  47
HETATM   47  C23 UNL     1     -11.749  13.935  30.530  1.00  0.00     0.118 C
BRANCH  47  48
HETATM   48  C24 UNL     1     -10.814  15.087  30.499  1.00  0.00     0.064 A
HETATM   49  C25 UNL     1      -9.552  15.125  29.992  1.00  0.00     0.119 A
HETATM   50  N13 UNL     1      -9.026  16.330  30.181  1.00  0.00    -0.360 N
HETATM   51  C26 UNL     1      -9.968  17.046  30.812  1.00  0.00     0.180 A
ATOM     52  H13 UNL     1      -8.096  16.646  29.904  1.00  0.00     0.166 HD
HETATM   53  N14 UNL     1     -11.063  16.309  31.014  1.00  0.00    -0.350 N
ATOM     54  H14 UNL     1     -11.923  16.612  31.471  1.00  0.00     0.166 HD
ENDBRANCH  47  48
ENDBRANCH   1  47
TORSDOF 19
ENDMDL