MODEL 4
REMARK VINA RESULT: -8.029972775      2.024      9.185
REMARK  19 active torsions:
REMARK  status: ('A' for Active; 'I' for Inactive)
REMARK       I    between atoms: N1_2  and  C2_4
REMARK    1  A    between atoms: N3_6  and  C3_8
REMARK    2  A    between atoms: C3_8  and  C4_9
REMARK    3  A    between atoms: C4_9  and  C5_10
REMARK    4  A    between atoms: C5_10  and  C6_11
REMARK    5  A    between atoms: C6_11  and  N4_12
REMARK       I    between atoms: N4_12  and  C7_14
REMARK    6  A    between atoms: C7_14  and  C8_16
REMARK    7  A    between atoms: C8_16  and  N5_17
REMARK       I    between atoms: N5_17  and  C9_19
REMARK    8  A    between atoms: C9_19  and  C10_21
REMARK    9  A    between atoms: N6_25  and  C14_26
REMARK   10  A    between atoms: C14_26  and  C15_27
REMARK   11  A    between atoms: C15_27  and  C16_28
REMARK   12  A    between atoms: C16_28  and  C17_29
REMARK   13  A    between atoms: C17_29  and  C18_30
REMARK   14  A    between atoms: C18_30  and  N7_31
REMARK   15  A    between atoms: N7_31  and  C19_32
REMARK       I    between atoms: N7_31  and  C26_44
REMARK   16  A    between atoms: C19_32  and  C20_33
REMARK   17  A    between atoms: C20_33  and  N8_34
REMARK       I    between atoms: N8_34  and  C21_36
REMARK   18  A    between atoms: C21_36  and  C22_38
REMARK       I    between atoms: C26_44  and  N10_46
REMARK   19  A    between atoms: N10_46  and  N11_48
ROOT
HETATM    1  C10 UNL     1      -5.365  18.563  22.436  1.00  0.00     0.047 A
HETATM    2  C11 UNL     1      -4.430  18.147  21.474  1.00  0.00     0.020 A
HETATM    3  C12 UNL     1      -4.855  17.590  20.290  1.00  0.00     0.018 A
HETATM    4  C13 UNL     1      -6.194  17.420  20.010  1.00  0.00     0.090 A
HETATM    5  N6  UNL     1      -7.089  17.810  20.917  1.00  0.00    -0.365 N
HETATM    6  C27 UNL     1      -6.678  18.368  22.099  1.00  0.00     0.107 A
ENDROOT
BRANCH   5   7
HETATM    7  C14 UNL     1      -8.529  17.679  20.771  1.00  0.00     0.128 C
BRANCH   7   8
HETATM    8  C15 UNL     1      -8.909  16.228  20.757  1.00  0.00     0.020 C
BRANCH   8   9
HETATM    9  C16 UNL     1      -9.684  15.757  21.929  1.00  0.00     0.003 C
BRANCH   9  10
HETATM   10  C17 UNL     1      -9.018  14.700  22.763  1.00  0.00     0.015 C
BRANCH  10  11
HETATM   11  C18 UNL     1      -8.412  15.423  23.988  1.00  0.00     0.100 C
BRANCH  11  12
HETATM   12  N7  UNL     1      -9.431  15.817  24.899  1.00  0.00    -0.232 NA
HETATM   13  C26 UNL     1      -9.230  17.132  25.413  1.00  0.00     0.314 C
HETATM   14  O4  UNL     1      -8.216  17.763  25.033  1.00  0.00    -0.252 OA
HETATM   15  N10 UNL     1     -10.118  17.744  26.322  1.00  0.00    -0.263 N
ATOM     16  H10 UNL     1     -10.948  17.245  26.640  1.00  0.00     0.190 HD
BRANCH  12  17
HETATM   17  C19 UNL     1      -9.667  14.897  25.983  1.00  0.00     0.120 C
BRANCH  17  18
HETATM   18  C20 UNL     1     -11.087  14.436  26.114  1.00  0.00     0.138 C
BRANCH  18  19
HETATM   19  N8  UNL     1     -11.489  14.248  27.488  1.00  0.00    -0.356 N
HETATM   20  C21 UNL     1     -12.778  13.908  27.902  1.00  0.00     0.253 C
HETATM   21  O3  UNL     1     -13.694  13.748  27.065  1.00  0.00    -0.268 OA
ATOM     22  H8  UNL     1     -10.779  14.372  28.209  1.00  0.00     0.162 HD
BRANCH  20  23
HETATM   23  C22 UNL     1     -13.072  13.735  29.313  1.00  0.00     0.048 A
HETATM   24  C23 UNL     1     -14.247  14.078  29.985  1.00  0.00     0.035 A
HETATM   25  C24 UNL     1     -14.029  13.703  31.299  1.00  0.00     0.088 A
HETATM   26  N9  UNL     1     -12.802  13.163  31.435  1.00  0.00    -0.374 N
HETATM   27  C25 UNL     1     -12.217  13.180  30.233  1.00  0.00     0.104 A
ATOM     28  H9  UNL     1     -12.394  12.806  32.299  1.00  0.00     0.164 HD
ENDBRANCH  20  23
ENDBRANCH  18  19
ENDBRANCH  17  18
ENDBRANCH  12  17
BRANCH  15  29
HETATM   29  N11 UNL     1      -9.858  19.027  26.780  1.00  0.00    -0.342 N
ATOM     30 2H11 UNL     1     -10.640  19.651  26.978  1.00  0.00     0.176 HD
ATOM     31 1H11 UNL     1      -8.894  19.331  26.913  1.00  0.00     0.176 HD
ENDBRANCH  15  29
ENDBRANCH  11  12
ENDBRANCH  10  11
ENDBRANCH   9  10
ENDBRANCH   8   9
ENDBRANCH   7   8
ENDBRANCH   5   7
BRANCH   1  32
HETATM   32  C9  UNL     1      -4.925  19.137  23.689  1.00  0.00     0.253 C
HETATM   33  N5  UNL     1      -5.674  18.928  24.877  1.00  0.00    -0.348 N
ATOM     34  H5  UNL     1      -6.530  18.375  24.811  1.00  0.00     0.163 HD
HETATM   35  O2  UNL     1      -3.885  19.816  23.715  1.00  0.00    -0.268 OA
BRANCH  33  36
HETATM   36  C8  UNL     1      -5.311  19.439  26.153  1.00  0.00     0.225 C
BRANCH  36  37
HETATM   37  C7  UNL     1      -5.516  18.435  27.243  1.00  0.00     0.235 C
HETATM   38  N4  UNL     1      -6.694  17.743  27.409  1.00  0.00    -0.360 N
ATOM     39  H4  UNL     1      -7.432  17.991  26.749  1.00  0.00     0.162 HD
HETATM   40  O1  UNL     1      -4.460  18.332  27.967  1.00  0.00    -0.272 OA
BRANCH  38  41
HETATM   41  C6  UNL     1      -7.050  16.743  28.347  1.00  0.00     0.122 C
BRANCH  41  42
HETATM   42  C5  UNL     1      -8.185  17.014  29.222  1.00  0.00     0.021 C
BRANCH  42  43
HETATM   43  C4  UNL     1      -9.019  15.991  29.845  1.00  0.00     0.021 C
BRANCH  43  44
HETATM   44  C3  UNL     1      -9.029  16.081  31.377  1.00  0.00     0.122 C
BRANCH  44  45
HETATM   45  N3  UNL     1     -10.380  15.764  31.851  1.00  0.00    -0.365 N
HETATM   46  C2  UNL     1     -10.723  15.947  33.091  1.00  0.00     0.183 C
HETATM   47  N1  UNL     1      -9.750  16.463  33.974  1.00  0.00    -0.369 N
HETATM   48  N2  UNL     1     -12.051  15.627  33.525  1.00  0.00    -0.064 NA
HETATM   49  C1  UNL     1      -9.035  15.590  34.860  1.00  0.00     0.148 C
ATOM     50  H1  UNL     1      -9.554  17.463  33.981  1.00  0.00     0.161 HD
ATOM     51  H3  UNL     1     -11.065  15.393  31.193  1.00  0.00     0.162 HD
ENDBRANCH  44  45
ENDBRANCH  43  44
ENDBRANCH  42  43
ENDBRANCH  41  42
ENDBRANCH  38  41
ENDBRANCH  36  37
ENDBRANCH  33  36
ENDBRANCH   1  32
TORSDOF 19
ENDMDL