MODEL 5
REMARK VINA RESULT: -8.392745063      1.377      1.814
REMARK  24 active torsions:
REMARK  status: ('A' for Active; 'I' for Inactive)
REMARK    1  A    between atoms: N2_4  and  N3_6
REMARK    2  A    between atoms: N3_6  and  C1_8
REMARK    3  A    between atoms: C1_8  and  C2_9
REMARK    4  A    between atoms: C2_9  and  N4_10
REMARK    5  A    between atoms: C2_9  and  N5_14
REMARK    6  A    between atoms: N5_14  and  C3_16
REMARK    7  A    between atoms: C3_16  and  C4_17
REMARK    8  A    between atoms: C4_17  and  C5_18
REMARK    9  A    between atoms: C5_18  and  C6_19
REMARK   10  A    between atoms: C6_19  and  O1_20
REMARK   11  A    between atoms: C6_19  and  N6_22
REMARK   12  A    between atoms: N6_22  and  C7_24
REMARK   13  A    between atoms: C7_24  and  O2_25
REMARK   14  A    between atoms: C7_24  and  C8_27
REMARK       I    between atoms: C8_27  and  N7_29
REMARK   15  A    between atoms: N7_29  and  C9_31
REMARK   16  A    between atoms: C9_31  and  C10_32
REMARK   17  A    between atoms: C9_31  and  C18_40
REMARK   18  A    between atoms: C11_33  and  C12_34
REMARK   19  A    between atoms: C18_40  and  N8_41
REMARK       I    between atoms: N8_41  and  C19_43
REMARK   20  A    between atoms: C19_43  and  C20_45
REMARK   21  A    between atoms: C20_45  and  C21_46
REMARK   22  A    between atoms: C21_46  and  N9_47
REMARK       I    between atoms: N9_47  and  C22_49
REMARK   23  A    between atoms: C22_49  and  C23_51
REMARK   24  A    between atoms: C23_51  and  C24_52
ROOT
HETATM    1  C8  UNL     1      -9.648  15.703  27.348  1.00  0.00     0.293 C
HETATM    2  O3  UNL     1      -9.243  14.583  27.668  1.00  0.00    -0.264 OA
HETATM    3  N7  UNL     1     -10.009  16.585  28.428  1.00  0.00    -0.345 N
ATOM      4  H7  UNL     1     -10.353  17.531  28.263  1.00  0.00     0.163 HD
ENDROOT
BRANCH   3   5
HETATM    5  C9  UNL     1      -9.848  16.023  29.809  1.00  0.00     0.125 C
BRANCH   5   6
HETATM    6  C10 UNL     1      -8.807  16.820  30.504  1.00  0.00     0.001 C
HETATM    7  C11 UNL     1      -8.132  16.384  31.701  1.00  0.00     0.009 C
BRANCH   7   8
HETATM    8  C12 UNL     1      -8.765  16.067  32.944  1.00  0.00    -0.036 A
HETATM    9  C13 UNL     1      -9.284  17.043  33.778  1.00  0.00     0.011 A
HETATM   10  C14 UNL     1      -9.837  16.773  35.007  1.00  0.00     0.001 A
HETATM   11  C15 UNL     1      -9.878  15.457  35.432  1.00  0.00     0.000 A
HETATM   12  C16 UNL     1      -9.373  14.448  34.635  1.00  0.00     0.001 A
HETATM   13  C17 UNL     1      -8.825  14.765  33.405  1.00  0.00     0.011 A
ENDBRANCH   7   8
ENDBRANCH   5   6
BRANCH   5  14
HETATM   14  C18 UNL     1     -11.243  16.119  30.358  1.00  0.00     0.151 C
BRANCH  14  15
HETATM   15  N8  UNL     1     -11.574  14.836  30.969  1.00  0.00    -0.359 N
HETATM   16  C19 UNL     1     -12.199  14.762  32.242  1.00  0.00     0.219 C
HETATM   17  O4  UNL     1     -12.490  15.814  32.899  1.00  0.00    -0.274 OA
ATOM     18  H8  UNL     1     -11.352  13.974  30.471  1.00  0.00     0.162 HD
BRANCH  16  19
HETATM   19  C20 UNL     1     -12.538  13.460  32.851  1.00  0.00     0.122 C
BRANCH  19  20
HETATM   20  C21 UNL     1     -14.029  13.295  32.844  1.00  0.00     0.132 C
BRANCH  20  21
HETATM   21  N9  UNL     1     -14.631  13.324  31.539  1.00  0.00    -0.360 N
HETATM   22  C22 UNL     1     -15.448  14.365  31.048  1.00  0.00     0.221 C
HETATM   23  O5  UNL     1     -15.705  15.362  31.757  1.00  0.00    -0.273 OA
ATOM     24  H9  UNL     1     -14.453  12.533  30.921  1.00  0.00     0.162 HD
BRANCH  22  25
HETATM   25  C23 UNL     1     -16.010  14.276  29.680  1.00  0.00     0.141 C
BRANCH  25  26
HETATM   26  C24 UNL     1     -14.897  14.219  28.695  1.00  0.00    -0.050 A
HETATM   27  C25 UNL     1     -14.266  15.373  28.261  1.00  0.00     0.007 A
HETATM   28  C26 UNL     1     -13.247  15.317  27.357  1.00  0.00     0.001 A
HETATM   29  C27 UNL     1     -12.789  14.122  26.828  1.00  0.00     0.000 A
HETATM   30  C28 UNL     1     -13.422  12.979  27.266  1.00  0.00     0.001 A
HETATM   31  C29 UNL     1     -14.459  13.017  28.183  1.00  0.00     0.007 A
ENDBRANCH  25  26
ENDBRANCH  22  25
ENDBRANCH  20  21
ENDBRANCH  19  20
ENDBRANCH  16  19
ENDBRANCH  14  15
ENDBRANCH   5  14
ENDBRANCH   3   5
BRANCH   1  32
HETATM   32  C7  UNL     1      -9.778  16.168  26.006  1.00  0.00     0.211 C
BRANCH  32  33
HETATM   33  N6  UNL     1      -9.794  15.543  24.773  1.00  0.00    -0.317 N
ATOM     34  H6  UNL     1     -10.732  15.239  24.514  1.00  0.00     0.170 HD
BRANCH  33  35
HETATM   35  C6  UNL     1      -8.867  15.227  23.808  1.00  0.00     0.117 C
BRANCH  35  36
HETATM   36  C5  UNL     1      -9.042  15.098  22.366  1.00  0.00     0.085 C
BRANCH  36  37
HETATM   37  C4  UNL     1      -8.986  16.462  21.666  1.00  0.00     0.027 C
BRANCH  37  38
HETATM   38  C3  UNL     1      -7.658  16.743  21.025  1.00  0.00     0.116 C
BRANCH  38  39
HETATM   39  N5  UNL     1      -6.635  17.026  21.975  1.00  0.00    -0.394 N
ATOM     40  H5  UNL     1      -5.812  16.426  22.037  1.00  0.00     0.155 HD
BRANCH  39  41
HETATM   41  C2  UNL     1      -6.766  18.132  22.825  1.00  0.00     0.296 C
BRANCH  41  42
HETATM   42  C1  UNL     1      -6.153  18.009  24.187  1.00  0.00     0.194 C
BRANCH  42  43
HETATM   43  N3  UNL     1      -7.110  18.143  25.268  1.00  0.00    -0.319 N
ATOM     44  H3  UNL     1      -7.951  17.567  25.244  1.00  0.00     0.181 HD
BRANCH  43  45
HETATM   45  N2  UNL     1      -6.939  19.019  26.342  1.00  0.00    -0.254 N
HETATM   46  N1  UNL     1      -7.895  19.109  27.179  1.00  0.00    -0.331 N
ATOM     47  H12 UNL     1      -8.744  18.556  27.055  1.00  0.00     0.178 HD
ATOM     48  H11 UNL     1      -7.770  19.749  27.963  1.00  0.00     0.178 HD
ATOM     49  H2  UNL     1      -6.084  19.566  26.451  1.00  0.00     0.207 HD
ENDBRANCH  43  45
ENDBRANCH  42  43
ENDBRANCH  41  42
BRANCH  41  50
HETATM   50  N4  UNL     1      -6.047  19.250  22.176  1.00  0.00    -0.057 N
ATOM     51  H43 UNL     1      -5.542  18.981  21.331  1.00  0.00     0.276 HD
ATOM     52  H42 UNL     1      -6.661  19.934  21.735  1.00  0.00     0.276 HD
ATOM     53  H41 UNL     1      -5.449  19.643  22.904  1.00  0.00     0.276 HD
ENDBRANCH  41  50
ENDBRANCH  39  41
ENDBRANCH  38  39
ENDBRANCH  37  38
ENDBRANCH  36  37
ENDBRANCH  35  36
BRANCH  35  54
HETATM   54  O1  UNL     1      -7.637  15.001  24.203  1.00  0.00    -0.349 OA
ATOM     55  H1  UNL     1      -7.556  14.905  25.145  1.00  0.00     0.219 HD
ENDBRANCH  35  54
ENDBRANCH  33  35
ENDBRANCH  32  33
BRANCH  32  56
HETATM   56  O2  UNL     1      -9.910  17.503  25.952  1.00  0.00    -0.342 OA
ATOM     57  H2  UNL     1      -9.370  17.976  26.574  1.00  0.00     0.219 HD
ENDBRANCH  32  56
ENDBRANCH   1  32
TORSDOF 24
ENDMDL