MODEL 1
REMARK VINA RESULT: -8.881976848      0.000      0.000
REMARK  20 active torsions:
REMARK  status: ('A' for Active; 'I' for Inactive)
REMARK    1  A    between atoms: C2_2  and  C3_3
REMARK    2  A    between atoms: C3_3  and  C4_4
REMARK    3  A    between atoms: C4_4  and  N1_5
REMARK       I    between atoms: C5_7  and  N3_9
REMARK    4  A    between atoms: N3_9  and  N4_11
REMARK    5  A    between atoms: C6_12  and  C7_13
REMARK       I    between atoms: C7_13  and  N5_15
REMARK    6  A    between atoms: N5_15  and  C8_17
REMARK    7  A    between atoms: C8_17  and  C9_18
REMARK       I    between atoms: C9_18  and  N6_20
REMARK    8  A    between atoms: N6_20  and  C10_22
REMARK    9  A    between atoms: C10_22  and  C11_23
REMARK   10  A    between atoms: C11_23  and  N7_24
REMARK   11  A    between atoms: N7_24  and  C14_27
REMARK   12  A    between atoms: C14_27  and  C15_28
REMARK   13  A    between atoms: C15_28  and  C16_29
REMARK   14  A    between atoms: C16_29  and  N8_30
REMARK       I    between atoms: N8_30  and  C17_32
REMARK   15  A    between atoms: C17_32  and  C18_34
REMARK   16  A    between atoms: C18_34  and  N9_35
REMARK       I    between atoms: N9_35  and  C19_37
REMARK   17  A    between atoms: C19_37  and  C20_39
REMARK   18  A    between atoms: C20_39  and  C21_40
REMARK   19  A    between atoms: C21_40  and  C22_41
REMARK   20  A    between atoms: C28_49  and  N11_50
ROOT
HETATM    1  C9  UNL     1      -9.320  15.736  25.930  1.00  0.00     0.235 C
HETATM    2  O2  UNL     1      -9.414  16.916  26.287  1.00  0.00    -0.272 OA
HETATM    3  N6  UNL     1     -10.347  14.805  26.200  1.00  0.00    -0.358 N
ATOM      4  H6  UNL     1     -10.243  13.835  25.900  1.00  0.00     0.162 HD
ENDROOT
BRANCH   3   5
HETATM    5  C10 UNL     1     -11.536  15.213  26.894  1.00  0.00     0.150 C
BRANCH   5   6
HETATM    6  C11 UNL     1     -12.194  14.094  27.597  1.00  0.00     0.256 C
BRANCH   6   7
HETATM    7  N7  UNL     1     -13.538  14.267  28.056  1.00  0.00    -0.073 N
HETATM    8  C12 UNL     1     -14.441  13.377  27.420  1.00  0.00     0.272 C
HETATM    9  C13 UNL     1     -13.927  15.664  27.794  1.00  0.00     0.272 C
BRANCH   7  10
HETATM   10  C14 UNL     1     -13.501  14.122  29.499  1.00  0.00     0.238 C
BRANCH  10  11
HETATM   11  C15 UNL     1     -12.748  12.948  30.007  1.00  0.00     0.047 C
BRANCH  11  12
HETATM   12  C16 UNL     1     -13.607  12.285  31.090  1.00  0.00     0.124 C
BRANCH  12  13
HETATM   13  N8  UNL     1     -12.936  12.358  32.402  1.00  0.00    -0.360 N
HETATM   14  C17 UNL     1     -13.390  13.278  33.354  1.00  0.00     0.235 C
HETATM   15  O3  UNL     1     -14.387  14.020  33.041  1.00  0.00    -0.272 OA
ATOM     16  H8  UNL     1     -12.150  11.744  32.613  1.00  0.00     0.162 HD
BRANCH  14  17
HETATM   17  C18 UNL     1     -12.775  13.417  34.681  1.00  0.00     0.225 C
BRANCH  17  18
HETATM   18  N9  UNL     1     -11.379  13.684  34.607  1.00  0.00    -0.352 N
HETATM   19  C19 UNL     1     -10.900  15.014  34.946  1.00  0.00     0.218 C
HETATM   20  O4  UNL     1     -11.728  15.867  35.301  1.00  0.00    -0.274 OA
ATOM     21  H9  UNL     1     -10.726  12.955  34.321  1.00  0.00     0.162 HD
BRANCH  19  22
HETATM   22  C20 UNL     1      -9.469  15.302  34.859  1.00  0.00     0.107 C
BRANCH  22  23
HETATM   23  C21 UNL     1      -8.785  14.763  33.663  1.00  0.00     0.047 C
BRANCH  23  24
HETATM   24  C22 UNL     1      -9.112  15.456  32.429  1.00  0.00    -0.058 A
HETATM   25  C23 UNL     1      -8.484  16.680  32.200  1.00  0.00     0.007 A
HETATM   26  C24 UNL     1      -8.674  17.390  31.050  1.00  0.00     0.001 A
HETATM   27  C25 UNL     1      -9.520  16.866  30.085  1.00  0.00     0.000 A
HETATM   28  C26 UNL     1     -10.152  15.665  30.279  1.00  0.00     0.001 A
HETATM   29  C27 UNL     1      -9.934  14.959  31.475  1.00  0.00     0.007 A
ENDBRANCH  23  24
ENDBRANCH  22  23
ENDBRANCH  19  22
ENDBRANCH  17  18
ENDBRANCH  14  17
ENDBRANCH  12  13
ENDBRANCH  11  12
ENDBRANCH  10  11
ENDBRANCH   7  10
ENDBRANCH   6   7
ENDBRANCH   5   6
ENDBRANCH   3   5
BRANCH   1  30
HETATM   30  C8  UNL     1      -8.103  15.266  25.199  1.00  0.00     0.225 C
BRANCH  30  31
HETATM   31  N5  UNL     1      -7.737  16.088  24.093  1.00  0.00    -0.346 N
HETATM   32  C7  UNL     1      -8.275  15.925  22.813  1.00  0.00     0.287 C
HETATM   33  O1  UNL     1      -9.115  15.020  22.602  1.00  0.00    -0.264 OA
ATOM     34  H5  UNL     1      -7.051  16.828  24.242  1.00  0.00     0.163 HD
BRANCH  32  35
HETATM   35  C6  UNL     1      -7.867  16.813  21.690  1.00  0.00     0.194 A
HETATM   36  N4  UNL     1      -7.408  17.980  21.593  1.00  0.00    -0.220 N
HETATM   37  C28 UNL     1      -7.355  17.930  20.181  1.00  0.00     0.411 A
HETATM   38  N10 UNL     1      -7.855  16.631  20.306  1.00  0.00    -0.326 N
ATOM     39  H10 UNL     1      -8.103  15.877  19.665  1.00  0.00     0.165 HD
BRANCH  36  40
HETATM   40  N3  UNL     1      -7.073  18.979  22.550  1.00  0.00    -0.266 N
HETATM   41  C5  UNL     1      -5.857  18.891  23.267  1.00  0.00     0.203 C
HETATM   42  N1  UNL     1      -5.829  19.192  24.507  1.00  0.00    -0.363 N
HETATM   43  N2  UNL     1      -4.678  18.469  22.617  1.00  0.00    -0.062 NA
ATOM     44  H1  UNL     1      -6.678  19.497  24.982  1.00  0.00     0.162 HD
ATOM     45  H3  UNL     1      -7.709  19.758  22.717  1.00  0.00     0.190 HD
BRANCH  42  46
HETATM   46  C4  UNL     1      -4.584  19.096  25.230  1.00  0.00     0.122 C
BRANCH  46  47
HETATM   47  C3  UNL     1      -4.811  18.959  26.699  1.00  0.00     0.019 C
BRANCH  47  48
HETATM   48  C2  UNL     1      -6.145  18.382  27.032  1.00  0.00    -0.003 C
HETATM   49  C1  UNL     1      -6.127  17.045  27.687  1.00  0.00     0.005 C
ENDBRANCH  47  48
ENDBRANCH  46  47
ENDBRANCH  42  46
ENDBRANCH  36  40
BRANCH  37  50
HETATM   50  N11 UNL     1      -5.998  18.058  19.643  1.00  0.00    -0.039 N
ATOM     51 3H11 UNL     1      -5.855  18.985  19.242  1.00  0.00     0.279 HD
ATOM     52 2H11 UNL     1      -5.313  18.093  20.397  1.00  0.00     0.279 HD
ATOM     53 1H11 UNL     1      -5.757  17.331  18.969  1.00  0.00     0.279 HD
ENDBRANCH  37  50
ENDBRANCH  32  35
ENDBRANCH  30  31
ENDBRANCH   1  30
TORSDOF 20
ENDMDL