MODEL 3
REMARK VINA RESULT: -8.215953104      2.052      6.118
REMARK  21 active torsions:
REMARK  status: ('A' for Active; 'I' for Inactive)
REMARK    1  A    between atoms: N2_7  and  C5_8
REMARK    2  A    between atoms: C5_8  and  C6_9
REMARK    3  A    between atoms: C6_9  and  N4_13
REMARK    4  A    between atoms: N4_13  and  C7_15
REMARK    5  A    between atoms: C7_15  and  C8_16
REMARK    6  A    between atoms: C8_16  and  C9_17
REMARK    7  A    between atoms: C9_17  and  N5_18
REMARK    8  A    between atoms: N5_18  and  N6_19
REMARK       I    between atoms: N5_18  and  C14_28
REMARK    9  A    between atoms: N6_19  and  C10_20
REMARK   10  A    between atoms: C10_20  and  C11_21
REMARK   11  A    between atoms: C11_21  and  C12_22
REMARK   12  A    between atoms: C12_22  and  N7_23
REMARK   13  A    between atoms: C14_28  and  C15_30
REMARK   14  A    between atoms: C15_30  and  C16_31
REMARK   15  A    between atoms: C20_35  and  C21_36
REMARK   16  A    between atoms: C21_36  and  C22_37
REMARK   17  A    between atoms: C22_37  and  C23_38
REMARK       I    between atoms: C23_38  and  N10_40
REMARK   18  A    between atoms: N10_40  and  C24_42
REMARK   19  A    between atoms: C24_42  and  C25_43
REMARK   20  A    between atoms: C25_43  and  C26_44
REMARK   21  A    between atoms: C26_44  and  N11_45
ROOT
HETATM    1  N5  UNL     1      -8.680  15.941  28.467  1.00  0.00    -0.243 N
HETATM    2  C14 UNL     1      -9.579  15.905  29.593  1.00  0.00     0.243 C
HETATM    3  O1  UNL     1     -10.154  14.764  29.812  1.00  0.00    -0.271 OA
ENDROOT
BRANCH   1   4
HETATM    4  C9  UNL     1      -8.492  14.755  27.802  1.00  0.00     0.090 C
BRANCH   4   5
HETATM    5  C8  UNL     1      -8.846  14.530  26.369  1.00  0.00     0.066 C
BRANCH   5   6
HETATM    6  C7  UNL     1     -10.297  15.138  26.233  1.00  0.00     0.126 C
BRANCH   6   7
HETATM    7  N4  UNL     1     -10.262  16.136  25.194  1.00  0.00    -0.378 N
ATOM      8  H4  UNL     1     -11.087  16.261  24.606  1.00  0.00     0.160 HD
BRANCH   7   9
HETATM    9  C6  UNL     1      -9.147  16.936  24.960  1.00  0.00     0.089 C
HETATM   10  N3  UNL     1      -9.144  18.166  25.481  1.00  0.00    -0.388 N
ATOM     11  H32 UNL     1      -8.327  18.752  25.310  1.00  0.00     0.157 HD
ATOM     12  H31 UNL     1      -9.985  18.371  26.020  1.00  0.00     0.157 HD
BRANCH   9  13
HETATM   13  C5  UNL     1      -7.939  16.641  24.186  1.00  0.00     0.205 C
BRANCH  13  14
HETATM   14  N2  UNL     1      -8.115  16.981  22.792  1.00  0.00    -0.339 N
HETATM   15  C2  UNL     1      -8.780  16.403  21.808  1.00  0.00     0.079 A
HETATM   16  C1  UNL     1      -9.710  15.246  21.866  1.00  0.00     0.089 C
HETATM   17  N1  UNL     1      -8.525  17.113  20.667  1.00  0.00    -0.355 N
HETATM   18  C3  UNL     1      -7.715  18.114  20.964  1.00  0.00     0.106 A
ATOM     19  H1  UNL     1      -8.897  16.905  19.740  1.00  0.00     0.166 HD
HETATM   20  C4  UNL     1      -7.439  18.061  22.293  1.00  0.00     0.110 A
ENDBRANCH  13  14
ENDBRANCH   9  13
ENDBRANCH   7   9
ENDBRANCH   6   7
ENDBRANCH   5   6
ENDBRANCH   4   5
ENDBRANCH   1   4
BRANCH   1  21
HETATM   21  N6  UNL     1      -8.042  17.193  28.374  1.00  0.00    -0.132 NA
BRANCH  21  22
HETATM   22  C10 UNL     1      -6.684  17.089  27.891  1.00  0.00     0.137 C
BRANCH  22  23
HETATM   23  C11 UNL     1      -6.275  18.414  27.302  1.00  0.00     0.037 C
BRANCH  23  24
HETATM   24  C12 UNL     1      -5.309  18.411  26.180  1.00  0.00     0.123 C
BRANCH  24  25
HETATM   25  N7  UNL     1      -5.757  19.522  25.300  1.00  0.00    -0.367 N
HETATM   26  C13 UNL     1      -4.974  19.936  24.380  1.00  0.00     0.196 C
HETATM   27  N8  UNL     1      -3.709  19.344  24.196  1.00  0.00    -0.067 NA
HETATM   28  N9  UNL     1      -5.339  21.033  23.547  1.00  0.00    -0.067 NA
ATOM     29  H7  UNL     1      -6.676  19.948  25.429  1.00  0.00     0.161 HD
ENDBRANCH  24  25
ENDBRANCH  23  24
ENDBRANCH  22  23
ENDBRANCH  21  22
ENDBRANCH   1  21
BRANCH   2  30
HETATM   30  C15 UNL     1      -9.935  16.988  30.500  1.00  0.00     0.143 C
BRANCH  30  31
HETATM   31  C16 UNL     1      -9.548  16.501  31.865  1.00  0.00    -0.049 A
HETATM   32  C17 UNL     1      -8.239  16.243  32.130  1.00  0.00     0.007 A
HETATM   33  C18 UNL     1      -7.892  15.655  33.347  1.00  0.00     0.001 A
HETATM   34  C19 UNL     1      -8.915  15.365  34.229  1.00  0.00     0.007 A
HETATM   35  C20 UNL     1     -10.243  15.627  33.968  1.00  0.00    -0.057 A
HETATM   36  C28 UNL     1     -10.557  16.202  32.770  1.00  0.00     0.014 A
BRANCH  35  37
HETATM   37  C21 UNL     1     -11.294  15.251  34.949  1.00  0.00     0.048 C
BRANCH  37  38
HETATM   38  C22 UNL     1     -11.010  13.799  35.245  1.00  0.00     0.107 C
BRANCH  38  39
HETATM   39  C23 UNL     1     -11.993  12.826  34.757  1.00  0.00     0.217 C
HETATM   40  O2  UNL     1     -12.139  11.706  35.232  1.00  0.00    -0.274 OA
HETATM   41  N10 UNL     1     -12.797  13.296  33.660  1.00  0.00    -0.361 N
ATOM     42  H10 UNL     1     -12.690  14.249  33.313  1.00  0.00     0.162 HD
BRANCH  41  43
HETATM   43  C24 UNL     1     -13.747  12.414  33.062  1.00  0.00     0.124 C
BRANCH  43  44
HETATM   44  C25 UNL     1     -14.245  13.095  31.774  1.00  0.00     0.039 C
BRANCH  44  45
HETATM   45  C26 UNL     1     -12.977  13.657  31.073  1.00  0.00     0.123 C
BRANCH  45  46
HETATM   46  N11 UNL     1     -13.386  14.688  30.157  1.00  0.00    -0.367 N
HETATM   47  C27 UNL     1     -13.407  14.527  28.891  1.00  0.00     0.196 C
HETATM   48  N12 UNL     1     -13.827  15.596  28.076  1.00  0.00    -0.067 NA
HETATM   49  N13 UNL     1     -13.002  13.270  28.351  1.00  0.00    -0.067 NA
ATOM     50  H11 UNL     1     -13.674  15.589  30.537  1.00  0.00     0.161 HD
ENDBRANCH  45  46
ENDBRANCH  44  45
ENDBRANCH  43  44
ENDBRANCH  41  43
ENDBRANCH  38  39
ENDBRANCH  37  38
ENDBRANCH  35  37
ENDBRANCH  30  31
ENDBRANCH   2  30
TORSDOF 21
ENDMDL