MODEL 4
REMARK VINA RESULT: -8.312234815      2.732     10.610
REMARK  21 active torsions:
REMARK  status: ('A' for Active; 'I' for Inactive)
REMARK       I    between atoms: N2_3  and  C2_5
REMARK       I    between atoms: C2_5  and  N10_49
REMARK       I    between atoms: N3_6  and  C3_8
REMARK       I    between atoms: C3_8  and  N5_12
REMARK    1  A    between atoms: N5_12  and  C4_14
REMARK    2  A    between atoms: C4_14  and  C5_15
REMARK    3  A    between atoms: C5_15  and  C6_16
REMARK    4  A    between atoms: C6_16  and  C7_17
REMARK    5  A    between atoms: C7_17  and  C8_18
REMARK    6  A    between atoms: C8_18  and  C9_19
REMARK       I    between atoms: C9_19  and  N6_21
REMARK    7  A    between atoms: N6_21  and  C10_23
REMARK    8  A    between atoms: C10_23  and  C11_24
REMARK    9  A    between atoms: C11_24  and  C12_25
REMARK   10  A    between atoms: C12_25  and  C13_26
REMARK   11  A    between atoms: C13_26  and  C14_27
REMARK   12  A    between atoms: C14_27  and  C15_28
REMARK       I    between atoms: C15_28  and  N7_30
REMARK   13  A    between atoms: N7_30  and  C16_32
REMARK   14  A    between atoms: C16_32  and  C17_33
REMARK   15  A    between atoms: C16_32  and  C18_36
REMARK   16  A    between atoms: C17_33  and  O3_34
REMARK   17  A    between atoms: C18_36  and  C19_37
REMARK   18  A    between atoms: C19_37  and  C20_38
REMARK   19  A    between atoms: C20_38  and  C21_39
REMARK   20  A    between atoms: C21_39  and  N8_40
REMARK   21  A    between atoms: N10_49  and  N11_51
ROOT
HETATM    1  N1  UNL     1      -9.276  16.548  31.376  1.00  0.00    -0.171 NA
HETATM    2  C1  UNL     1      -9.991  15.641  31.490  1.00  0.00     0.196 C
HETATM    3  N2  UNL     1     -10.841  14.549  31.646  1.00  0.00    -0.124 N
ATOM      4  H2  UNL     1     -10.423  13.632  31.807  1.00  0.00     0.197 HD
HETATM    5  C2  UNL     1     -12.267  14.641  31.592  1.00  0.00     0.721 C
HETATM    6  N3  UNL     1     -12.837  14.313  30.494  1.00  0.00    -0.021 N
ATOM      7  H3  UNL     1     -12.256  14.004  29.715  1.00  0.00     0.203 HD
HETATM    8  C3  UNL     1     -14.229  14.361  30.316  1.00  0.00     0.686 C
HETATM    9  N4  UNL     1     -14.977  15.125  31.013  1.00  0.00    -0.234 N
ATOM     10  H41 UNL     1     -15.988  15.161  30.884  1.00  0.00     0.174 HD
ATOM     11  H42 UNL     1     -14.570  15.728  31.729  1.00  0.00     0.174 HD
HETATM   12  N5  UNL     1     -14.799  13.519  29.316  1.00  0.00    -0.226 N
ATOM     13  H5  UNL     1     -14.947  12.521  29.465  1.00  0.00     0.177 HD
HETATM   14  N10 UNL     1     -13.040  15.073  32.692  1.00  0.00    -0.117 N
ATOM     15  H10 UNL     1     -13.246  16.065  32.808  1.00  0.00     0.207 HD
ENDROOT
BRANCH  14  16
HETATM   16  N11 UNL     1     -13.520  14.155  33.619  1.00  0.00    -0.235 N
HETATM   17  N12 UNL     1     -12.847  13.944  34.674  1.00  0.00    -0.330 N
ATOM     18 2H12 UNL     1     -11.972  14.446  34.824  1.00  0.00     0.178 HD
ATOM     19 1H12 UNL     1     -13.200  13.270  35.354  1.00  0.00     0.178 HD
ATOM     20  H11 UNL     1     -14.398  13.661  33.454  1.00  0.00     0.208 HD
ENDBRANCH  14  16
BRANCH  12  21
HETATM   21  C4  UNL     1     -15.158  14.179  28.064  1.00  0.00     0.138 C
BRANCH  21  22
HETATM   22  C5  UNL     1     -13.907  14.807  27.511  1.00  0.00     0.020 C
BRANCH  22  23
HETATM   23  C6  UNL     1     -13.052  13.689  26.917  1.00  0.00     0.002 C
BRANCH  23  24
HETATM   24  C7  UNL     1     -11.615  14.069  26.891  1.00  0.00     0.009 C
BRANCH  24  25
HETATM   25  C8  UNL     1     -11.318  15.283  27.680  1.00  0.00     0.103 C
BRANCH  25  26
HETATM   26  C9  UNL     1     -10.221  16.092  27.149  1.00  0.00     0.217 C
HETATM   27  O1  UNL     1      -9.202  16.403  27.783  1.00  0.00    -0.274 OA
HETATM   28  N6  UNL     1     -10.320  16.569  25.796  1.00  0.00    -0.361 N
ATOM     29  H6  UNL     1     -11.146  16.326  25.250  1.00  0.00     0.162 HD
BRANCH  28  30
HETATM   30  C10 UNL     1      -9.294  17.382  25.179  1.00  0.00     0.122 C
BRANCH  30  31
HETATM   31  C11 UNL     1      -8.373  16.501  24.342  1.00  0.00     0.020 C
BRANCH  31  32
HETATM   32  C12 UNL     1      -9.210  15.542  23.534  1.00  0.00     0.002 C
BRANCH  32  33
HETATM   33  C13 UNL     1      -8.500  15.026  22.325  1.00  0.00     0.009 C
BRANCH  33  34
HETATM   34  C14 UNL     1      -8.950  15.805  21.119  1.00  0.00     0.103 C
BRANCH  34  35
HETATM   35  C15 UNL     1      -8.018  16.938  20.909  1.00  0.00     0.217 C
HETATM   36  O2  UNL     1      -8.488  18.021  20.483  1.00  0.00    -0.274 OA
HETATM   37  N7  UNL     1      -6.626  16.782  21.189  1.00  0.00    -0.354 N
ATOM     38  H7  UNL     1      -6.286  15.883  21.531  1.00  0.00     0.162 HD
BRANCH  37  39
HETATM   39  C16 UNL     1      -5.684  17.866  20.998  1.00  0.00     0.108 C
BRANCH  39  40
HETATM   40  C17 UNL     1      -4.472  17.197  20.306  1.00  0.00     0.189 C
BRANCH  40  41
HETATM   41  O3  UNL     1      -4.690  15.824  20.216  1.00  0.00    -0.399 OA
ATOM     42  H3  UNL     1      -3.879  15.391  19.977  1.00  0.00     0.209 HD
ENDBRANCH  40  41
ENDBRANCH  39  40
BRANCH  39  43
HETATM   43  C18 UNL     1      -5.158  18.435  22.286  1.00  0.00     0.027 C
BRANCH  43  44
HETATM   44  C19 UNL     1      -3.685  18.218  22.501  1.00  0.00     0.004 C
BRANCH  44  45
HETATM   45  C20 UNL     1      -3.411  17.491  23.800  1.00  0.00     0.020 C
BRANCH  45  46
HETATM   46  C21 UNL     1      -3.371  18.441  24.978  1.00  0.00     0.126 C
BRANCH  46  47
HETATM   47  N8  UNL     1      -4.668  18.357  25.639  1.00  0.00    -0.343 N
HETATM   48  C22 UNL     1      -5.228  17.044  25.957  1.00  0.00     0.146 C
HETATM   49  C23 UNL     1      -5.502  17.033  27.449  1.00  0.00     0.143 C
HETATM   50  N9  UNL     1      -6.491  18.080  27.698  1.00  0.00    -0.351 N
HETATM   51  C24 UNL     1      -6.386  19.354  27.081  1.00  0.00     0.309 C
ATOM     52  H9  UNL     1      -7.270  17.891  28.327  1.00  0.00     0.162 HD
HETATM   53  O4  UNL     1      -7.090  20.325  27.448  1.00  0.00    -0.262 OA
HETATM   54  C25 UNL     1      -5.420  19.498  25.991  1.00  0.00     0.311 C
HETATM   55  O5  UNL     1      -5.236  20.567  25.372  1.00  0.00    -0.262 OA
ENDBRANCH  46  47
ENDBRANCH  45  46
ENDBRANCH  44  45
ENDBRANCH  43  44
ENDBRANCH  39  43
ENDBRANCH  37  39
ENDBRANCH  34  35
ENDBRANCH  33  34
ENDBRANCH  32  33
ENDBRANCH  31  32
ENDBRANCH  30  31
ENDBRANCH  28  30
ENDBRANCH  25  26
ENDBRANCH  24  25
ENDBRANCH  23  24
ENDBRANCH  22  23
ENDBRANCH  21  22
ENDBRANCH  12  21
TORSDOF 21
ENDMDL