MODEL 4
REMARK VINA RESULT: -7.797464452      2.001      5.219
REMARK  20 active torsions:
REMARK  status: ('A' for Active; 'I' for Inactive)
REMARK       I    between atoms: C2_2  and  N1_4
REMARK    1  A    between atoms: N1_4  and  C3_6
REMARK    2  A    between atoms: C5_10  and  C6_11
REMARK       I    between atoms: C6_11  and  N3_13
REMARK    3  A    between atoms: N3_13  and  C7_15
REMARK    4  A    between atoms: C7_15  and  C8_16
REMARK    5  A    between atoms: C8_16  and  C9_17
REMARK    6  A    between atoms: C9_17  and  N4_18
REMARK    7  A    between atoms: N4_18  and  C12_21
REMARK    8  A    between atoms: C12_21  and  C13_22
REMARK    9  A    between atoms: C13_22  and  C14_23
REMARK   10  A    between atoms: C14_23  and  S1_24
REMARK   11  A    between atoms: S1_24  and  N5_27
REMARK   12  A    between atoms: N5_27  and  C15_29
REMARK   13  A    between atoms: C15_29  and  C16_30
REMARK   14  A    between atoms: C16_30  and  C17_31
REMARK   15  A    between atoms: C17_31  and  C18_32
REMARK   16  A    between atoms: C18_32  and  N6_33
REMARK   17  A    between atoms: N9_39  and  C21_41
REMARK   18  A    between atoms: C21_41  and  C22_42
REMARK   19  A    between atoms: C22_42  and  C23_43
REMARK   20  A    between atoms: C23_43  and  N10_44
ROOT
HETATM    1  C6  UNL     1      -8.671  17.409  27.955  1.00  0.00     0.256 C
HETATM    2  O2  UNL     1      -9.831  17.818  27.675  1.00  0.00    -0.267 OA
HETATM    3  N3  UNL     1      -8.319  16.801  29.217  1.00  0.00    -0.357 N
ATOM      4  H3  UNL     1      -7.417  16.353  29.376  1.00  0.00     0.162 HD
ENDROOT
BRANCH   1   5
HETATM    5  C5  UNL     1      -7.537  17.600  27.031  1.00  0.00     0.092 A
HETATM    6  C4  UNL     1      -6.418  18.224  27.663  1.00  0.00     0.127 A
HETATM    7  N2  UNL     1      -5.506  18.754  26.954  1.00  0.00    -0.200 N
HETATM    8  C3  UNL     1      -5.558  18.759  25.610  1.00  0.00     0.686 A
ATOM      9  H2  UNL     1      -4.710  19.190  27.419  1.00  0.00     0.183 HD
HETATM   10  N13 UNL     1      -6.587  18.190  25.074  1.00  0.00    -0.176 N
HETATM   11  C20 UNL     1      -7.617  17.551  25.714  1.00  0.00     0.134 A
ATOM     12  H13 UNL     1      -6.638  18.221  24.055  1.00  0.00     0.186 HD
HETATM   13  N9  UNL     1      -8.611  16.946  25.267  1.00  0.00    -0.375 N
ATOM     14  H9  UNL     1      -9.184  16.593  26.033  1.00  0.00     0.161 HD
BRANCH   8  15
HETATM   15  N1  UNL     1      -4.614  19.468  25.066  1.00  0.00    -0.160 N
HETATM   16  C2  UNL     1      -4.177  19.110  23.828  1.00  0.00     0.231 C
HETATM   17  C1  UNL     1      -3.102  17.880  24.163  1.00  0.00     0.118 C
HETATM   18  O1  UNL     1      -4.360  19.360  22.722  1.00  0.00    -0.273 OA
ATOM     19  H1  UNL     1      -4.212  20.270  25.552  1.00  0.00     0.187 HD
ENDBRANCH   8  15
BRANCH  13  20
HETATM   20  C21 UNL     1      -9.190  16.597  24.012  1.00  0.00     0.126 C
BRANCH  20  21
HETATM   21  C22 UNL     1      -8.437  15.297  23.535  1.00  0.00     0.064 C
BRANCH  21  22
HETATM   22  C23 UNL     1      -8.548  15.297  22.014  1.00  0.00     0.065 C
BRANCH  22  23
HETATM   23  N10 UNL     1      -7.493  15.968  21.393  1.00  0.00    -0.346 N
HETATM   24  C24 UNL     1      -7.432  17.083  20.782  1.00  0.00     0.200 C
HETATM   25  N11 UNL     1      -8.608  17.874  20.577  1.00  0.00    -0.067 NA
HETATM   26  N12 UNL     1      -6.149  17.564  20.408  1.00  0.00    -0.067 NA
ATOM     27  H10 UNL     1      -6.604  15.472  21.437  1.00  0.00     0.167 HD
ENDBRANCH  22  23
ENDBRANCH  21  22
ENDBRANCH  20  21
ENDBRANCH  13  20
ENDBRANCH   1   5
BRANCH   3  28
HETATM   28  C7  UNL     1      -9.340  16.874  30.236  1.00  0.00     0.124 C
BRANCH  28  29
HETATM   29  C8  UNL     1      -8.562  16.364  31.450  1.00  0.00     0.048 C
BRANCH  29  30
HETATM   30  C9  UNL     1      -8.904  17.047  32.738  1.00  0.00     0.238 C
BRANCH  30  31
HETATM   31  N4  UNL     1      -9.484  15.981  33.601  1.00  0.00    -0.075 N
HETATM   32  C10 UNL     1      -9.418  16.337  34.949  1.00  0.00     0.272 C
HETATM   33  C11 UNL     1      -8.823  14.768  33.271  1.00  0.00     0.272 C
BRANCH  31  34
HETATM   34  C12 UNL     1     -10.867  16.040  33.038  1.00  0.00     0.237 C
BRANCH  34  35
HETATM   35  C13 UNL     1     -11.507  14.741  33.213  1.00  0.00     0.045 C
BRANCH  35  36
HETATM   36  C14 UNL     1     -12.990  14.596  33.021  1.00  0.00     0.165 C
BRANCH  36  37
HETATM   37  S1  UNL     1     -13.282  13.925  31.353  1.00  0.00     0.236 S
HETATM   38  O3  UNL     1     -13.602  12.486  31.476  1.00  0.00    -0.205 OA
HETATM   39  O4  UNL     1     -12.216  14.248  30.502  1.00  0.00    -0.205 OA
BRANCH  37  40
HETATM   40  N5  UNL     1     -14.720  14.831  30.822  1.00  0.00    -0.253 N
ATOM     41  H5  UNL     1     -15.351  15.416  31.370  1.00  0.00     0.188 HD
BRANCH  40  42
HETATM   42  C15 UNL     1     -14.755  14.543  29.514  1.00  0.00    -0.061 C
BRANCH  42  43
HETATM   43  C16 UNL     1     -14.787  14.312  28.142  1.00  0.00     0.106 C
BRANCH  43  44
HETATM   44  C17 UNL     1     -14.205  12.958  27.584  1.00  0.00     0.033 C
BRANCH  44  45
HETATM   45  C18 UNL     1     -13.021  13.248  26.651  1.00  0.00     0.123 C
BRANCH  45  46
HETATM   46  N6  UNL     1     -11.829  13.201  27.480  1.00  0.00    -0.367 N
HETATM   47  C19 UNL     1     -10.970  14.192  27.210  1.00  0.00     0.196 C
HETATM   48  N7  UNL     1      -9.776  14.162  28.004  1.00  0.00    -0.067 NA
HETATM   49  N8  UNL     1     -11.255  15.234  26.321  1.00  0.00    -0.067 NA
ATOM     50  H6  UNL     1     -11.664  12.489  28.192  1.00  0.00     0.161 HD
ENDBRANCH  45  46
ENDBRANCH  44  45
ENDBRANCH  43  44
ENDBRANCH  42  43
ENDBRANCH  40  42
ENDBRANCH  37  40
ENDBRANCH  36  37
ENDBRANCH  35  36
ENDBRANCH  34  35
ENDBRANCH  31  34
ENDBRANCH  30  31
ENDBRANCH  29  30
ENDBRANCH  28  29
ENDBRANCH   3  28
TORSDOF 20
ENDMDL