MODEL 2
REMARK VINA RESULT: -8.650020204      1.882     11.611
REMARK  19 active torsions:
REMARK  status: ('A' for Active; 'I' for Inactive)
REMARK       I    between atoms: N1_4  and  C4_6
REMARK    1  A    between atoms: C4_6  and  C5_8
REMARK    2  A    between atoms: C5_8  and  C6_9
REMARK    3  A    between atoms: C5_8  and  N6_25
REMARK    4  A    between atoms: C6_9  and  C7_10
REMARK    5  A    between atoms: N4_17  and  C10_19
REMARK    6  A    between atoms: C10_19  and  C11_20
REMARK    7  A    between atoms: C11_20  and  N5_21
REMARK    8  A    between atoms: N5_21  and  C12_23
REMARK    9  A    between atoms: C13_27  and  O3_28
REMARK   10  A    between atoms: C13_27  and  C14_30
REMARK   11  A    between atoms: C14_30  and  C15_31
REMARK   12  A    between atoms: C15_31  and  C16_32
REMARK   13  A    between atoms: C16_32  and  C17_33
REMARK   14  A    between atoms: C17_33  and  C18_34
REMARK   15  A    between atoms: C20_36  and  O4_37
REMARK   16  A    between atoms: C22_41  and  C23_42
REMARK   17  A    between atoms: C23_42  and  C24_43
REMARK   18  A    between atoms: C24_43  and  C25_44
REMARK   19  A    between atoms: C25_44  and  N8_45
REMARK       I    between atoms: N8_45  and  C26_47
REMARK       I    between atoms: C26_47  and  N10_51
ROOT
HETATM    1  C1  UNL     1      -8.376  16.821  32.837  1.00  0.00     0.103 C
HETATM    2  C2  UNL     1      -9.138  16.941  31.669  1.00  0.00    -0.143 C
HETATM    3  C3  UNL     1      -9.808  17.059  30.578  1.00  0.00     0.142 C
HETATM    4  N1  UNL     1     -10.612  16.455  29.744  1.00  0.00    -0.325 N
ATOM      5  H1  UNL     1     -11.447  17.006  29.544  1.00  0.00     0.169 HD
HETATM    6  C4  UNL     1     -10.605  15.017  28.934  1.00  0.00     0.268 C
HETATM    7  O1  UNL     1      -9.910  14.444  29.595  1.00  0.00    -0.266 OA
ENDROOT
BRANCH   6   8
HETATM    8  C5  UNL     1     -11.531  15.348  27.828  1.00  0.00     0.084 C
BRANCH   8   9
HETATM    9  C6  UNL     1     -12.926  15.722  28.338  1.00  0.00     0.107 C
BRANCH   9  10
HETATM   10  C7  UNL     1     -13.545  14.391  28.636  1.00  0.00     0.009 A
HETATM   11  C8  UNL     1     -14.062  13.430  27.696  1.00  0.00     0.118 A
HETATM   12  N2  UNL     1     -14.734  12.662  28.413  1.00  0.00    -0.310 N
HETATM   13  N3  UNL     1     -14.795  12.902  29.699  1.00  0.00    -0.286 N
ATOM     14  H2  UNL     1     -15.224  11.865  28.007  1.00  0.00     0.186 HD
HETATM   15  C9  UNL     1     -14.057  13.985  29.942  1.00  0.00     0.123 A
ATOM     16  H3  UNL     1     -15.313  12.359  30.389  1.00  0.00     0.188 HD
HETATM   17  N4  UNL     1     -13.560  14.671  30.870  1.00  0.00    -0.373 N
ATOM     18  H4  UNL     1     -12.889  15.367  30.543  1.00  0.00     0.161 HD
BRANCH  17  19
HETATM   19  C10 UNL     1     -13.740  14.678  32.293  1.00  0.00     0.141 C
BRANCH  19  20
HETATM   20  C11 UNL     1     -12.180  15.139  32.721  1.00  0.00     0.141 C
BRANCH  20  21
HETATM   21  N5  UNL     1     -11.994  14.069  33.750  1.00  0.00    -0.367 N
ATOM     22  H5  UNL     1     -12.007  13.067  33.559  1.00  0.00     0.161 HD
BRANCH  21  23
HETATM   23  C12 UNL     1     -11.791  14.671  35.072  1.00  0.00     0.348 C
HETATM   24  O2  UNL     1     -11.784  15.909  35.142  1.00  0.00    -0.284 OA
ENDBRANCH  21  23
ENDBRANCH  20  21
ENDBRANCH  19  20
ENDBRANCH  17  19
ENDBRANCH   9  10
ENDBRANCH   8   9
BRANCH   8  25
HETATM   25  N6  UNL     1     -10.897  16.009  26.787  1.00  0.00    -0.339 N
HETATM   26  C13 UNL     1     -10.159  17.028  26.423  1.00  0.00     0.115 C
ATOM     27  H6  UNL     1     -11.088  15.471  25.941  1.00  0.00     0.167 HD
BRANCH  26  28
HETATM   28  O3  UNL     1      -9.880  18.084  27.160  1.00  0.00    -0.349 OA
ATOM     29  H3  UNL     1     -10.513  18.647  27.589  1.00  0.00     0.219 HD
ENDBRANCH  26  28
BRANCH  26  30
HETATM   30  C14 UNL     1      -9.491  17.007  25.019  1.00  0.00     0.084 C
BRANCH  30  31
HETATM   31  C15 UNL     1      -9.254  15.603  24.608  1.00  0.00     0.008 C
BRANCH  31  32
HETATM   32  C16 UNL     1      -8.992  15.463  23.145  1.00  0.00     0.002 C
BRANCH  32  33
HETATM   33  C17 UNL     1      -8.965  16.746  22.353  1.00  0.00     0.026 C
BRANCH  33  34
HETATM   34  C18 UNL     1      -7.682  17.332  21.970  1.00  0.00     0.092 C
HETATM   35  C19 UNL     1      -7.410  17.649  20.520  1.00  0.00     0.108 C
HETATM   36  C20 UNL     1      -5.942  17.810  20.258  1.00  0.00     0.116 C
HETATM   37  N7  UNL     1      -4.813  17.763  20.986  1.00  0.00    -0.353 N
HETATM   38  C21 UNL     1      -3.598  17.342  20.388  1.00  0.00     0.152 C
HETATM   39  C22 UNL     1      -4.675  18.100  22.464  1.00  0.00     0.200 C
HETATM   40  C27 UNL     1      -5.842  18.945  22.761  1.00  0.00     0.244 C
HETATM   41  O5  UNL     1      -5.778  20.148  23.018  1.00  0.00    -0.271 OA
HETATM   42  N11 UNL     1      -7.222  18.449  22.762  1.00  0.00    -0.354 N
ATOM     43  H11 UNL     1      -7.899  18.922  23.360  1.00  0.00     0.162 HD
BRANCH  36  44
HETATM   44  O4  UNL     1      -5.769  18.076  18.995  1.00  0.00    -0.349 OA
ATOM     45  H4  UNL     1      -4.945  17.696  18.713  1.00  0.00     0.219 HD
ENDBRANCH  36  44
BRANCH  39  46
HETATM   46  C23 UNL     1      -3.341  18.522  22.734  1.00  0.00     0.005 C
BRANCH  46  47
HETATM   47  C24 UNL     1      -2.780  18.877  24.058  1.00  0.00    -0.008 C
BRANCH  47  48
HETATM   48  C25 UNL     1      -3.382  18.472  25.331  1.00  0.00     0.165 C
BRANCH  48  49
HETATM   49  N8  UNL     1      -4.258  19.586  25.835  1.00  0.00    -0.224 N
HETATM   50  C26 UNL     1      -5.509  18.920  26.338  1.00  0.00     0.665 C
HETATM   51  N9  UNL     1      -5.516  17.639  26.199  1.00  0.00    -0.235 N
HETATM   52  N10 UNL     1      -6.255  20.005  26.728  1.00  0.00    -0.235 N
ATOM     53  H92 UNL     1      -4.961  16.833  25.910  1.00  0.00     0.174 HD
ATOM     54  H91 UNL     1      -6.365  17.187  26.540  1.00  0.00     0.174 HD
ATOM     55 2H10 UNL     1      -6.250  21.019  26.839  1.00  0.00     0.174 HD
ATOM     56 1H10 UNL     1      -7.104  19.554  27.069  1.00  0.00     0.174 HD
ATOM     57  H8  UNL     1      -4.047  20.584  25.834  1.00  0.00     0.178 HD
ENDBRANCH  48  49
ENDBRANCH  47  48
ENDBRANCH  46  47
ENDBRANCH  39  46
ENDBRANCH  33  34
ENDBRANCH  32  33
ENDBRANCH  31  32
ENDBRANCH  30  31
ENDBRANCH  26  30
ENDBRANCH   8  25
ENDBRANCH   6   8
TORSDOF 19
ENDMDL