MODEL 3
REMARK VINA RESULT: -8.355915750      1.743      1.967
REMARK  20 active torsions:
REMARK  status: ('A' for Active; 'I' for Inactive)
REMARK    1  A    between atoms: N1_1  and  C1_5
REMARK    2  A    between atoms: C1_5  and  C2_6
REMARK    3  A    between atoms: C2_6  and  C3_7
REMARK    4  A    between atoms: C3_7  and  C4_8
REMARK    5  A    between atoms: C4_8  and  N2_9
REMARK    6  A    between atoms: C7_14  and  C8_15
REMARK    7  A    between atoms: C8_15  and  C9_16
REMARK    8  A    between atoms: C9_16  and  C10_17
REMARK    9  A    between atoms: C9_16  and  N4_19
REMARK       I    between atoms: N4_19  and  C11_21
REMARK   10  A    between atoms: C11_21  and  C12_23
REMARK       I    between atoms: C12_23  and  N5_25
REMARK   11  A    between atoms: N5_25  and  C13_27
REMARK   12  A    between atoms: C13_27  and  C14_28
REMARK   13  A    between atoms: C14_28  and  N6_29
REMARK   14  A    between atoms: C14_28  and  C16_33
REMARK   15  A    between atoms: N6_29  and  C15_31
REMARK       I    between atoms: C16_33  and  N7_35
REMARK   16  A    between atoms: N7_35  and  C17_37
REMARK   17  A    between atoms: C17_37  and  C18_38
REMARK       I    between atoms: C18_38  and  N8_40
REMARK   18  A    between atoms: N8_40  and  C19_42
REMARK   19  A    between atoms: C19_42  and  C20_43
REMARK   20  A    between atoms: C20_43  and  C21_44
ROOT
HETATM    1  C13 UNL     1     -11.498  14.778  26.905  1.00  0.00     0.158 C
ENDROOT
BRANCH   1   2
HETATM    2  N5  UNL     1     -10.983  15.708  25.932  1.00  0.00    -0.350 N
HETATM    3  C12 UNL     1      -9.617  15.650  25.597  1.00  0.00     0.309 C
HETATM    4  O3  UNL     1      -8.856  14.797  26.142  1.00  0.00    -0.262 OA
ATOM      5  H5  UNL     1     -11.597  16.395  25.494  1.00  0.00     0.162 HD
BRANCH   3   6
HETATM    6  C11 UNL     1      -9.082  16.603  24.599  1.00  0.00     0.309 C
HETATM    7  N4  UNL     1      -8.612  16.089  23.393  1.00  0.00    -0.342 N
ATOM      8  H4  UNL     1      -8.701  15.077  23.309  1.00  0.00     0.163 HD
HETATM    9  O2  UNL     1      -9.101  17.806  24.930  1.00  0.00    -0.262 OA
BRANCH   7  10
HETATM   10  C9  UNL     1      -8.023  16.723  22.244  1.00  0.00     0.152 C
BRANCH  10  11
HETATM   11  C8  UNL     1      -7.317  18.019  22.601  1.00  0.00     0.091 C
BRANCH  11  12
HETATM   12  C7  UNL     1      -5.851  17.880  22.546  1.00  0.00     0.032 A
HETATM   13  N2  UNL     1      -5.062  17.819  23.637  1.00  0.00    -0.297 N
HETATM   14  N3  UNL     1      -3.806  17.721  23.231  1.00  0.00    -0.310 N
HETATM   15  C5  UNL     1      -3.754  17.717  21.884  1.00  0.00     0.109 A
ATOM     16  H3  UNL     1      -2.996  17.658  23.848  1.00  0.00     0.186 HD
HETATM   17  C6  UNL     1      -5.037  17.817  21.410  1.00  0.00     0.045 A
BRANCH  13  18
HETATM   18  C4  UNL     1      -5.542  17.860  25.025  1.00  0.00     0.149 C
BRANCH  18  19
HETATM   19  C3  UNL     1      -5.363  19.227  25.601  1.00  0.00     0.023 C
BRANCH  19  20
HETATM   20  C2  UNL     1      -5.407  19.317  27.088  1.00  0.00     0.029 C
BRANCH  20  21
HETATM   21  C1  UNL     1      -6.562  20.108  27.631  1.00  0.00     0.229 C
BRANCH  21  22
HETATM   22  N1  UNL     1      -7.797  19.434  27.271  1.00  0.00    -0.079 N
ATOM     23  H13 UNL     1      -8.072  19.611  26.305  1.00  0.00     0.274 HD
ATOM     24  H12 UNL     1      -7.685  18.423  27.201  1.00  0.00     0.274 HD
ATOM     25  H11 UNL     1      -8.521  19.702  27.938  1.00  0.00     0.274 HD
ENDBRANCH  21  22
ENDBRANCH  20  21
ENDBRANCH  19  20
ENDBRANCH  18  19
ENDBRANCH  13  18
ENDBRANCH  11  12
ENDBRANCH  10  11
BRANCH  10  26
HETATM   26  C10 UNL     1      -9.142  17.036  21.330  1.00  0.00     0.256 C
HETATM   27  O1  UNL     1      -9.119  17.946  20.523  1.00  0.00    -0.305 OA
ENDBRANCH  10  26
ENDBRANCH   7  10
ENDBRANCH   3   6
ENDBRANCH   1   2
BRANCH   1  28
HETATM   28  C14 UNL     1     -11.655  15.339  28.276  1.00  0.00     0.193 C
BRANCH  28  29
HETATM   29  N6  UNL     1     -11.898  16.746  28.344  1.00  0.00    -0.353 N
ATOM     30  H6  UNL     1     -12.844  17.083  28.164  1.00  0.00     0.162 HD
BRANCH  29  31
HETATM   31  C15 UNL     1     -10.891  17.700  28.650  1.00  0.00     0.349 C
HETATM   32  O4  UNL     1      -9.708  17.518  28.319  1.00  0.00    -0.284 OA
ENDBRANCH  29  31
ENDBRANCH  28  29
BRANCH  28  33
HETATM   33  C16 UNL     1     -12.763  14.593  28.964  1.00  0.00     0.242 C
HETATM   34  O5  UNL     1     -12.528  13.417  29.376  1.00  0.00    -0.271 OA
HETATM   35  N7  UNL     1     -14.052  15.153  29.164  1.00  0.00    -0.350 N
ATOM     36  H7  UNL     1     -14.239  16.102  28.842  1.00  0.00     0.163 HD
BRANCH  35  37
HETATM   37  C17 UNL     1     -15.081  14.424  29.799  1.00  0.00     0.225 C
BRANCH  37  38
HETATM   38  C18 UNL     1     -15.157  14.533  31.292  1.00  0.00     0.238 C
HETATM   39  O6  UNL     1     -16.317  14.925  31.677  1.00  0.00    -0.271 OA
HETATM   40  N8  UNL     1     -14.088  14.232  32.118  1.00  0.00    -0.339 N
ATOM     41  H8  UNL     1     -13.256  13.941  31.605  1.00  0.00     0.167 HD
BRANCH  40  42
HETATM   42  C19 UNL     1     -13.902  14.241  33.511  1.00  0.00     0.068 C
BRANCH  42  43
HETATM   43  C20 UNL     1     -12.627  13.810  34.092  1.00  0.00     0.085 C
BRANCH  43  44
HETATM   44  C21 UNL     1     -11.594  14.804  34.306  1.00  0.00    -0.025 A
HETATM   45  C22 UNL     1     -11.242  15.444  35.505  1.00  0.00     0.096 A
HETATM   46  N9  UNL     1     -10.193  16.230  35.260  1.00  0.00    -0.365 N
HETATM   47  C23 UNL     1      -9.822  16.156  33.973  1.00  0.00     0.042 A
ATOM     48  H9  UNL     1      -9.732  16.811  35.960  1.00  0.00     0.165 HD
HETATM   49  C24 UNL     1      -8.789  16.795  33.282  1.00  0.00     0.030 A
HETATM   50  C28 UNL     1     -10.674  15.283  33.371  1.00  0.00    -0.002 A
HETATM   51  C25 UNL     1      -8.633  16.526  31.940  1.00  0.00     0.002 A
HETATM   52  C26 UNL     1      -9.496  15.641  31.326  1.00  0.00     0.001 A
HETATM   53  C27 UNL     1     -10.506  15.021  32.017  1.00  0.00     0.014 A
ENDBRANCH  43  44
ENDBRANCH  42  43
ENDBRANCH  40  42
ENDBRANCH  37  38
ENDBRANCH  35  37
ENDBRANCH  28  33
ENDBRANCH   1  28
TORSDOF 20
ENDMDL