MODEL 2
REMARK VINA RESULT: -8.261467627      2.087     10.795
REMARK  19 active torsions:
REMARK  status: ('A' for Active; 'I' for Inactive)
REMARK       I    between atoms: C1_4  and  N2_5
REMARK       I    between atoms: C1_4  and  N5_10
REMARK    1  A    between atoms: N5_10  and  C3_12
REMARK    2  A    between atoms: C3_12  and  C4_13
REMARK    3  A    between atoms: C4_13  and  C5_14
REMARK    4  A    between atoms: C5_14  and  N6_15
REMARK       I    between atoms: C6_17  and  N7_18
REMARK       I    between atoms: C6_17  and  N10_34
REMARK    5  A    between atoms: N7_18  and  C7_20
REMARK    6  A    between atoms: C7_20  and  C8_21
REMARK    7  A    between atoms: C8_21  and  C9_22
REMARK    8  A    between atoms: C9_22  and  N8_23
REMARK    9  A    between atoms: N8_23  and  C10_26
REMARK   10  A    between atoms: C10_26  and  C11_27
REMARK   11  A    between atoms: C11_27  and  N9_28
REMARK   12  A    between atoms: N9_28  and  C12_30
REMARK   13  A    between atoms: C12_30  and  C13_31
REMARK   14  A    between atoms: C13_31  and  O1_32
REMARK       I    between atoms: N11_37  and  C16_38
REMARK   15  A    between atoms: C16_38  and  C17_40
REMARK   16  A    between atoms: C17_40  and  C18_41
REMARK   17  A    between atoms: C18_41  and  N12_42
REMARK       I    between atoms: N12_42  and  C19_44
REMARK   18  A    between atoms: C19_44  and  C20_46
REMARK   19  A    between atoms: C21_47  and  C22_48
ROOT
HETATM    1  N6  UNL     1     -10.357  17.400  28.364  1.00  0.00    -0.206 N
ATOM      2  H6  UNL     1     -11.323  17.232  28.085  1.00  0.00     0.183 HD
HETATM    3  C6  UNL     1      -9.587  17.476  27.388  1.00  0.00     0.675 C
HETATM    4  N7  UNL     1     -10.104  17.327  26.064  1.00  0.00    -0.226 N
ATOM      5  H7  UNL     1     -10.277  18.151  25.487  1.00  0.00     0.177 HD
HETATM    6  N10 UNL     1      -8.190  17.705  27.546  1.00  0.00    -0.215 N
HETATM    7  C14 UNL     1      -7.659  18.863  28.219  1.00  0.00     0.161 C
HETATM    8  C15 UNL     1      -6.524  19.544  27.525  1.00  0.00     0.146 C
HETATM    9  N11 UNL     1      -5.652  18.603  26.870  1.00  0.00    -0.349 N
HETATM   10  C16 UNL     1      -4.681  18.967  25.925  1.00  0.00     0.221 C
HETATM   11  O2  UNL     1      -3.973  18.093  25.388  1.00  0.00    -0.273 OA
HETATM   12  C26 UNL     1      -5.816  17.213  27.227  1.00  0.00     0.146 C
HETATM   13  C27 UNL     1      -7.222  16.739  27.008  1.00  0.00     0.161 C
ENDROOT
BRANCH   1  14
HETATM   14  C5  UNL     1     -10.209  17.492  29.758  1.00  0.00     0.080 C
BRANCH  14  15
HETATM   15  C4  UNL     1      -9.705  16.179  30.350  1.00  0.00     0.065 C
BRANCH  15  16
HETATM   16  C3  UNL     1     -10.868  15.295  30.742  1.00  0.00     0.143 C
BRANCH  16  17
HETATM   17  N5  UNL     1     -11.224  15.541  32.109  1.00  0.00    -0.226 N
HETATM   18  C1  UNL     1     -12.360  14.899  32.666  1.00  0.00     0.673 C
HETATM   19  N1  UNL     1     -13.527  14.957  32.102  1.00  0.00    -0.235 N
HETATM   20  N2  UNL     1     -12.289  14.150  33.875  1.00  0.00    -0.166 N
ATOM     21  H12 UNL     1     -14.344  14.495  32.502  1.00  0.00     0.174 HD
ATOM     22  H11 UNL     1     -13.578  15.493  31.236  1.00  0.00     0.174 HD
HETATM   23  C2  UNL     1     -11.912  14.619  35.005  1.00  0.00     0.215 C
ATOM     24  H2  UNL     1     -12.560  13.167  33.838  1.00  0.00     0.186 HD
HETATM   25  N3  UNL     1     -11.508  15.968  35.203  1.00  0.00    -0.066 NA
HETATM   26  N4  UNL     1     -11.899  13.725  36.120  1.00  0.00    -0.066 NA
ATOM     27  H5  UNL     1     -10.664  16.175  32.679  1.00  0.00     0.177 HD
ENDBRANCH  16  17
ENDBRANCH  15  16
ENDBRANCH  14  15
ENDBRANCH   1  14
BRANCH   4  28
HETATM   28  C7  UNL     1     -10.381  16.008  25.546  1.00  0.00     0.139 C
BRANCH  28  29
HETATM   29  C8  UNL     1     -10.459  14.948  26.607  1.00  0.00     0.048 C
BRANCH  29  30
HETATM   30  C9  UNL     1     -11.823  14.419  26.876  1.00  0.00     0.234 C
BRANCH  30  31
HETATM   31  N8  UNL     1     -12.850  15.441  26.897  1.00  0.00    -0.074 N
ATOM     32  H82 UNL     1     -12.472  16.374  27.060  1.00  0.00     0.277 HD
ATOM     33  H81 UNL     1     -13.252  15.612  25.975  1.00  0.00     0.277 HD
BRANCH  31  34
HETATM   34  C10 UNL     1     -13.852  15.064  27.883  1.00  0.00     0.251 C
BRANCH  34  35
HETATM   35  C11 UNL     1     -13.872  13.527  27.928  1.00  0.00     0.141 C
BRANCH  35  36
HETATM   36  N9  UNL     1     -14.070  13.045  29.244  1.00  0.00    -0.418 N
ATOM     37  H9  UNL     1     -14.917  13.245  29.777  1.00  0.00     0.153 HD
BRANCH  36  38
HETATM   38  C12 UNL     1     -13.009  12.264  29.770  1.00  0.00     0.139 C
BRANCH  38  39
HETATM   39  C13 UNL     1     -13.378  11.270  30.819  1.00  0.00     0.183 C
BRANCH  39  40
HETATM   40  O1  UNL     1     -13.162  11.734  32.099  1.00  0.00    -0.399 OA
ATOM     41  H1  UNL     1     -13.263  11.059  32.760  1.00  0.00     0.209 HD
ENDBRANCH  39  40
ENDBRANCH  38  39
ENDBRANCH  36  38
ENDBRANCH  35  36
ENDBRANCH  34  35
ENDBRANCH  31  34
ENDBRANCH  30  31
ENDBRANCH  29  30
ENDBRANCH  28  29
ENDBRANCH   4  28
BRANCH  10  42
HETATM   42  C17 UNL     1      -4.477  20.382  25.550  1.00  0.00     0.122 C
BRANCH  42  43
HETATM   43  C18 UNL     1      -4.726  20.575  24.083  1.00  0.00     0.132 C
BRANCH  43  44
HETATM   44  N12 UNL     1      -5.662  19.660  23.522  1.00  0.00    -0.357 N
HETATM   45  C19 UNL     1      -5.406  18.803  22.426  1.00  0.00     0.241 C
HETATM   46  O3  UNL     1      -4.299  18.783  21.852  1.00  0.00    -0.269 OA
ATOM     47  H12 UNL     1      -6.590  19.620  23.944  1.00  0.00     0.162 HD
BRANCH  45  48
HETATM   48  C20 UNL     1      -6.443  17.909  21.936  1.00  0.00     0.076 C
HETATM   49  C21 UNL     1      -7.567  17.688  22.557  1.00  0.00     0.035 C
BRANCH  49  50
HETATM   50  C22 UNL     1      -8.550  16.780  21.997  1.00  0.00     0.032 A
HETATM   51  C23 UNL     1      -8.738  15.488  22.403  1.00  0.00     0.031 A
HETATM   52  C24 UNL     1      -9.758  14.976  21.625  1.00  0.00     0.019 A
HETATM   53  C25 UNL     1     -10.189  15.950  20.747  1.00  0.00     0.088 A
HETATM   54  N13 UNL     1      -9.437  17.016  21.006  1.00  0.00    -0.366 N
ATOM     55  H13 UNL     1      -9.521  17.906  20.515  1.00  0.00     0.165 HD
ENDBRANCH  49  50
ENDBRANCH  45  48
ENDBRANCH  43  44
ENDBRANCH  42  43
ENDBRANCH  10  42
TORSDOF 19
ENDMDL