MODEL 3
REMARK VINA RESULT: -7.882467152      2.490      9.828
REMARK  21 active torsions:
REMARK  status: ('A' for Active; 'I' for Inactive)
REMARK       I    between atoms: C2_4  and  N2_5
REMARK       I    between atoms: C2_4  and  N8_45
REMARK    1  A    between atoms: N2_5  and  C3_7
REMARK    2  A    between atoms: C3_7  and  C4_8
REMARK    3  A    between atoms: C4_8  and  C5_9
REMARK    4  A    between atoms: C5_9  and  C6_10
REMARK    5  A    between atoms: C6_10  and  C7_11
REMARK    6  A    between atoms: C7_11  and  C8_12
REMARK       I    between atoms: C8_12  and  N3_14
REMARK    7  A    between atoms: N3_14  and  C9_15
REMARK    8  A    between atoms: C9_15  and  C10_16
REMARK       I    between atoms: C10_16  and  N4_18
REMARK    9  A    between atoms: N4_18  and  C11_20
REMARK   10  A    between atoms: C12_21  and  O3_22
REMARK   11  A    between atoms: C12_21  and  N5_24
REMARK   12  A    between atoms: N5_24  and  C13_26
REMARK   13  A    between atoms: C13_26  and  C14_27
REMARK   14  A    between atoms: C14_27  and  C15_28
REMARK   15  A    between atoms: C15_28  and  C16_29
REMARK       I    between atoms: C16_29  and  N6_31
REMARK   16  A    between atoms: N6_31  and  C17_33
REMARK   17  A    between atoms: C17_33  and  C18_34
REMARK       I    between atoms: C18_34  and  N7_36
REMARK   18  A    between atoms: N7_36  and  C19_38
REMARK   19  A    between atoms: C19_38  and  C20_39
REMARK   20  A    between atoms: N8_45  and  C26_47
REMARK   21  A    between atoms: C26_47  and  C27_48
ROOT
HETATM    1  C27 UNL     1     -11.431  15.534  33.444  1.00  0.00     0.304 C
HETATM    2  O6  UNL     1     -12.630  15.526  33.881  1.00  0.00    -0.256 OA
HETATM    3  N9  UNL     1     -10.308  15.762  34.102  1.00  0.00    -0.419 NA
HETATM    4  C28 UNL     1      -9.121  16.010  34.835  1.00  0.00     0.263 C
ENDROOT
BRANCH   1   5
HETATM    5  C26 UNL     1     -11.436  15.171  31.924  1.00  0.00     0.256 C
BRANCH   5   6
HETATM    6  N8  UNL     1     -12.768  14.740  31.637  1.00  0.00    -0.216 N
HETATM    7  C2  UNL     1     -13.136  13.519  31.121  1.00  0.00     0.673 C
HETATM    8  N1  UNL     1     -13.244  12.375  31.746  1.00  0.00    -0.231 N
HETATM    9  N2  UNL     1     -13.545  13.488  29.724  1.00  0.00    -0.206 N
HETATM   10  C1  UNL     1     -13.784  11.224  30.952  1.00  0.00     0.165 C
ATOM     11  H1  UNL     1     -12.975  12.271  32.724  1.00  0.00     0.177 HD
ATOM     12  H2  UNL     1     -13.217  12.727  29.129  1.00  0.00     0.183 HD
ATOM     13  H8  UNL     1     -13.518  15.402  31.833  1.00  0.00     0.178 HD
BRANCH   9  14
HETATM   14  C3  UNL     1     -14.377  14.475  29.169  1.00  0.00     0.079 C
BRANCH  14  15
HETATM   15  C4  UNL     1     -14.453  14.473  27.688  1.00  0.00     0.045 C
BRANCH  15  16
HETATM   16  C5  UNL     1     -13.321  13.970  26.865  1.00  0.00     0.006 C
BRANCH  16  17
HETATM   17  C6  UNL     1     -12.134  14.823  26.660  1.00  0.00     0.011 C
BRANCH  17  18
HETATM   18  C7  UNL     1     -10.976  14.632  27.517  1.00  0.00     0.119 C
BRANCH  18  19
HETATM   19  C8  UNL     1     -10.644  15.973  28.290  1.00  0.00     0.286 C
HETATM   20  O1  UNL     1     -11.680  16.652  28.583  1.00  0.00    -0.258 OA
HETATM   21  N3  UNL     1      -9.336  16.204  28.510  1.00  0.00    -0.406 NA
BRANCH  21  22
HETATM   22  C9  UNL     1      -7.994  16.558  28.805  1.00  0.00     0.324 C
BRANCH  22  23
HETATM   23  C10 UNL     1      -7.185  16.655  27.543  1.00  0.00     0.252 C
HETATM   24  O2  UNL     1      -5.908  16.611  27.769  1.00  0.00    -0.270 OA
HETATM   25  N4  UNL     1      -7.764  16.783  26.289  1.00  0.00    -0.331 N
ATOM     26  H4  UNL     1      -8.782  16.745  26.342  1.00  0.00     0.168 HD
BRANCH  25  27
HETATM   27  C11 UNL     1      -7.319  16.951  24.955  1.00  0.00     0.146 C
HETATM   28  C12 UNL     1      -6.263  17.871  24.587  1.00  0.00     0.151 C
BRANCH  28  29
HETATM   29  O3  UNL     1      -5.750  17.717  23.377  1.00  0.00    -0.345 OA
ATOM     30  H3  UNL     1      -5.314  18.476  23.007  1.00  0.00     0.219 HD
ENDBRANCH  28  29
BRANCH  28  31
HETATM   31  N5  UNL     1      -5.667  18.909  25.268  1.00  0.00    -0.370 N
ATOM     32  H5  UNL     1      -6.195  19.769  25.417  1.00  0.00     0.161 HD
BRANCH  31  33
HETATM   33  C13 UNL     1      -4.275  18.814  25.794  1.00  0.00     0.126 C
BRANCH  33  34
HETATM   34  C14 UNL     1      -3.381  18.842  24.609  1.00  0.00     0.052 C
BRANCH  34  35
HETATM   35  C15 UNL     1      -2.354  17.831  24.415  1.00  0.00     0.049 C
BRANCH  35  36
HETATM   36  C16 UNL     1      -2.351  16.895  23.284  1.00  0.00     0.237 C
HETATM   37  O4  UNL     1      -1.802  15.772  23.485  1.00  0.00    -0.269 OA
HETATM   38  N6  UNL     1      -2.947  17.242  22.083  1.00  0.00    -0.349 N
ATOM     39  H6  UNL     1      -3.310  18.194  22.033  1.00  0.00     0.163 HD
BRANCH  38  40
HETATM   40  C17 UNL     1      -3.129  16.445  20.889  1.00  0.00     0.225 C
BRANCH  40  41
HETATM   41  C18 UNL     1      -4.420  16.603  20.196  1.00  0.00     0.235 C
HETATM   42  O5  UNL     1      -4.360  16.766  18.916  1.00  0.00    -0.272 OA
HETATM   43  N7  UNL     1      -5.665  16.557  20.830  1.00  0.00    -0.355 N
ATOM     44  H7  UNL     1      -5.722  16.409  21.838  1.00  0.00     0.162 HD
BRANCH  43  45
HETATM   45  C19 UNL     1      -6.894  16.724  20.033  1.00  0.00     0.161 C
BRANCH  45  46
HETATM   46  C20 UNL     1      -8.032  16.061  20.726  1.00  0.00    -0.041 A
HETATM   47  C21 UNL     1      -9.301  16.218  20.256  1.00  0.00     0.009 A
HETATM   48  C22 UNL     1     -10.319  15.530  20.920  1.00  0.00     0.001 A
HETATM   49  C23 UNL     1     -10.056  14.728  22.003  1.00  0.00     0.000 A
HETATM   50  C24 UNL     1      -8.757  14.592  22.452  1.00  0.00     0.001 A
HETATM   51  C25 UNL     1      -7.731  15.252  21.821  1.00  0.00     0.009 A
ENDBRANCH  45  46
ENDBRANCH  43  45
ENDBRANCH  40  41
ENDBRANCH  38  40
ENDBRANCH  35  36
ENDBRANCH  34  35
ENDBRANCH  33  34
ENDBRANCH  31  33
ENDBRANCH  28  31
ENDBRANCH  25  27
ENDBRANCH  22  23
ENDBRANCH  21  22
ENDBRANCH  18  19
ENDBRANCH  17  18
ENDBRANCH  16  17
ENDBRANCH  15  16
ENDBRANCH  14  15
ENDBRANCH   9  14
ENDBRANCH   5   6
ENDBRANCH   1   5
TORSDOF 20
ENDMDL