MODEL 1
REMARK VINA RESULT: -8.381566830      0.000      0.000
REMARK  20 active torsions:
REMARK  status: ('A' for Active; 'I' for Inactive)
REMARK    1  A    between atoms: C2_5  and  C3_6
REMARK    2  A    between atoms: N4_14  and  C10_15
REMARK    3  A    between atoms: C10_15  and  C11_16
REMARK    4  A    between atoms: C11_16  and  C12_17
REMARK    5  A    between atoms: C12_17  and  C13_18
REMARK    6  A    between atoms: C13_18  and  N5_19
REMARK    7  A    between atoms: C16_22  and  C17_23
REMARK       I    between atoms: C17_23  and  N6_25
REMARK    8  A    between atoms: N6_25  and  C18_27
REMARK    9  A    between atoms: C18_27  and  C19_28
REMARK   10  A    between atoms: C19_28  and  C20_29
REMARK   11  A    between atoms: C20_29  and  N7_30
REMARK   12  A    between atoms: N7_30  and  C21_33
REMARK   13  A    between atoms: C21_33  and  C22_34
REMARK   14  A    between atoms: C22_34  and  C23_35
REMARK   15  A    between atoms: C23_35  and  N8_36
REMARK   16  A    between atoms: C25_41  and  N11_42
REMARK   17  A    between atoms: N11_42  and  C26_44
REMARK   18  A    between atoms: C26_44  and  C27_45
REMARK   19  A    between atoms: C27_45  and  N12_46
REMARK   20  A    between atoms: N12_46  and  C28_48
ROOT
HETATM    1  N5  UNL     1     -11.476  15.524  27.023  1.00  0.00    -0.302 N
HETATM    2  C14 UNL     1     -11.447  16.469  27.969  1.00  0.00     0.111 A
HETATM    3  C15 UNL     1     -10.334  17.236  28.180  1.00  0.00     0.039 A
HETATM    4  C16 UNL     1      -9.160  17.070  27.410  1.00  0.00     0.078 A
HETATM    5  C25 UNL     1      -9.249  16.093  26.461  1.00  0.00     0.132 A
HETATM    6  N14 UNL     1     -10.399  15.360  26.306  1.00  0.00    -0.283 N
ATOM      7  H14 UNL     1     -10.413  14.641  25.583  1.00  0.00     0.189 HD
ENDROOT
BRANCH   1   8
HETATM    8  C13 UNL     1     -12.675  14.700  26.799  1.00  0.00     0.148 C
BRANCH   8   9
HETATM    9  C12 UNL     1     -13.844  15.286  27.511  1.00  0.00     0.023 C
BRANCH   9  10
HETATM   10  C11 UNL     1     -14.549  14.442  28.482  1.00  0.00     0.024 C
BRANCH  10  11
HETATM   11  C10 UNL     1     -13.825  13.600  29.445  1.00  0.00     0.152 C
BRANCH  11  12
HETATM   12  N4  UNL     1     -13.473  14.223  30.704  1.00  0.00    -0.261 N
HETATM   13  N1  UNL     1     -14.195  14.704  31.686  1.00  0.00    -0.235 N
HETATM   14  C1  UNL     1     -15.632  14.739  31.825  1.00  0.00     0.200 C
HETATM   15  N2  UNL     1     -13.406  15.232  32.618  1.00  0.00    -0.280 N
HETATM   16  C2  UNL     1     -12.116  15.106  32.259  1.00  0.00     0.102 A
ATOM     17  H2  UNL     1     -13.732  15.668  33.480  1.00  0.00     0.189 HD
HETATM   18  C9  UNL     1     -12.150  14.473  31.056  1.00  0.00     0.163 A
HETATM   19  N3  UNL     1     -11.065  14.101  30.247  1.00  0.00    -0.079 NA
BRANCH  16  20
HETATM   20  C3  UNL     1     -10.984  15.580  33.044  1.00  0.00    -0.005 A
HETATM   21  C4  UNL     1      -9.844  16.098  32.523  1.00  0.00     0.014 A
HETATM   22  C5  UNL     1      -8.788  16.548  33.320  1.00  0.00     0.001 A
HETATM   23  C6  UNL     1      -8.871  16.481  34.683  1.00  0.00     0.000 A
HETATM   24  C7  UNL     1     -10.021  15.959  35.231  1.00  0.00     0.001 A
HETATM   25  C8  UNL     1     -11.043  15.523  34.439  1.00  0.00     0.014 A
ENDBRANCH  16  20
ENDBRANCH  11  12
ENDBRANCH  10  11
ENDBRANCH   9  10
ENDBRANCH   8   9
ENDBRANCH   1   8
BRANCH   5  26
HETATM   26  N11 UNL     1      -8.261  15.846  25.674  1.00  0.00    -0.373 N
ATOM     27  H11 UNL     1      -7.459  15.365  26.082  1.00  0.00     0.161 HD
BRANCH  26  28
HETATM   28  C26 UNL     1      -8.175  16.176  24.289  1.00  0.00     0.141 C
BRANCH  28  29
HETATM   29  C27 UNL     1      -8.665  15.043  23.405  1.00  0.00     0.140 C
BRANCH  29  30
HETATM   30  N12 UNL     1      -8.669  15.383  22.005  1.00  0.00    -0.385 N
ATOM     31  H12 UNL     1      -7.819  15.272  21.453  1.00  0.00     0.160 HD
BRANCH  30  32
HETATM   32  C28 UNL     1      -9.842  15.868  21.399  1.00  0.00     0.168 C
HETATM   33  N13 UNL     1      -9.880  16.962  20.683  1.00  0.00    -0.396 N
ATOM     34 2H13 UNL     1      -9.007  17.477  20.569  1.00  0.00     0.156 HD
ATOM     35 1H13 UNL     1     -10.730  17.314  20.244  1.00  0.00     0.156 HD
ENDBRANCH  30  32
ENDBRANCH  29  30
ENDBRANCH  28  29
ENDBRANCH  26  28
ENDBRANCH   5  26
BRANCH   4  36
HETATM   36  C17 UNL     1      -8.011  17.882  27.677  1.00  0.00     0.255 C
HETATM   37  O1  UNL     1      -7.071  17.308  28.350  1.00  0.00    -0.268 OA
HETATM   38  N6  UNL     1      -7.814  19.197  27.289  1.00  0.00    -0.357 N
ATOM     39  H6  UNL     1      -8.552  19.661  26.760  1.00  0.00     0.162 HD
BRANCH  38  40
HETATM   40  C18 UNL     1      -6.595  19.963  27.602  1.00  0.00     0.124 C
BRANCH  40  41
HETATM   41  C19 UNL     1      -5.627  19.812  26.463  1.00  0.00     0.047 C
BRANCH  41  42
HETATM   42  C20 UNL     1      -4.420  18.988  26.883  1.00  0.00     0.234 C
BRANCH  42  43
HETATM   43  N7  UNL     1      -3.501  18.874  25.801  1.00  0.00    -0.075 N
ATOM     44  H72 UNL     1      -3.438  19.757  25.295  1.00  0.00     0.277 HD
ATOM     45  H71 UNL     1      -2.546  18.805  26.152  1.00  0.00     0.277 HD
BRANCH  43  46
HETATM   46  C21 UNL     1      -3.777  17.803  24.898  1.00  0.00     0.234 C
BRANCH  46  47
HETATM   47  C22 UNL     1      -3.588  18.237  23.449  1.00  0.00     0.047 C
BRANCH  47  48
HETATM   48  C23 UNL     1      -4.891  18.513  22.764  1.00  0.00     0.123 C
BRANCH  48  49
HETATM   49  N8  UNL     1      -5.177  17.586  21.709  1.00  0.00    -0.367 N
HETATM   50  C24 UNL     1      -6.328  17.567  21.139  1.00  0.00     0.196 C
HETATM   51  N9  UNL     1      -7.310  18.504  21.594  1.00  0.00    -0.067 NA
HETATM   52  N10 UNL     1      -6.607  16.647  20.089  1.00  0.00    -0.067 NA
ATOM     53  H8  UNL     1      -4.456  16.931  21.407  1.00  0.00     0.161 HD
ENDBRANCH  48  49
ENDBRANCH  47  48
ENDBRANCH  46  47
ENDBRANCH  43  46
ENDBRANCH  42  43
ENDBRANCH  41  42
ENDBRANCH  40  41
ENDBRANCH  38  40
ENDBRANCH   4  36
TORSDOF 20
ENDMDL