MODEL 5
REMARK VINA RESULT: -7.400841488      1.845      3.035
REMARK  23 active torsions:
REMARK  status: ('A' for Active; 'I' for Inactive)
REMARK    1  A    between atoms: C2_2  and  N1_3
REMARK    2  A    between atoms: N1_3  and  C3_4
REMARK    3  A    between atoms: N1_3  and  C5_6
REMARK    4  A    between atoms: C5_6  and  C6_7
REMARK    5  A    between atoms: C6_7  and  C7_8
REMARK    6  A    between atoms: C7_8  and  N2_9
REMARK    7  A    between atoms: N2_9  and  C8_10
REMARK    8  A    between atoms: C8_10  and  O1_11
REMARK    9  A    between atoms: C8_10  and  C9_13
REMARK   10  A    between atoms: C11_17  and  N4_18
REMARK   11  A    between atoms: N4_18  and  C12_20
REMARK   12  A    between atoms: C12_20  and  C13_21
REMARK   13  A    between atoms: C12_20  and  C18_32
REMARK   14  A    between atoms: C13_21  and  C14_22
REMARK   15  A    between atoms: C14_22  and  C15_23
REMARK   16  A    between atoms: C15_23  and  C16_24
REMARK   17  A    between atoms: C16_24  and  N5_25
REMARK       I    between atoms: N5_25  and  C17_27
REMARK   18  A    between atoms: C18_32  and  C19_33
REMARK   19  A    between atoms: C18_32  and  N9_40
REMARK   20  A    between atoms: C20_34  and  C21_35
REMARK   21  A    between atoms: C21_35  and  N8_36
REMARK   22  A    between atoms: N9_40  and  S1_42
REMARK   23  A    between atoms: S1_42  and  N10_43
ROOT
HETATM    1  C12 UNL     1     -10.910  15.179  30.396  1.00  0.00     0.126 C
ENDROOT
BRANCH   1   2
HETATM    2  N4  UNL     1      -9.899  15.087  29.404  1.00  0.00    -0.219 N
ATOM      3  H4  UNL     1      -9.596  14.128  29.236  1.00  0.00     0.178 HD
BRANCH   2   4
HETATM    4  C11 UNL     1      -9.292  15.926  28.685  1.00  0.00     0.681 A
HETATM    5  N3  UNL     1      -7.911  15.894  28.717  1.00  0.00    -0.201 N
HETATM    6  C10 UNL     1      -7.189  16.713  27.948  1.00  0.00     0.129 A
ATOM      7  H3  UNL     1      -7.437  15.236  29.335  1.00  0.00     0.183 HD
HETATM    8  C9  UNL     1      -7.744  17.648  27.066  1.00  0.00     0.113 A
HETATM    9  C25 UNL     1      -9.098  17.657  27.057  1.00  0.00     0.276 A
HETATM   10  N11 UNL     1      -9.835  16.813  27.852  1.00  0.00    -0.155 N
HETATM   11  O4  UNL     1      -9.719  18.458  26.305  1.00  0.00    -0.267 OA
ATOM     12  H11 UNL     1     -10.852  16.869  27.803  1.00  0.00     0.187 HD
BRANCH   8  13
HETATM   13  C8  UNL     1      -6.838  18.458  26.278  1.00  0.00     0.230 C
BRANCH  13  14
HETATM   14  N2  UNL     1      -6.064  18.124  25.149  1.00  0.00    -0.396 NA
BRANCH  14  15
HETATM   15  C7  UNL     1      -5.332  17.821  24.085  1.00  0.00     0.159 C
BRANCH  15  16
HETATM   16  C6  UNL     1      -5.961  17.944  22.726  1.00  0.00     0.079 C
BRANCH  16  17
HETATM   17  C5  UNL     1      -7.416  18.203  22.681  1.00  0.00     0.133 C
BRANCH  17  18
HETATM   18  N1  UNL     1      -8.231  17.079  22.357  1.00  0.00    -0.374 N
BRANCH  18  19
HETATM   19  C2  UNL     1      -8.516  16.836  21.022  1.00  0.00     0.058 C
HETATM   20  C1  UNL     1      -9.885  16.233  20.823  1.00  0.00     0.055 C
ENDBRANCH  18  19
BRANCH  18  21
HETATM   21  C3  UNL     1      -8.993  16.573  23.404  1.00  0.00     0.058 C
HETATM   22  C4  UNL     1      -8.412  15.387  24.143  1.00  0.00     0.055 C
ENDBRANCH  18  21
ENDBRANCH  17  18
ENDBRANCH  16  17
ENDBRANCH  15  16
ENDBRANCH  14  15
ENDBRANCH  13  14
BRANCH  13  23
HETATM   23  O1  UNL     1      -6.749  19.703  26.716  1.00  0.00    -0.335 OA
ATOM     24  H1  UNL     1      -7.132  19.887  27.566  1.00  0.00     0.220 HD
ENDBRANCH  13  23
ENDBRANCH   8  13
ENDBRANCH   2   4
ENDBRANCH   1   2
BRANCH   1  25
HETATM   25  C13 UNL     1     -10.319  15.041  31.747  1.00  0.00     0.028 C
BRANCH  25  26
HETATM   26  C14 UNL     1      -9.326  16.029  32.211  1.00  0.00     0.004 C
BRANCH  26  27
HETATM   27  C15 UNL     1      -8.888  15.808  33.664  1.00  0.00     0.020 C
BRANCH  27  28
HETATM   28  C16 UNL     1      -9.861  16.503  34.569  1.00  0.00     0.122 C
BRANCH  28  29
HETATM   29  N5  UNL     1     -10.404  15.549  35.508  1.00  0.00    -0.365 N
HETATM   30  C17 UNL     1     -11.772  15.156  35.361  1.00  0.00     0.181 C
HETATM   31  N6  UNL     1     -12.384  14.445  36.238  1.00  0.00    -0.374 N
HETATM   32  N7  UNL     1     -12.494  15.567  34.215  1.00  0.00    -0.064 NA
ATOM     33  H62 UNL     1     -11.864  14.149  37.064  1.00  0.00     0.158 HD
ATOM     34  H61 UNL     1     -13.359  14.165  36.134  1.00  0.00     0.158 HD
ATOM     35  H5  UNL     1      -9.826  15.165  36.256  1.00  0.00     0.162 HD
ENDBRANCH  28  29
ENDBRANCH  27  28
ENDBRANCH  26  27
ENDBRANCH  25  26
ENDBRANCH   1  25
BRANCH   1  36
HETATM   36  C18 UNL     1     -12.020  14.275  30.088  1.00  0.00     0.140 C
BRANCH  36  37
HETATM   37  C19 UNL     1     -12.734  13.638  31.282  1.00  0.00    -0.002 C
HETATM   38  C20 UNL     1     -13.530  12.456  31.158  1.00  0.00    -0.001 C
BRANCH  38  39
HETATM   39  C21 UNL     1     -13.129  11.135  30.713  1.00  0.00     0.263 C
BRANCH  39  40
HETATM   40  N8  UNL     1     -13.644  10.118  31.678  1.00  0.00    -0.075 N
HETATM   41  C22 UNL     1     -12.877   8.879  31.472  1.00  0.00     0.272 C
HETATM   42  C23 UNL     1     -13.494  10.525  33.033  1.00  0.00     0.272 C
HETATM   43  C24 UNL     1     -15.024   9.803  31.404  1.00  0.00     0.272 C
ENDBRANCH  39  40
ENDBRANCH  38  39
ENDBRANCH  36  37
BRANCH  36  44
HETATM   44  N9  UNL     1     -13.090  15.049  29.419  1.00  0.00    -0.293 N
ATOM     45  H9  UNL     1     -13.630  15.777  29.885  1.00  0.00     0.174 HD
BRANCH  44  46
HETATM   46  S1  UNL     1     -13.331  14.604  27.792  1.00  0.00     0.313 S
HETATM   47  O2  UNL     1     -14.141  15.672  27.113  1.00  0.00    -0.183 OA
HETATM   48  O3  UNL     1     -12.017  14.421  27.102  1.00  0.00    -0.183 OA
BRANCH  46  49
HETATM   49  N10 UNL     1     -14.213  13.134  27.630  1.00  0.00    -0.312 N
ATOM     50 2H10 UNL     1     -15.186  13.039  27.920  1.00  0.00     0.170 HD
ATOM     51 1H10 UNL     1     -13.656  12.386  27.216  1.00  0.00     0.170 HD
ENDBRANCH  46  49
ENDBRANCH  44  46
ENDBRANCH  36  44
ENDBRANCH   1  36
TORSDOF 23
ENDMDL