MODEL 5
REMARK VINA RESULT: -7.686889173      2.128     10.469
REMARK  21 active torsions:
REMARK  status: ('A' for Active; 'I' for Inactive)
REMARK    1  A    between atoms: N1_2  and  C4_5
REMARK    2  A    between atoms: C4_5  and  C5_6
REMARK    3  A    between atoms: C5_6  and  C6_7
REMARK    4  A    between atoms: C6_7  and  C7_8
REMARK    5  A    between atoms: C7_8  and  C8_9
REMARK    6  A    between atoms: C8_9  and  C9_10
REMARK    7  A    between atoms: C12_13  and  C13_14
REMARK    8  A    between atoms: C13_14  and  C14_15
REMARK    9  A    between atoms: C16_20  and  C17_21
REMARK   10  A    between atoms: C17_21  and  C18_22
REMARK   11  A    between atoms: C18_22  and  O2_23
REMARK   12  A    between atoms: C18_22  and  N3_25
REMARK   13  A    between atoms: N3_25  and  C19_27
REMARK   14  A    between atoms: C19_27  and  C20_28
REMARK   15  A    between atoms: C20_28  and  C21_29
REMARK   16  A    between atoms: C21_29  and  C22_30
REMARK   17  A    between atoms: C22_30  and  C23_31
REMARK       I    between atoms: C23_31  and  N4_33
REMARK   18  A    between atoms: N4_33  and  C24_35
REMARK   19  A    between atoms: C24_35  and  C25_36
REMARK   20  A    between atoms: C25_36  and  N5_37
REMARK       I    between atoms: N5_37  and  C26_39
REMARK   21  A    between atoms: N8_45  and  N9_47
ROOT
HETATM    1  C14 UNL     1      -8.827  16.950  28.478  1.00  0.00     0.159 C
HETATM    2  N2  UNL     1      -9.448  15.634  28.463  1.00  0.00    -0.347 N
ATOM      3  H2  UNL     1      -9.271  14.997  29.240  1.00  0.00     0.163 HD
HETATM    4  C15 UNL     1     -10.290  15.205  27.406  1.00  0.00     0.241 C
HETATM    5  O1  UNL     1     -11.214  14.400  27.638  1.00  0.00    -0.271 OA
HETATM    6  C16 UNL     1     -10.023  15.751  26.051  1.00  0.00     0.179 C
HETATM    7  N7  UNL     1      -9.978  17.209  26.227  1.00  0.00    -0.363 N
ATOM      8  H7  UNL     1     -10.558  17.840  25.672  1.00  0.00     0.161 HD
HETATM    9  C27 UNL     1      -9.062  17.698  27.235  1.00  0.00     0.117 C
HETATM   10  N8  UNL     1      -8.441  18.797  27.022  1.00  0.00    -0.273 N
ATOM     11  H8  UNL     1      -8.632  19.286  26.148  1.00  0.00     0.190 HD
ENDROOT
BRANCH   6  12
HETATM   12  C17 UNL     1      -8.673  15.278  25.596  1.00  0.00     0.088 C
BRANCH  12  13
HETATM   13  C18 UNL     1      -8.306  15.643  24.194  1.00  0.00     0.215 C
BRANCH  13  14
HETATM   14  O2  UNL     1      -8.059  17.032  24.145  1.00  0.00    -0.377 OA
ATOM     15  H2  UNL     1      -7.927  17.281  23.239  1.00  0.00     0.212 HD
ENDBRANCH  13  14
BRANCH  13  16
HETATM   16  N3  UNL     1      -9.481  15.444  23.371  1.00  0.00    -0.397 N
ATOM     17  H3  UNL     1     -10.416  15.713  23.677  1.00  0.00     0.155 HD
BRANCH  16  18
HETATM   18  C19 UNL     1      -9.234  14.841  22.094  1.00  0.00     0.116 C
BRANCH  18  19
HETATM   19  C20 UNL     1      -9.965  15.679  21.049  1.00  0.00     0.020 C
BRANCH  19  20
HETATM   20  C21 UNL     1      -9.228  16.929  20.670  1.00  0.00     0.011 C
BRANCH  20  21
HETATM   21  C22 UNL     1      -7.801  16.560  20.382  1.00  0.00     0.103 C
BRANCH  21  22
HETATM   22  C23 UNL     1      -6.880  17.557  21.054  1.00  0.00     0.217 C
HETATM   23  O3  UNL     1      -7.465  18.597  21.426  1.00  0.00    -0.274 OA
HETATM   24  N4  UNL     1      -5.555  17.197  21.164  1.00  0.00    -0.360 N
ATOM     25  H4  UNL     1      -5.330  16.281  20.776  1.00  0.00     0.162 HD
BRANCH  24  26
HETATM   26  C24 UNL     1      -4.455  17.889  21.726  1.00  0.00     0.142 C
BRANCH  26  27
HETATM   27  C25 UNL     1      -4.639  18.508  23.058  1.00  0.00     0.143 C
BRANCH  27  28
HETATM   28  N5  UNL     1      -4.920  17.620  24.133  1.00  0.00    -0.344 N
HETATM   29  C26 UNL     1      -5.380  18.103  25.415  1.00  0.00     0.328 C
HETATM   30  N6  UNL     1      -5.658  17.230  26.499  1.00  0.00    -0.040 NA
HETATM   31  O4  UNL     1      -5.534  19.328  25.563  1.00  0.00    -0.251 OA
ATOM     32  H5  UNL     1      -4.793  16.617  23.996  1.00  0.00     0.163 HD
ENDBRANCH  27  28
ENDBRANCH  26  27
ENDBRANCH  24  26
ENDBRANCH  21  22
ENDBRANCH  20  21
ENDBRANCH  19  20
ENDBRANCH  18  19
ENDBRANCH  16  18
ENDBRANCH  13  16
ENDBRANCH  12  13
ENDBRANCH   6  12
BRANCH   1  33
HETATM   33  C13 UNL     1      -9.438  17.684  29.642  1.00  0.00     0.098 C
BRANCH  33  34
HETATM   34  C12 UNL     1      -9.753  16.700  30.705  1.00  0.00     0.055 A
HETATM   35  C11 UNL     1      -8.846  16.162  31.590  1.00  0.00     0.035 A
HETATM   36  C10 UNL     1      -9.571  15.305  32.387  1.00  0.00     0.035 A
HETATM   37  C9  UNL     1     -10.886  15.361  31.949  1.00  0.00     0.053 A
HETATM   38  O5  UNL     1     -10.933  16.202  30.954  1.00  0.00    -0.319 OA
BRANCH  37  39
HETATM   39  C8  UNL     1     -12.028  14.592  32.523  1.00  0.00     0.065 C
BRANCH  39  40
HETATM   40  C7  UNL     1     -13.069  14.300  31.443  1.00  0.00     0.006 C
BRANCH  40  41
HETATM   41  C6  UNL     1     -12.598  13.172  30.549  1.00  0.00     0.002 C
BRANCH  41  42
HETATM   42  C5  UNL     1     -13.539  11.995  30.590  1.00  0.00     0.028 C
BRANCH  42  43
HETATM   43  C4  UNL     1     -13.728  11.462  31.983  1.00  0.00     0.236 C
BRANCH  43  44
HETATM   44  N1  UNL     1     -13.978  10.052  32.025  1.00  0.00    -0.079 N
HETATM   45  C1  UNL     1     -15.233   9.690  31.377  1.00  0.00     0.271 C
HETATM   46  C2  UNL     1     -12.940   9.271  31.387  1.00  0.00     0.271 C
HETATM   47  C3  UNL     1     -14.066   9.561  33.392  1.00  0.00     0.271 C
ENDBRANCH  43  44
ENDBRANCH  42  43
ENDBRANCH  41  42
ENDBRANCH  40  41
ENDBRANCH  39  40
ENDBRANCH  37  39
ENDBRANCH  33  34
ENDBRANCH   1  33
BRANCH  10  48
HETATM   48  N9  UNL     1      -7.531  19.369  27.886  1.00  0.00    -0.248 N
HETATM   49  N10 UNL     1      -7.154  20.572  27.771  1.00  0.00    -0.331 N
ATOM     50 2H10 UNL     1      -7.546  21.123  27.007  1.00  0.00     0.178 HD
ATOM     51 1H10 UNL     1      -6.482  20.995  28.410  1.00  0.00     0.178 HD
ATOM     52  H9  UNL     1      -7.149  18.804  28.645  1.00  0.00     0.207 HD
ENDBRANCH  10  48
TORSDOF 21
ENDMDL