MODEL 5
REMARK VINA RESULT: -8.546658131      3.403     10.879
REMARK  19 active torsions:
REMARK  status: ('A' for Active; 'I' for Inactive)
REMARK    1  A    between atoms: N2_4  and  N3_6
REMARK       I    between atoms: N3_6  and  C1_8
REMARK       I    between atoms: C1_8  and  N5_12
REMARK    2  A    between atoms: N5_12  and  C2_14
REMARK    3  A    between atoms: C2_14  and  C3_15
REMARK    4  A    between atoms: C3_15  and  C4_16
REMARK    5  A    between atoms: C4_16  and  C5_17
REMARK    6  A    between atoms: C5_17  and  C6_18
REMARK    7  A    between atoms: C6_18  and  C7_20
REMARK    8  A    between atoms: C7_20  and  C8_21
REMARK    9  A    between atoms: C7_20  and  N9_29
REMARK   10  A    between atoms: C8_21  and  C9_22
REMARK   11  A    between atoms: N9_29  and  C12_30
REMARK   12  A    between atoms: C12_30  and  C13_31
REMARK   13  A    between atoms: C13_31  and  N10_32
REMARK       I    between atoms: N10_32  and  C14_34
REMARK   14  A    between atoms: C14_34  and  C15_36
REMARK   15  A    between atoms: C15_36  and  N11_37
REMARK       I    between atoms: N11_37  and  C16_39
REMARK   16  A    between atoms: C16_39  and  C17_41
REMARK   17  A    between atoms: C17_41  and  N12_42
REMARK       I    between atoms: N12_42  and  C18_43
REMARK   18  A    between atoms: C18_43  and  C19_45
REMARK   19  A    between atoms: C19_45  and  C20_46
ROOT
HETATM    1  C7  UNL     1      -9.345  16.436  27.444  1.00  0.00     0.144 C
ENDROOT
BRANCH   1   2
HETATM    2  C6  UNL     1      -8.900  15.299  26.628  1.00  0.00     0.077 C
HETATM    3  N6  UNL     1      -7.997  14.380  27.287  1.00  0.00    -0.100 NA
BRANCH   2   4
HETATM    4  C5  UNL     1      -8.689  15.440  25.208  1.00  0.00     0.024 C
BRANCH   4   5
HETATM    5  C4  UNL     1      -9.482  15.132  24.219  1.00  0.00    -0.023 C
BRANCH   5   6
HETATM    6  C3  UNL     1      -9.078  14.874  22.854  1.00  0.00     0.047 C
BRANCH   6   7
HETATM    7  C2  UNL     1      -8.816  16.205  22.126  1.00  0.00     0.142 C
BRANCH   7   8
HETATM    8  N5  UNL     1      -7.466  16.132  21.615  1.00  0.00    -0.225 N
HETATM    9  C1  UNL     1      -6.959  17.207  20.844  1.00  0.00     0.687 C
HETATM   10  N3  UNL     1      -7.236  18.517  21.291  1.00  0.00    -0.119 N
HETATM   11  N4  UNL     1      -6.271  16.958  19.800  1.00  0.00    -0.234 N
ATOM     12  H3  UNL     1      -7.700  19.180  20.671  1.00  0.00     0.207 HD
ATOM     13  H42 UNL     1      -5.906  17.732  19.245  1.00  0.00     0.174 HD
ATOM     14  H41 UNL     1      -6.070  16.012  19.477  1.00  0.00     0.174 HD
ATOM     15  H5  UNL     1      -6.884  15.317  21.808  1.00  0.00     0.177 HD
BRANCH  10  16
HETATM   16  N2  UNL     1      -6.874  18.900  22.580  1.00  0.00    -0.235 N
HETATM   17  N1  UNL     1      -6.259  19.960  22.826  1.00  0.00    -0.330 N
ATOM     18  H12 UNL     1      -6.020  20.560  22.037  1.00  0.00     0.178 HD
ATOM     19  H11 UNL     1      -5.994  20.241  23.770  1.00  0.00     0.178 HD
ATOM     20  H2  UNL     1      -7.121  18.288  23.358  1.00  0.00     0.208 HD
ENDBRANCH  10  16
ENDBRANCH   7   8
ENDBRANCH   6   7
ENDBRANCH   5   6
ENDBRANCH   4   5
ENDBRANCH   2   4
ENDBRANCH   1   2
BRANCH   1  21
HETATM   21  C8  UNL     1      -9.150  17.813  26.954  1.00  0.00     0.126 C
BRANCH  21  22
HETATM   22  C9  UNL     1      -7.863  18.461  27.232  1.00  0.00     0.031 A
HETATM   23  C10 UNL     1      -6.615  17.830  27.357  1.00  0.00     0.114 A
HETATM   24  N7  UNL     1      -5.688  18.768  27.557  1.00  0.00    -0.360 N
HETATM   25  C11 UNL     1      -6.275  19.992  27.569  1.00  0.00     0.180 A
ATOM     26  H7  UNL     1      -4.691  18.592  27.682  1.00  0.00     0.166 HD
HETATM   27  N8  UNL     1      -7.565  19.755  27.374  1.00  0.00    -0.354 N
ATOM     28  H8  UNL     1      -8.266  20.494  27.337  1.00  0.00     0.166 HD
ENDBRANCH  21  22
ENDBRANCH   1  21
BRANCH   1  29
HETATM   29  N9  UNL     1     -10.595  16.261  28.211  1.00  0.00    -0.037 N
HETATM   30  C26 UNL     1     -10.476  15.364  29.282  1.00  0.00     0.245 A
HETATM   31  C27 UNL     1     -10.420  16.463  30.311  1.00  0.00     0.057 A
HETATM   32  C28 UNL     1     -10.636  17.387  29.164  1.00  0.00     0.245 A
BRANCH  29  33
HETATM   33  C12 UNL     1     -11.704  16.247  27.328  1.00  0.00     0.263 C
BRANCH  33  34
HETATM   34  C13 UNL     1     -12.769  15.251  27.461  1.00  0.00     0.151 C
BRANCH  34  35
HETATM   35  N10 UNL     1     -13.704  15.442  28.552  1.00  0.00    -0.355 N
HETATM   36  C14 UNL     1     -14.260  14.370  29.272  1.00  0.00     0.256 C
HETATM   37  O1  UNL     1     -13.918  13.194  28.937  1.00  0.00    -0.267 OA
ATOM     38  H10 UNL     1     -13.969  16.392  28.808  1.00  0.00     0.162 HD
BRANCH  36  39
HETATM   39  C15 UNL     1     -15.200  14.531  30.361  1.00  0.00     0.165 C
BRANCH  39  40
HETATM   40  N11 UNL     1     -15.120  13.552  31.420  1.00  0.00    -0.326 N
HETATM   41  C16 UNL     1     -14.082  13.773  32.382  1.00  0.00     0.274 C
HETATM   42  O2  UNL     1     -13.326  14.722  32.255  1.00  0.00    -0.266 OA
ATOM     43  H11 UNL     1     -15.758  12.759  31.478  1.00  0.00     0.168 HD
BRANCH  41  44
HETATM   44  C17 UNL     1     -14.009  12.776  33.521  1.00  0.00     0.260 C
BRANCH  44  45
HETATM   45  N12 UNL     1     -13.014  13.029  34.439  1.00  0.00    -0.378 NA
HETATM   46  C18 UNL     1     -12.039  13.272  35.338  1.00  0.00     0.295 C
HETATM   47  O3  UNL     1     -11.326  12.466  35.974  1.00  0.00    -0.257 OA
BRANCH  46  48
HETATM   48  C19 UNL     1     -11.721  14.724  35.671  1.00  0.00     0.157 C
BRANCH  48  49
HETATM   49  C20 UNL     1     -10.562  15.198  34.886  1.00  0.00    -0.048 A
HETATM   50  C21 UNL     1     -10.208  16.523  34.915  1.00  0.00     0.007 A
HETATM   51  C22 UNL     1      -9.127  16.909  34.177  1.00  0.00     0.001 A
HETATM   52  C23 UNL     1      -8.394  16.009  33.411  1.00  0.00     0.000 A
HETATM   53  C24 UNL     1      -8.763  14.682  33.398  1.00  0.00     0.001 A
HETATM   54  C25 UNL     1      -9.852  14.270  34.133  1.00  0.00     0.007 A
ENDBRANCH  48  49
ENDBRANCH  46  48
ENDBRANCH  44  45
ENDBRANCH  41  44
ENDBRANCH  39  40
ENDBRANCH  36  39
ENDBRANCH  34  35
ENDBRANCH  33  34
ENDBRANCH  29  33
ENDBRANCH   1  29
TORSDOF 19
ENDMDL