MODEL 4
REMARK VINA RESULT: -8.430888957      1.582      3.819
REMARK  21 active torsions:
REMARK  status: ('A' for Active; 'I' for Inactive)
REMARK       I    between atoms: C1_2  and  N8_32
REMARK       I    between atoms: N2_3  and  C2_5
REMARK    1  A    between atoms: C2_5  and  C3_7
REMARK    2  A    between atoms: C3_7  and  N3_8
REMARK    3  A    between atoms: N3_8  and  O2_9
REMARK    4  A    between atoms: N3_8  and  C4_11
REMARK    5  A    between atoms: C4_11  and  C5_12
REMARK    6  A    between atoms: C5_12  and  C6_13
REMARK    7  A    between atoms: C6_13  and  N4_14
REMARK    8  A    between atoms: N4_14  and  C7_17
REMARK    9  A    between atoms: C7_17  and  C8_18
REMARK   10  A    between atoms: C8_18  and  N5_19
REMARK       I    between atoms: N5_19  and  C9_21
REMARK   11  A    between atoms: C9_21  and  C10_23
REMARK   12  A    between atoms: C10_23  and  C11_24
REMARK   13  A    between atoms: N8_32  and  C14_34
REMARK   14  A    between atoms: C14_34  and  C15_35
REMARK   15  A    between atoms: C15_35  and  C16_36
REMARK   16  A    between atoms: C16_36  and  C17_37
REMARK   17  A    between atoms: C17_37  and  N9_38
REMARK       I    between atoms: N9_38  and  C18_40
REMARK   18  A    between atoms: C18_40  and  C19_42
REMARK   19  A    between atoms: C19_42  and  N10_43
REMARK       I    between atoms: N10_43  and  C20_45
REMARK   20  A    between atoms: C20_45  and  C21_47
REMARK   21  A    between atoms: C21_47  and  C22_48
ROOT
HETATM    1  N1  UNL     1     -10.368  14.280  27.549  1.00  0.00    -0.063 NA
HETATM    2  C1  UNL     1     -11.009  15.476  27.166  1.00  0.00     0.191 C
HETATM    3  N2  UNL     1     -10.437  16.593  27.109  1.00  0.00    -0.297 N
ATOM      4  H2  UNL     1     -11.023  17.375  26.816  1.00  0.00     0.171 HD
HETATM    5  C2  UNL     1      -9.139  16.898  27.385  1.00  0.00     0.265 C
HETATM    6  O1  UNL     1      -8.886  17.515  28.483  1.00  0.00    -0.267 OA
HETATM    7  N8  UNL     1     -12.408  15.446  26.832  1.00  0.00    -0.364 N
ATOM      8  H8  UNL     1     -12.715  15.231  25.883  1.00  0.00     0.162 HD
ENDROOT
BRANCH   5   9
HETATM    9  C3  UNL     1      -7.965  16.595  26.557  1.00  0.00     0.196 C
BRANCH   9  10
HETATM   10  N3  UNL     1      -8.184  16.469  25.175  1.00  0.00    -0.246 N
BRANCH  10  11
HETATM   11  O2  UNL     1      -8.404  17.578  24.614  1.00  0.00    -0.284 OA
ATOM     12  H2  UNL     1      -9.279  17.906  24.783  1.00  0.00     0.245 HD
ENDBRANCH  10  11
BRANCH  10  13
HETATM   13  C4  UNL     1      -8.216  15.347  24.333  1.00  0.00     0.097 C
BRANCH  13  14
HETATM   14  C5  UNL     1      -9.364  15.090  23.439  1.00  0.00     0.074 C
BRANCH  14  15
HETATM   15  C6  UNL     1      -9.186  15.312  21.993  1.00  0.00     0.237 C
BRANCH  15  16
HETATM   16  N4  UNL     1      -7.927  16.016  21.684  1.00  0.00    -0.073 N
ATOM     17  H42 UNL     1      -7.336  16.105  22.510  1.00  0.00     0.277 HD
ATOM     18  H41 UNL     1      -7.310  15.442  21.109  1.00  0.00     0.277 HD
BRANCH  16  19
HETATM   19  C7  UNL     1      -8.175  17.309  21.068  1.00  0.00     0.251 C
BRANCH  19  20
HETATM   20  C8  UNL     1      -7.003  18.196  21.398  1.00  0.00     0.150 C
BRANCH  20  21
HETATM   21  N5  UNL     1      -6.203  17.663  22.465  1.00  0.00    -0.359 N
HETATM   22  C9  UNL     1      -5.390  18.507  23.245  1.00  0.00     0.223 C
HETATM   23  O3  UNL     1      -5.364  19.739  23.003  1.00  0.00    -0.273 OA
ATOM     24  H5  UNL     1      -6.224  16.662  22.661  1.00  0.00     0.162 HD
BRANCH  22  25
HETATM   25  C10 UNL     1      -4.546  17.952  24.369  1.00  0.00     0.161 C
BRANCH  25  26
HETATM   26  C11 UNL     1      -4.956  18.623  25.628  1.00  0.00     0.038 A
HETATM   27  C12 UNL     1      -4.322  18.626  26.849  1.00  0.00     0.118 A
HETATM   28  N6  UNL     1      -5.024  19.358  27.739  1.00  0.00    -0.317 N
HETATM   29  C13 UNL     1      -6.098  19.818  27.084  1.00  0.00     0.324 A
ATOM     30  H6  UNL     1      -4.783  19.528  28.715  1.00  0.00     0.170 HD
HETATM   31  O4  UNL     1      -6.986  20.538  27.580  1.00  0.00    -0.247 OA
HETATM   32  N7  UNL     1      -6.067  19.385  25.819  1.00  0.00    -0.311 N
ATOM     33  H7  UNL     1      -6.767  19.593  25.108  1.00  0.00     0.170 HD
ENDBRANCH  25  26
ENDBRANCH  22  25
ENDBRANCH  20  21
ENDBRANCH  19  20
ENDBRANCH  16  19
ENDBRANCH  15  16
ENDBRANCH  14  15
ENDBRANCH  13  14
ENDBRANCH  10  13
ENDBRANCH   9  10
ENDBRANCH   5   9
BRANCH   7  34
HETATM   34  C14 UNL     1     -13.354  15.724  27.865  1.00  0.00     0.122 C
BRANCH  34  35
HETATM   35  C15 UNL     1     -14.452  14.706  27.865  1.00  0.00     0.021 C
BRANCH  35  36
HETATM   36  C16 UNL     1     -14.030  13.390  27.278  1.00  0.00     0.021 C
BRANCH  36  37
HETATM   37  C17 UNL     1     -13.432  12.473  28.330  1.00  0.00     0.122 C
BRANCH  37  38
HETATM   38  N9  UNL     1     -13.942  12.822  29.659  1.00  0.00    -0.360 N
HETATM   39  C18 UNL     1     -13.611  12.062  30.798  1.00  0.00     0.235 C
HETATM   40  O5  UNL     1     -12.842  11.035  30.635  1.00  0.00    -0.272 OA
ATOM     41  H9  UNL     1     -14.551  13.633  29.761  1.00  0.00     0.162 HD
BRANCH  39  42
HETATM   42  C19 UNL     1     -14.036  12.297  32.179  1.00  0.00     0.225 C
BRANCH  42  43
HETATM   43  N10 UNL     1     -13.036  12.939  32.977  1.00  0.00    -0.352 N
HETATM   44  C20 UNL     1     -13.175  14.296  33.333  1.00  0.00     0.222 C
HETATM   45  O6  UNL     1     -14.170  14.938  32.950  1.00  0.00    -0.273 OA
ATOM     46  H10 UNL     1     -12.220  12.413  33.289  1.00  0.00     0.162 HD
BRANCH  44  47
HETATM   47  C21 UNL     1     -12.141  14.947  34.154  1.00  0.00     0.141 C
BRANCH  47  48
HETATM   48  C22 UNL     1     -10.942  15.323  33.412  1.00  0.00    -0.050 A
HETATM   49  C23 UNL     1     -10.965  15.471  32.045  1.00  0.00     0.007 A
HETATM   50  C24 UNL     1      -9.802  15.829  31.348  1.00  0.00     0.001 A
HETATM   51  C25 UNL     1      -8.635  16.032  32.027  1.00  0.00     0.000 A
HETATM   52  C26 UNL     1      -8.592  15.888  33.397  1.00  0.00     0.001 A
HETATM   53  C27 UNL     1      -9.759  15.531  34.076  1.00  0.00     0.007 A
ENDBRANCH  47  48
ENDBRANCH  44  47
ENDBRANCH  42  43
ENDBRANCH  39  42
ENDBRANCH  37  38
ENDBRANCH  36  37
ENDBRANCH  35  36
ENDBRANCH  34  35
ENDBRANCH   7  34
TORSDOF 21
ENDMDL