MODEL 3
REMARK VINA RESULT: -7.687973955      2.280     11.325
REMARK  21 active torsions:
REMARK  status: ('A' for Active; 'I' for Inactive)
REMARK    1  A    between atoms: N1_2  and  C3_4
REMARK    2  A    between atoms: N1_2  and  C23_44
REMARK    3  A    between atoms: C4_5  and  C5_6
REMARK    4  A    between atoms: C5_6  and  N2_7
REMARK    5  A    between atoms: C8_10  and  S1_11
REMARK    6  A    between atoms: S1_11  and  C9_12
REMARK    7  A    between atoms: C9_12  and  C10_13
REMARK    8  A    between atoms: C10_13  and  C11_14
REMARK    9  A    between atoms: C11_14  and  N3_15
REMARK       I    between atoms: C12_17  and  N4_18
REMARK       I    between atoms: C12_17  and  N8_33
REMARK       I    between atoms: C13_20  and  N6_22
REMARK   10  A    between atoms: N6_22  and  C14_24
REMARK   11  A    between atoms: C14_24  and  C15_25
REMARK   12  A    between atoms: C15_25  and  C16_26
REMARK   13  A    between atoms: C16_26  and  C17_27
REMARK   14  A    between atoms: C17_27  and  C18_28
REMARK   15  A    between atoms: C18_28  and  N7_29
REMARK   16  A    between atoms: N8_33  and  C19_35
REMARK   17  A    between atoms: C20_39  and  O1_40
REMARK   18  A    between atoms: C23_44  and  C24_45
REMARK   19  A    between atoms: C24_45  and  C25_46
REMARK       I    between atoms: C25_46  and  N10_48
REMARK   20  A    between atoms: N10_48  and  C26_49
REMARK   21  A    between atoms: C26_49  and  C27_50
ROOT
HETATM    1  N3  UNL     1     -12.164  15.188  29.452  1.00  0.00    -0.226 N
ATOM      2  H3  UNL     1     -11.603  15.863  28.932  1.00  0.00     0.177 HD
HETATM    3  C12 UNL     1     -11.724  14.903  30.586  1.00  0.00     0.678 C
HETATM    4  N4  UNL     1     -10.576  15.471  31.052  1.00  0.00    -0.164 N
ATOM      5  H4  UNL     1     -10.247  14.856  31.796  1.00  0.00     0.187 HD
HETATM    6  C13 UNL     1      -9.766  16.370  30.991  1.00  0.00     0.202 C
HETATM    7  N5  UNL     1      -9.863  17.457  30.072  1.00  0.00    -0.063 NA
HETATM    8  N6  UNL     1      -8.645  16.301  31.907  1.00  0.00    -0.364 N
ATOM      9  H6  UNL     1      -7.748  15.938  31.584  1.00  0.00     0.162 HD
HETATM   10  N8  UNL     1     -12.357  13.956  31.442  1.00  0.00    -0.192 N
ATOM     11  H8  UNL     1     -11.934  13.031  31.513  1.00  0.00     0.180 HD
ENDROOT
BRANCH   1  12
HETATM   12  C11 UNL     1     -13.322  14.721  28.770  1.00  0.00     0.139 C
BRANCH  12  13
HETATM   13  C10 UNL     1     -12.904  14.208  27.450  1.00  0.00     0.031 C
BRANCH  13  14
HETATM   14  C9  UNL     1     -11.456  13.952  27.175  1.00  0.00     0.081 C
BRANCH  14  15
HETATM   15  S1  UNL     1     -10.716  15.108  26.138  1.00  0.00    -0.130 SA
BRANCH  15  16
HETATM   16  C8  UNL     1      -9.461  16.201  26.600  1.00  0.00     0.003 A
HETATM   17  C7  UNL     1      -9.357  17.562  26.445  1.00  0.00     0.035 A
HETATM   18  C6  UNL     1      -8.255  18.310  26.848  1.00  0.00     0.092 A
HETATM   19  N2  UNL     1      -7.207  17.751  27.419  1.00  0.00    -0.363 N
HETATM   20  C22 UNL     1      -7.278  16.404  27.595  1.00  0.00     0.092 A
HETATM   21  C21 UNL     1      -8.308  15.624  27.230  1.00  0.00     0.035 A
BRANCH  19  22
HETATM   22  C5  UNL     1      -5.997  18.367  27.898  1.00  0.00     0.156 C
BRANCH  22  23
HETATM   23  C4  UNL     1      -4.764  18.085  27.147  1.00  0.00     0.018 C
HETATM   24  C3  UNL     1      -4.204  18.789  26.038  1.00  0.00     0.199 C
BRANCH  24  25
HETATM   25  N1  UNL     1      -4.573  19.042  24.738  1.00  0.00    -0.054 N
HETATM   26  C1  UNL     1      -4.947  20.355  24.289  1.00  0.00     0.277 C
HETATM   27  C2  UNL     1      -3.250  18.851  23.989  1.00  0.00     0.277 C
BRANCH  25  28
HETATM   28  C23 UNL     1      -5.456  18.086  24.064  1.00  0.00     0.252 C
BRANCH  28  29
HETATM   29  C24 UNL     1      -6.161  18.798  22.970  1.00  0.00     0.147 C
BRANCH  29  30
HETATM   30  C25 UNL     1      -6.184  17.951  21.664  1.00  0.00     0.292 C
HETATM   31  O2  UNL     1      -5.069  17.563  21.287  1.00  0.00    -0.257 OA
HETATM   32  N10 UNL     1      -7.420  17.751  21.114  1.00  0.00    -0.378 NA
BRANCH  32  33
HETATM   33  C26 UNL     1      -8.652  17.552  20.565  1.00  0.00     0.257 C
BRANCH  33  34
HETATM   34  C27 UNL     1      -9.477  16.540  21.301  1.00  0.00     0.283 C
HETATM   35  N11 UNL     1     -10.507  15.791  20.673  1.00  0.00    -0.056 NA
HETATM   36  O3  UNL     1      -9.251  16.320  22.546  1.00  0.00    -0.269 OA
ENDBRANCH  33  34
ENDBRANCH  32  33
ENDBRANCH  29  30
ENDBRANCH  28  29
ENDBRANCH  25  28
ENDBRANCH  24  25
ENDBRANCH  22  23
ENDBRANCH  19  22
ENDBRANCH  15  16
ENDBRANCH  14  15
ENDBRANCH  13  14
ENDBRANCH  12  13
ENDBRANCH   1  12
BRANCH  10  37
HETATM   37  C19 UNL     1     -13.544  14.201  32.213  1.00  0.00     0.358 A
HETATM   38  N9  UNL     1     -14.734  13.461  31.852  1.00  0.00    -0.019 N
HETATM   39  C20 UNL     1     -14.041  13.042  33.029  1.00  0.00     0.372 A
ATOM     40  H92 UNL     1     -15.700  13.734  31.668  1.00  0.00     0.283 HD
ATOM     41  H91 UNL     1     -15.027  12.977  31.003  1.00  0.00     0.283 HD
BRANCH  39  42
HETATM   42  O1  UNL     1     -13.189  11.926  32.984  1.00  0.00    -0.367 OA
ATOM     43  H1  UNL     1     -13.486  11.250  32.386  1.00  0.00     0.212 HD
ENDBRANCH  39  42
ENDBRANCH  10  37
BRANCH   8  44
HETATM   44  C14 UNL     1      -8.787  16.739  33.259  1.00  0.00     0.122 C
BRANCH  44  45
HETATM   45  C15 UNL     1      -8.595  15.656  34.263  1.00  0.00     0.020 C
BRANCH  45  46
HETATM   46  C16 UNL     1      -9.636  15.637  35.327  1.00  0.00     0.003 C
BRANCH  46  47
HETATM   47  C17 UNL     1     -11.060  15.647  34.828  1.00  0.00     0.027 C
BRANCH  47  48
HETATM   48  C18 UNL     1     -11.781  14.481  35.471  1.00  0.00     0.229 C
BRANCH  48  49
HETATM   49  N7  UNL     1     -11.240  13.199  35.130  1.00  0.00    -0.079 N
ATOM     50  H73 UNL     1     -11.941  12.469  35.260  1.00  0.00     0.274 HD
ATOM     51  H72 UNL     1     -11.100  13.127  34.122  1.00  0.00     0.274 HD
ATOM     52  H71 UNL     1     -10.381  12.963  35.629  1.00  0.00     0.274 HD
ENDBRANCH  48  49
ENDBRANCH  47  48
ENDBRANCH  46  47
ENDBRANCH  45  46
ENDBRANCH  44  45
ENDBRANCH   8  44
TORSDOF 21
ENDMDL