MODEL 1
REMARK VINA RESULT: -7.721622081      0.000      0.000
REMARK  21 active torsions:
REMARK  status: ('A' for Active; 'I' for Inactive)
REMARK    1  A    between atoms: C2_2  and  N1_3
REMARK       I    between atoms: N1_3  and  C3_5
REMARK       I    between atoms: C3_5  and  N2_7
REMARK    2  A    between atoms: N3_10  and  C7_12
REMARK    3  A    between atoms: C7_12  and  C8_13
REMARK    4  A    between atoms: C8_13  and  N4_14
REMARK    5  A    between atoms: N4_14  and  C9_16
REMARK    6  A    between atoms: C9_16  and  C10_17
REMARK    7  A    between atoms: C11_18  and  C12_19
REMARK    8  A    between atoms: C12_19  and  C13_20
REMARK    9  A    between atoms: C13_20  and  C14_21
REMARK       I    between atoms: C14_21  and  N5_23
REMARK   10  A    between atoms: N5_23  and  C15_24
REMARK   11  A    between atoms: C15_24  and  C16_25
REMARK   12  A    between atoms: C16_25  and  C17_26
REMARK   13  A    between atoms: C17_26  and  N6_27
REMARK   14  A    between atoms: N6_27  and  C18_30
REMARK   15  A    between atoms: C18_30  and  C19_31
REMARK       I    between atoms: C19_31  and  N7_33
REMARK   16  A    between atoms: N7_33  and  C20_35
REMARK   17  A    between atoms: C20_35  and  C21_36
REMARK   18  A    between atoms: C21_36  and  C22_37
REMARK   19  A    between atoms: C22_37  and  C23_38
REMARK   20  A    between atoms: C23_38  and  N8_39
REMARK       I    between atoms: N8_39  and  C24_41
REMARK   21  A    between atoms: N11_46  and  C25_48
ROOT
HETATM    1  C25 UNL     1      -9.268  17.299  25.082  1.00  0.00     0.245 C
HETATM    2  C26 UNL     1      -9.248  16.023  24.318  1.00  0.00     0.078 C
HETATM    3  N12 UNL     1      -9.223  15.008  23.739  1.00  0.00    -0.196 NA
ENDROOT
BRANCH   1   4
HETATM    4  N11 UNL     1     -10.015  17.057  26.258  1.00  0.00    -0.364 N
HETATM    5  C9  UNL     1      -9.893  17.811  27.329  1.00  0.00     0.097 C
ATOM      6  H11 UNL     1     -10.669  16.274  26.277  1.00  0.00     0.162 HD
BRANCH   5   7
HETATM    7  N4  UNL     1      -8.938  18.840  27.156  1.00  0.00    -0.375 N
ATOM      8  H4  UNL     1      -9.147  19.730  26.702  1.00  0.00     0.161 HD
BRANCH   7   9
HETATM    9  C8  UNL     1      -7.597  18.493  27.702  1.00  0.00     0.149 C
BRANCH   9  10
HETATM   10  C7  UNL     1      -6.520  19.392  27.299  1.00  0.00     0.256 C
BRANCH  10  11
HETATM   11  N3  UNL     1      -5.251  18.826  26.959  1.00  0.00    -0.066 N
HETATM   12  C5  UNL     1      -5.495  17.508  26.367  1.00  0.00     0.257 C
HETATM   13  C4  UNL     1      -4.479  17.211  25.273  1.00  0.00     0.155 C
HETATM   14  N2  UNL     1      -4.571  18.233  24.256  1.00  0.00    -0.331 N
HETATM   15  C3  UNL     1      -3.947  18.102  23.017  1.00  0.00     0.318 C
HETATM   16  C28 UNL     1      -5.311  19.438  24.632  1.00  0.00     0.155 C
HETATM   17  N1  UNL     1      -3.103  16.983  22.728  1.00  0.00    -0.343 N
HETATM   18  O1  UNL     1      -4.119  18.955  22.156  1.00  0.00    -0.247 OA
ATOM     19  H1  UNL     1      -2.930  16.275  23.441  1.00  0.00     0.164 HD
HETATM   20  C27 UNL     1      -4.654  19.777  26.019  1.00  0.00     0.257 C
HETATM   21  C6  UNL     1      -4.353  18.651  28.056  1.00  0.00     0.272 C
BRANCH  17  22
HETATM   22  C2  UNL     1      -2.504  16.861  21.438  1.00  0.00     0.120 C
HETATM   23  C1  UNL     1      -1.530  15.717  21.424  1.00  0.00     0.026 C
ENDBRANCH  17  22
ENDBRANCH  10  11
ENDBRANCH   9  10
ENDBRANCH   7   9
ENDBRANCH   5   7
BRANCH   5  24
HETATM   24  C10 UNL     1     -10.870  17.704  28.377  1.00  0.00     0.044 C
HETATM   25  C11 UNL     1     -10.655  16.877  29.386  1.00  0.00    -0.022 C
BRANCH  25  26
HETATM   26  C12 UNL     1      -9.386  16.136  29.409  1.00  0.00     0.037 C
BRANCH  26  27
HETATM   27  C13 UNL     1      -8.742  16.597  30.775  1.00  0.00     0.122 C
BRANCH  27  28
HETATM   28  C14 UNL     1      -9.363  15.790  31.879  1.00  0.00     0.286 C
HETATM   29  O2  UNL     1      -9.784  14.650  31.460  1.00  0.00    -0.258 OA
HETATM   30  N5  UNL     1      -9.393  16.254  33.099  1.00  0.00    -0.415 NA
BRANCH  30  31
HETATM   31  C15 UNL     1      -9.433  16.742  34.437  1.00  0.00     0.223 C
BRANCH  31  32
HETATM   32  C16 UNL     1     -10.118  15.702  35.329  1.00  0.00     0.061 C
BRANCH  32  33
HETATM   33  C17 UNL     1     -11.567  15.456  35.079  1.00  0.00     0.235 C
BRANCH  33  34
HETATM   34  N6  UNL     1     -12.311  14.468  35.716  1.00  0.00    -0.067 N
ATOM     35  H62 UNL     1     -12.183  14.497  36.727  1.00  0.00     0.277 HD
ATOM     36  H61 UNL     1     -13.309  14.669  35.677  1.00  0.00     0.277 HD
BRANCH  34  37
HETATM   37  C18 UNL     1     -12.017  13.168  35.188  1.00  0.00     0.334 C
BRANCH  37  38
HETATM   38  C19 UNL     1     -13.166  12.574  34.434  1.00  0.00     0.243 C
HETATM   39  O3  UNL     1     -14.130  13.281  34.019  1.00  0.00    -0.272 OA
HETATM   40  N7  UNL     1     -13.134  11.208  34.184  1.00  0.00    -0.360 N
ATOM     41  H7  UNL     1     -12.355  10.712  34.618  1.00  0.00     0.162 HD
BRANCH  40  42
HETATM   42  C20 UNL     1     -14.011  10.393  33.424  1.00  0.00     0.122 C
BRANCH  42  43
HETATM   43  C21 UNL     1     -13.211  10.041  32.128  1.00  0.00     0.021 C
BRANCH  43  44
HETATM   44  C22 UNL     1     -13.904  10.930  31.091  1.00  0.00     0.021 C
BRANCH  44  45
HETATM   45  C23 UNL     1     -12.959  11.747  30.238  1.00  0.00     0.122 C
BRANCH  45  46
HETATM   46  N8  UNL     1     -12.528  12.877  31.063  1.00  0.00    -0.365 N
HETATM   47  C24 UNL     1     -13.161  14.145  30.932  1.00  0.00     0.181 C
HETATM   48  N9  UNL     1     -12.900  15.131  31.736  1.00  0.00    -0.374 N
HETATM   49  N10 UNL     1     -14.100  14.340  29.870  1.00  0.00    -0.064 NA
ATOM     50  H92 UNL     1     -12.231  14.992  32.493  1.00  0.00     0.158 HD
ATOM     51  H91 UNL     1     -13.354  16.040  31.642  1.00  0.00     0.158 HD
ATOM     52  H8  UNL     1     -11.770  12.756  31.735  1.00  0.00     0.162 HD
ENDBRANCH  45  46
ENDBRANCH  44  45
ENDBRANCH  43  44
ENDBRANCH  42  43
ENDBRANCH  40  42
ENDBRANCH  37  38
ENDBRANCH  34  37
ENDBRANCH  33  34
ENDBRANCH  32  33
ENDBRANCH  31  32
ENDBRANCH  30  31
ENDBRANCH  27  28
ENDBRANCH  26  27
ENDBRANCH  25  26
ENDBRANCH   5  24
ENDBRANCH   1   4
TORSDOF 21
ENDMDL