MODEL 1
REMARK VINA RESULT: -8.473544572      0.000      0.000
REMARK  19 active torsions:
REMARK  status: ('A' for Active; 'I' for Inactive)
REMARK    1  A    between atoms: C2_2  and  C3_3
REMARK    2  A    between atoms: C3_3  and  N1_4
REMARK       I    between atoms: C4_6  and  N3_8
REMARK    3  A    between atoms: N3_8  and  C5_10
REMARK    4  A    between atoms: C6_15  and  C7_16
REMARK    5  A    between atoms: C8_17  and  S1_18
REMARK    6  A    between atoms: S1_18  and  N6_21
REMARK    7  A    between atoms: N6_21  and  C9_23
REMARK    8  A    between atoms: C9_23  and  C10_24
REMARK    9  A    between atoms: C10_24  and  N7_25
REMARK   10  A    between atoms: N7_25  and  C11_26
REMARK   11  A    between atoms: C12_27  and  C13_28
REMARK   12  A    between atoms: C13_28  and  C14_29
REMARK   13  A    between atoms: C14_29  and  N8_30
REMARK   14  A    between atoms: N8_30  and  C15_32
REMARK   15  A    between atoms: C15_32  and  C16_33
REMARK   16  A    between atoms: C16_33  and  C17_34
REMARK   17  A    between atoms: C17_34  and  C18_35
REMARK   18  A    between atoms: C18_35  and  N9_36
REMARK   19  A    between atoms: C23_44  and  C24_45
ROOT
HETATM    1  C9  UNL     1     -12.282  14.345  32.376  1.00  0.00     0.160 C
ENDROOT
BRANCH   1   2
HETATM    2  N6  UNL     1     -11.737  15.645  32.822  1.00  0.00    -0.315 N
ATOM      3  H6  UNL     1     -11.750  16.509  32.280  1.00  0.00     0.172 HD
BRANCH   2   4
HETATM    4  S1  UNL     1     -11.066  15.463  34.421  1.00  0.00     0.248 S
HETATM    5  O1  UNL     1     -12.176  14.828  35.245  1.00  0.00    -0.201 OA
HETATM    6  O2  UNL     1     -10.848  16.840  34.968  1.00  0.00    -0.201 OA
BRANCH   4   7
HETATM    7  C8  UNL     1      -9.627  14.536  34.392  1.00  0.00     0.135 C
HETATM    8  C7  UNL     1      -8.670  14.636  33.530  1.00  0.00     0.064 C
BRANCH   8   9
HETATM    9  C6  UNL     1      -8.631  15.561  32.411  1.00  0.00     0.136 A
HETATM   10  N5  UNL     1      -8.381  16.870  32.345  1.00  0.00    -0.271 N
HETATM   11  N4  UNL     1      -8.454  17.303  31.097  1.00  0.00    -0.130 N
ATOM     12  H5  UNL     1      -8.162  17.459  33.149  1.00  0.00     0.189 HD
HETATM   13  C5  UNL     1      -8.757  16.274  30.305  1.00  0.00     0.701 A
ATOM     14  H4  UNL     1      -8.304  18.265  30.791  1.00  0.00     0.205 HD
HETATM   15  N13 UNL     1      -8.865  15.216  31.101  1.00  0.00    -0.174 N
ATOM     16  H13 UNL     1      -9.092  14.274  30.783  1.00  0.00     0.186 HD
BRANCH  13  17
HETATM   17  N3  UNL     1      -8.906  16.324  29.032  1.00  0.00    -0.162 N
HETATM   18  C4  UNL     1      -7.947  15.851  28.115  1.00  0.00     0.202 C
HETATM   19  N1  UNL     1      -6.915  16.474  27.709  1.00  0.00    -0.364 N
HETATM   20  N2  UNL     1      -8.162  14.533  27.589  1.00  0.00    -0.063 NA
ATOM     21  H1  UNL     1      -6.313  15.994  27.041  1.00  0.00     0.162 HD
ATOM     22  H3  UNL     1      -9.767  16.729  28.663  1.00  0.00     0.187 HD
BRANCH  19  23
HETATM   23  C3  UNL     1      -6.525  17.795  28.111  1.00  0.00     0.122 C
BRANCH  23  24
HETATM   24  C2  UNL     1      -5.430  18.258  27.157  1.00  0.00     0.015 C
HETATM   25  C1  UNL     1      -5.736  19.647  26.651  1.00  0.00     0.006 C
ENDBRANCH  23  24
ENDBRANCH  19  23
ENDBRANCH  13  17
ENDBRANCH   8   9
ENDBRANCH   4   7
ENDBRANCH   2   4
ENDBRANCH   1   2
BRANCH   1  26
HETATM   26  C10 UNL     1     -12.878  14.487  31.073  1.00  0.00     0.264 C
BRANCH  26  27
HETATM   27  N7  UNL     1     -13.726  13.393  30.553  1.00  0.00    -0.033 N
HETATM   28  C20 UNL     1     -12.776  12.388  30.085  1.00  0.00     0.244 C
HETATM   29  C21 UNL     1     -13.075  11.094  30.794  1.00  0.00     0.031 C
HETATM   30  C22 UNL     1     -14.511  11.279  31.324  1.00  0.00     0.045 C
HETATM   31  C23 UNL     1     -14.440  12.779  31.583  1.00  0.00     0.284 C
BRANCH  27  32
HETATM   32  C11 UNL     1     -14.368  13.963  29.446  1.00  0.00     0.199 C
HETATM   33  C12 UNL     1     -13.800  14.393  28.204  1.00  0.00    -0.000 C
BRANCH  33  34
HETATM   34  C13 UNL     1     -12.790  15.479  28.125  1.00  0.00     0.047 C
BRANCH  34  35
HETATM   35  C14 UNL     1     -11.691  15.084  27.117  1.00  0.00     0.117 C
BRANCH  35  36
HETATM   36  N8  UNL     1     -10.991  16.201  26.585  1.00  0.00    -0.421 N
ATOM     37  H8  UNL     1     -10.873  17.070  27.105  1.00  0.00     0.153 HD
BRANCH  36  38
HETATM   38  C15 UNL     1     -10.461  16.018  25.265  1.00  0.00     0.113 C
BRANCH  38  39
HETATM   39  C16 UNL     1      -9.398  17.078  25.053  1.00  0.00     0.021 C
BRANCH  39  40
HETATM   40  C17 UNL     1      -8.218  16.580  24.279  1.00  0.00     0.021 C
BRANCH  40  41
HETATM   41  C18 UNL     1      -7.782  17.608  23.231  1.00  0.00     0.122 C
BRANCH  41  42
HETATM   42  N9  UNL     1      -7.187  16.841  22.154  1.00  0.00    -0.367 N
HETATM   43  C19 UNL     1      -7.529  16.992  20.928  1.00  0.00     0.196 C
HETATM   44  N10 UNL     1      -6.910  16.211  19.922  1.00  0.00    -0.067 NA
HETATM   45  N11 UNL     1      -8.527  17.930  20.516  1.00  0.00    -0.067 NA
ATOM     46  H9  UNL     1      -6.468  16.154  22.381  1.00  0.00     0.161 HD
ENDBRANCH  41  42
ENDBRANCH  40  41
ENDBRANCH  39  40
ENDBRANCH  38  39
ENDBRANCH  36  38
ENDBRANCH  35  36
ENDBRANCH  34  35
ENDBRANCH  33  34
ENDBRANCH  27  32
BRANCH  31  47
HETATM   47  C24 UNL     1     -15.683  13.341  32.068  1.00  0.00     0.262 C
HETATM   48  N12 UNL     1     -16.900  12.871  31.513  1.00  0.00    -0.060 NA
HETATM   49  O3  UNL     1     -15.747  14.207  32.938  1.00  0.00    -0.275 OA
ENDBRANCH  31  47
ENDBRANCH  26  27
ENDBRANCH   1  26
TORSDOF 19
ENDMDL