MODEL 3
REMARK VINA RESULT: -8.158186321      2.290     11.587
REMARK  20 active torsions:
REMARK  status: ('A' for Active; 'I' for Inactive)
REMARK    1  A    between atoms: C2_2  and  C3_3
REMARK    2  A    between atoms: C3_3  and  C4_4
REMARK    3  A    between atoms: C4_4  and  N1_5
REMARK    4  A    between atoms: C7_10  and  C8_11
REMARK    5  A    between atoms: C8_11  and  C9_12
REMARK    6  A    between atoms: C9_12  and  N3_13
REMARK       I    between atoms: N3_13  and  C10_14
REMARK    7  A    between atoms: C10_14  and  C11_16
REMARK    8  A    between atoms: C14_19  and  C15_20
REMARK    9  A    between atoms: C15_20  and  C16_21
REMARK   10  A    between atoms: C16_21  and  C17_22
REMARK   11  A    between atoms: C17_22  and  N4_23
REMARK       I    between atoms: N4_23  and  C18_25
REMARK   12  A    between atoms: C18_25  and  C19_27
REMARK   13  A    between atoms: C19_27  and  N5_28
REMARK       I    between atoms: N5_28  and  C20_30
REMARK   14  A    between atoms: C20_30  and  C21_32
REMARK   15  A    between atoms: C21_32  and  N6_33
REMARK       I    between atoms: N6_33  and  C22_35
REMARK   16  A    between atoms: C22_35  and  C23_37
REMARK   17  A    between atoms: C23_37  and  N7_38
REMARK       I    between atoms: N7_38  and  C24_40
REMARK   18  A    between atoms: C24_40  and  C25_42
REMARK   19  A    between atoms: C25_42  and  C26_43
REMARK   20  A    between atoms: C26_43  and  N8_44
ROOT
HETATM    1  N4  UNL     1      -6.592  17.842  27.183  1.00  0.00    -0.360 N
ATOM      2  H4  UNL     1      -7.215  17.687  26.390  1.00  0.00     0.162 HD
HETATM    3  C18 UNL     1      -5.561  18.796  27.073  1.00  0.00     0.235 C
HETATM    4  O2  UNL     1      -4.791  19.008  28.040  1.00  0.00    -0.272 OA
ENDROOT
BRANCH   1   5
HETATM    5  C17 UNL     1      -6.784  17.083  28.389  1.00  0.00     0.123 C
BRANCH   5   6
HETATM    6  C16 UNL     1      -8.160  17.131  28.949  1.00  0.00     0.026 C
BRANCH   6   7
HETATM    7  C15 UNL     1      -8.639  15.802  29.475  1.00  0.00     0.058 C
BRANCH   7   8
HETATM    8  C14 UNL     1      -8.951  15.942  30.939  1.00  0.00     0.009 A
HETATM    9  C13 UNL     1      -8.093  16.406  31.908  1.00  0.00     0.027 A
HETATM   10  C12 UNL     1      -8.780  16.386  33.095  1.00  0.00     0.038 A
HETATM   11  C11 UNL     1     -10.055  15.915  32.875  1.00  0.00     0.116 A
HETATM   12  N11 UNL     1     -10.107  15.660  31.557  1.00  0.00    -0.354 N
ATOM     13  H11 UNL     1     -10.932  15.294  31.081  1.00  0.00     0.166 HD
BRANCH  11  14
HETATM   14  C10 UNL     1     -11.125  15.738  33.883  1.00  0.00     0.342 C
HETATM   15  N3  UNL     1     -12.091  14.862  33.741  1.00  0.00    -0.382 NA
HETATM   16  O1  UNL     1     -11.034  16.507  34.902  1.00  0.00    -0.249 OA
BRANCH  15  17
HETATM   17  C9  UNL     1     -12.922  14.043  33.683  1.00  0.00     0.165 C
BRANCH  17  18
HETATM   18  C8  UNL     1     -13.285  13.260  32.448  1.00  0.00     0.118 C
BRANCH  18  19
HETATM   19  C7  UNL     1     -14.470  13.883  31.771  1.00  0.00     0.033 A
HETATM   20  N1  UNL     1     -14.876  13.688  30.499  1.00  0.00    -0.345 N
HETATM   21  C5  UNL     1     -15.972  14.423  30.250  1.00  0.00     0.183 A
HETATM   22  N2  UNL     1     -16.270  15.096  31.377  1.00  0.00    -0.360 N
HETATM   23  C6  UNL     1     -15.365  14.780  32.317  1.00  0.00     0.114 A
ATOM     24  H2  UNL     1     -17.053  15.739  31.496  1.00  0.00     0.166 HD
BRANCH  20  25
HETATM   25  C4  UNL     1     -14.219  12.810  29.553  1.00  0.00     0.130 C
BRANCH  25  26
HETATM   26  C3  UNL     1     -13.656  13.536  28.375  1.00  0.00     0.020 C
BRANCH  26  27
HETATM   27  C2  UNL     1     -12.367  13.004  27.847  1.00  0.00    -0.003 C
HETATM   28  C1  UNL     1     -11.362  14.036  27.462  1.00  0.00     0.005 C
ENDBRANCH  26  27
ENDBRANCH  25  26
ENDBRANCH  20  25
ENDBRANCH  18  19
ENDBRANCH  17  18
ENDBRANCH  15  17
ENDBRANCH  11  14
ENDBRANCH   7   8
ENDBRANCH   6   7
ENDBRANCH   5   6
ENDBRANCH   1   5
BRANCH   3  29
HETATM   29  C19 UNL     1      -5.422  19.532  25.783  1.00  0.00     0.225 C
BRANCH  29  30
HETATM   30  N5  UNL     1      -5.026  18.608  24.747  1.00  0.00    -0.351 N
HETATM   31  C20 UNL     1      -4.739  19.085  23.455  1.00  0.00     0.235 C
HETATM   32  O3  UNL     1      -4.840  20.341  23.232  1.00  0.00    -0.272 OA
ATOM     33  H5  UNL     1      -4.953  17.611  24.952  1.00  0.00     0.163 HD
BRANCH  31  34
HETATM   34  C21 UNL     1      -4.318  18.260  22.308  1.00  0.00     0.225 C
BRANCH  34  35
HETATM   35  N6  UNL     1      -5.324  18.226  21.288  1.00  0.00    -0.351 N
HETATM   36  C22 UNL     1      -5.320  17.212  20.317  1.00  0.00     0.235 C
HETATM   37  O4  UNL     1      -4.432  16.288  20.319  1.00  0.00    -0.272 OA
ATOM     38  H6  UNL     1      -6.049  18.943  21.268  1.00  0.00     0.163 HD
BRANCH  36  39
HETATM   39  C23 UNL     1      -6.307  17.112  19.233  1.00  0.00     0.225 C
BRANCH  39  40
HETATM   40  N7  UNL     1      -7.473  16.334  19.513  1.00  0.00    -0.352 N
HETATM   41  C24 UNL     1      -8.571  16.928  20.189  1.00  0.00     0.219 C
HETATM   42  O5  UNL     1      -8.473  18.141  20.525  1.00  0.00    -0.274 OA
ATOM     43  H7  UNL     1      -7.516  15.355  19.229  1.00  0.00     0.162 HD
BRANCH  41  44
HETATM   44  C25 UNL     1      -9.781  16.138  20.479  1.00  0.00     0.122 C
BRANCH  44  45
HETATM   45  C26 UNL     1     -10.016  16.003  21.971  1.00  0.00     0.131 C
BRANCH  45  46
HETATM   46  N8  UNL     1      -8.759  16.260  22.647  1.00  0.00    -0.366 N
HETATM   47  C27 UNL     1      -8.691  16.494  23.912  1.00  0.00     0.196 C
HETATM   48  N9  UNL     1      -7.415  16.732  24.481  1.00  0.00    -0.067 NA
HETATM   49  N10 UNL     1      -9.856  16.510  24.695  1.00  0.00    -0.067 NA
ATOM     50  H8  UNL     1      -7.897  16.254  22.101  1.00  0.00     0.161 HD
ENDBRANCH  45  46
ENDBRANCH  44  45
ENDBRANCH  41  44
ENDBRANCH  39  40
ENDBRANCH  36  39
ENDBRANCH  34  35
ENDBRANCH  31  34
ENDBRANCH  29  30
ENDBRANCH   3  29
TORSDOF 20
ENDMDL