MODEL 2
REMARK VINA RESULT: -8.512247461      2.898     10.767
REMARK  21 active torsions:
REMARK  status: ('A' for Active; 'I' for Inactive)
REMARK       I    between atoms: C1_4  and  N3_6
REMARK    1  A    between atoms: N3_6  and  C2_8
REMARK    2  A    between atoms: C2_8  and  C3_9
REMARK    3  A    between atoms: C3_9  and  C4_10
REMARK    4  A    between atoms: C4_10  and  C5_11
REMARK    5  A    between atoms: C5_11  and  C6_12
REMARK    6  A    between atoms: C5_11  and  N8_36
REMARK    7  A    between atoms: C6_12  and  C7_13
REMARK    8  A    between atoms: N4_16  and  C10_17
REMARK    9  A    between atoms: C10_17  and  C11_18
REMARK   10  A    between atoms: C11_18  and  C12_19
REMARK   11  A    between atoms: C12_19  and  C13_20
REMARK   12  A    between atoms: C13_20  and  C14_21
REMARK   13  A    between atoms: C14_21  and  N5_22
REMARK   14  A    between atoms: C18_26  and  S1_27
REMARK   15  A    between atoms: S1_27  and  N6_28
REMARK       I    between atoms: N8_36  and  C20_38
REMARK   16  A    between atoms: C20_38  and  C21_40
REMARK   17  A    between atoms: C21_40  and  N9_41
REMARK       I    between atoms: N9_41  and  C22_43
REMARK   18  A    between atoms: C22_43  and  C23_45
REMARK   19  A    between atoms: C23_45  and  N10_46
REMARK       I    between atoms: N10_46  and  C24_48
REMARK   20  A    between atoms: C24_48  and  C25_50
REMARK   21  A    between atoms: C25_50  and  N11_51
ROOT
HETATM    1  C5  UNL     1      -9.365  15.568  28.250  1.00  0.00     0.090 C
ENDROOT
BRANCH   1   2
HETATM    2  C4  UNL     1      -8.541  15.704  29.536  1.00  0.00     0.027 C
BRANCH   2   3
HETATM    3  C3  UNL     1      -8.935  16.864  30.362  1.00  0.00     0.022 C
BRANCH   3   4
HETATM    4  C2  UNL     1      -9.667  16.657  31.627  1.00  0.00     0.122 C
BRANCH   4   5
HETATM    5  N3  UNL     1      -8.965  16.700  32.855  1.00  0.00    -0.365 N
HETATM    6  C1  UNL     1      -9.385  16.232  34.119  1.00  0.00     0.181 C
HETATM    7  N1  UNL     1      -8.849  15.192  34.648  1.00  0.00    -0.374 N
HETATM    8  N2  UNL     1     -10.396  16.918  34.845  1.00  0.00    -0.064 NA
ATOM      9  H12 UNL     1      -9.153  14.854  35.562  1.00  0.00     0.158 HD
ATOM     10  H11 UNL     1      -8.124  14.700  34.127  1.00  0.00     0.158 HD
ATOM     11  H3  UNL     1      -8.037  17.122  32.823  1.00  0.00     0.162 HD
ENDBRANCH   4   5
ENDBRANCH   3   4
ENDBRANCH   2   3
ENDBRANCH   1   2
BRANCH   1  12
HETATM   12  C6  UNL     1      -8.571  14.894  27.172  1.00  0.00     0.083 C
BRANCH  12  13
HETATM   13  C7  UNL     1      -8.841  15.513  25.854  1.00  0.00     0.029 A
HETATM   14  C8  UNL     1      -9.676  16.605  25.602  1.00  0.00     0.045 A
HETATM   15  C9  UNL     1      -9.632  16.780  24.230  1.00  0.00     0.112 A
HETATM   16  N4  UNL     1      -8.823  15.857  23.679  1.00  0.00    -0.303 N
HETATM   17  N7  UNL     1      -8.359  15.111  24.656  1.00  0.00    -0.303 N
ATOM     18  H7  UNL     1      -7.717  14.329  24.528  1.00  0.00     0.186 HD
BRANCH  16  19
HETATM   19  C10 UNL     1      -8.527  15.669  22.242  1.00  0.00     0.148 C
BRANCH  19  20
HETATM   20  C11 UNL     1      -9.095  16.837  21.465  1.00  0.00     0.022 C
BRANCH  20  21
HETATM   21  C12 UNL     1      -8.077  17.349  20.497  1.00  0.00     0.003 C
BRANCH  21  22
HETATM   22  C13 UNL     1      -6.753  17.515  21.223  1.00  0.00     0.020 C
BRANCH  22  23
HETATM   23  C14 UNL     1      -6.812  18.692  22.176  1.00  0.00     0.128 C
BRANCH  23  24
HETATM   24  N5  UNL     1      -5.903  18.333  23.275  1.00  0.00    -0.365 N
HETATM   25  C15 UNL     1      -4.668  17.930  22.937  1.00  0.00     0.090 A
HETATM   26  C16 UNL     1      -3.729  17.576  23.900  1.00  0.00     0.019 A
HETATM   27  C17 UNL     1      -4.083  17.643  25.233  1.00  0.00     0.028 A
HETATM   28  C18 UNL     1      -5.356  18.058  25.584  1.00  0.00     0.094 A
HETATM   29  C19 UNL     1      -6.235  18.393  24.565  1.00  0.00     0.115 A
BRANCH  28  30
HETATM   30  S1  UNL     1      -5.785  18.142  27.277  1.00  0.00     0.258 S
HETATM   31  O1  UNL     1      -4.868  19.028  28.060  1.00  0.00    -0.201 OA
HETATM   32  O2  UNL     1      -5.765  16.769  27.852  1.00  0.00    -0.201 OA
BRANCH  30  33
HETATM   33  N6  UNL     1      -7.430  18.742  27.324  1.00  0.00    -0.324 N
ATOM     34  H62 UNL     1      -8.098  18.736  26.552  1.00  0.00     0.169 HD
ATOM     35  H61 UNL     1      -7.571  19.093  28.271  1.00  0.00     0.169 HD
ENDBRANCH  30  33
ENDBRANCH  28  30
ENDBRANCH  23  24
ENDBRANCH  22  23
ENDBRANCH  21  22
ENDBRANCH  20  21
ENDBRANCH  19  20
ENDBRANCH  16  19
ENDBRANCH  12  13
ENDBRANCH   1  12
BRANCH   1  36
HETATM   36  N8  UNL     1     -10.506  14.700  28.514  1.00  0.00    -0.355 N
HETATM   37  C20 UNL     1     -11.803  15.241  28.591  1.00  0.00     0.235 C
HETATM   38  O3  UNL     1     -11.951  16.476  28.425  1.00  0.00    -0.272 OA
ATOM     39  H8  UNL     1     -10.364  13.698  28.643  1.00  0.00     0.162 HD
BRANCH  37  40
HETATM   40  C21 UNL     1     -12.983  14.361  28.869  1.00  0.00     0.225 C
BRANCH  40  41
HETATM   41  N9  UNL     1     -13.368  14.551  30.246  1.00  0.00    -0.351 N
HETATM   42  C22 UNL     1     -14.670  14.353  30.694  1.00  0.00     0.235 C
HETATM   43  O4  UNL     1     -15.584  13.962  29.869  1.00  0.00    -0.272 OA
ATOM     44  H9  UNL     1     -12.657  14.842  30.917  1.00  0.00     0.163 HD
BRANCH  42  45
HETATM   45  C23 UNL     1     -15.121  14.564  32.086  1.00  0.00     0.225 C
BRANCH  45  46
HETATM   46  N10 UNL     1     -14.356  13.871  33.077  1.00  0.00    -0.351 N
HETATM   47  C24 UNL     1     -13.172  14.494  33.629  1.00  0.00     0.243 C
HETATM   48  O5  UNL     1     -12.836  15.623  33.237  1.00  0.00    -0.272 OA
ATOM     49  H10 UNL     1     -14.644  12.945  33.394  1.00  0.00     0.163 HD
BRANCH  47  50
HETATM   50  C25 UNL     1     -12.374  13.772  34.658  1.00  0.00     0.332 C
BRANCH  50  51
HETATM   51  N11 UNL     1     -12.392  14.525  35.881  1.00  0.00    -0.071 N
ATOM     52 3H11 UNL     1     -11.540  14.397  36.428  1.00  0.00     0.274 HD
ATOM     53 2H11 UNL     1     -12.307  15.529  35.719  1.00  0.00     0.274 HD
ATOM     54 1H11 UNL     1     -13.231  14.287  36.408  1.00  0.00     0.274 HD
ENDBRANCH  50  51
ENDBRANCH  47  50
ENDBRANCH  45  46
ENDBRANCH  42  45
ENDBRANCH  40  41
ENDBRANCH  37  40
ENDBRANCH   1  36
TORSDOF 21
ENDMDL