MODEL 2
REMARK VINA RESULT: -7.669472306      2.763      5.930
REMARK  22 active torsions:
REMARK  status: ('A' for Active; 'I' for Inactive)
REMARK    1  A    between atoms: O1_2  and  N1_3
REMARK    2  A    between atoms: C3_6  and  C4_7
REMARK    3  A    between atoms: C4_7  and  C5_8
REMARK    4  A    between atoms: C8_18  and  C9_19
REMARK    5  A    between atoms: C9_19  and  C10_20
REMARK       I    between atoms: C10_20  and  N5_22
REMARK    6  A    between atoms: N5_22  and  C11_23
REMARK    7  A    between atoms: C11_23  and  C12_24
REMARK    8  A    between atoms: C12_24  and  C13_25
REMARK    9  A    between atoms: C13_25  and  C14_26
REMARK   10  A    between atoms: C14_26  and  C15_27
REMARK   11  A    between atoms: C15_27  and  N6_28
REMARK   12  A    between atoms: N6_28  and  C16_29
REMARK   13  A    between atoms: N6_28  and  C19_35
REMARK   14  A    between atoms: C16_29  and  C17_30
REMARK   15  A    between atoms: C17_30  and  N7_31
REMARK       I    between atoms: N7_31  and  C18_32
REMARK   16  A    between atoms: C19_35  and  O5_36
REMARK   17  A    between atoms: C19_35  and  C20_38
REMARK   18  A    between atoms: C20_38  and  C21_39
REMARK   19  A    between atoms: C21_39  and  C22_40
REMARK   20  A    between atoms: C22_40  and  C23_41
REMARK   21  A    between atoms: C23_41  and  C24_42
REMARK   22  A    between atoms: C24_42  and  N10_43
REMARK       I    between atoms: N10_43  and  C25_45
ROOT
HETATM    1  C13 UNL     1      -8.435  15.290  33.270  1.00  0.00     0.008 C
ENDROOT
BRANCH   1   2
HETATM    2  C12 UNL     1      -9.063  16.191  32.205  1.00  0.00     0.060 C
BRANCH   2   3
HETATM    3  C11 UNL     1      -9.648  15.423  31.070  1.00  0.00     0.159 C
BRANCH   3   4
HETATM    4  N5  UNL     1      -8.990  15.423  29.870  1.00  0.00    -0.388 NA
HETATM    5  C10 UNL     1      -8.341  15.408  28.682  1.00  0.00     0.293 C
HETATM    6  O4  UNL     1      -8.165  14.411  27.907  1.00  0.00    -0.257 OA
BRANCH   5   7
HETATM    7  C9  UNL     1      -7.768  16.747  28.178  1.00  0.00     0.157 C
BRANCH   7   8
HETATM    8  C8  UNL     1      -7.557  16.719  26.725  1.00  0.00     0.219 C
HETATM    9  N1  UNL     1      -6.323  17.256  26.192  1.00  0.00    -0.210 N
HETATM   10  C2  UNL     1      -6.290  17.374  24.748  1.00  0.00     0.267 C
HETATM   11  O2  UNL     1      -5.229  17.786  24.146  1.00  0.00    -0.269 OA
HETATM   12  C3  UNL     1      -7.398  17.044  23.850  1.00  0.00     0.184 C
HETATM   13  N4  UNL     1      -8.668  17.135  24.531  1.00  0.00    -0.345 N
HETATM   14  C7  UNL     1      -8.662  17.313  25.964  1.00  0.00     0.244 C
ATOM     15  H4  UNL     1      -9.545  17.076  24.014  1.00  0.00     0.163 HD
HETATM   16  O3  UNL     1      -9.617  17.977  26.477  1.00  0.00    -0.271 OA
BRANCH   9  17
HETATM   17  O1  UNL     1      -5.288  17.674  26.892  1.00  0.00    -0.279 OA
HETATM   18  C1  UNL     1      -5.334  19.022  27.265  1.00  0.00     0.238 C
ENDBRANCH   9  17
BRANCH  12  19
HETATM   19  C4  UNL     1      -7.476  18.097  22.724  1.00  0.00     0.095 C
BRANCH  19  20
HETATM   20  C5  UNL     1      -7.544  17.401  21.412  1.00  0.00     0.045 A
HETATM   21  C6  UNL     1      -8.109  17.569  20.205  1.00  0.00     0.133 A
HETATM   22  N2  UNL     1      -7.583  16.459  19.768  1.00  0.00    -0.310 N
HETATM   23  N3  UNL     1      -7.019  16.276  20.936  1.00  0.00    -0.304 N
ATOM     24  H2  UNL     1      -7.603  15.948  18.886  1.00  0.00     0.186 HD
ATOM     25  H3  UNL     1      -6.414  15.554  21.328  1.00  0.00     0.186 HD
ENDBRANCH  19  20
ENDBRANCH  12  19
ENDBRANCH   7   8
ENDBRANCH   5   7
ENDBRANCH   3   4
ENDBRANCH   2   3
ENDBRANCH   1   2
BRANCH   1  26
HETATM   26  C14 UNL     1      -9.084  15.558  34.594  1.00  0.00     0.020 C
BRANCH  26  27
HETATM   27  C15 UNL     1     -10.524  16.040  34.391  1.00  0.00     0.125 C
BRANCH  27  28
HETATM   28  N6  UNL     1     -11.357  14.822  34.288  1.00  0.00    -0.360 N
BRANCH  28  29
HETATM   29  C16 UNL     1     -10.915  13.769  35.224  1.00  0.00     0.184 C
BRANCH  29  30
HETATM   30  C17 UNL     1     -12.107  13.109  35.937  1.00  0.00     0.178 C
BRANCH  30  31
HETATM   31  N7  UNL     1     -12.337  11.824  35.683  1.00  0.00    -0.392 NA
HETATM   32  C18 UNL     1     -12.607  10.691  35.407  1.00  0.00     0.274 C
HETATM   33  N8  UNL     1     -11.850   9.559  35.934  1.00  0.00    -0.052 NA
HETATM   34  N9  UNL     1     -13.690  10.299  34.525  1.00  0.00    -0.052 NA
ENDBRANCH  30  31
ENDBRANCH  29  30
ENDBRANCH  28  29
BRANCH  28  35
HETATM   35  C19 UNL     1     -12.413  14.698  33.418  1.00  0.00     0.113 C
BRANCH  35  36
HETATM   36  O5  UNL     1     -13.145  15.815  33.306  1.00  0.00    -0.349 OA
ATOM     37  H5  UNL     1     -12.958  16.313  32.520  1.00  0.00     0.219 HD
ENDBRANCH  35  36
BRANCH  35  38
HETATM   38  C20 UNL     1     -12.891  13.602  32.613  1.00  0.00     0.084 C
BRANCH  38  39
HETATM   39  C21 UNL     1     -13.100  13.865  31.165  1.00  0.00     0.008 C
BRANCH  39  40
HETATM   40  C22 UNL     1     -13.942  12.821  30.521  1.00  0.00     0.002 C
BRANCH  40  41
HETATM   41  C23 UNL     1     -14.216  13.186  29.098  1.00  0.00     0.020 C
BRANCH  41  42
HETATM   42  C24 UNL     1     -14.311  14.673  28.849  1.00  0.00     0.122 C
BRANCH  42  43
HETATM   43  N10 UNL     1     -13.519  15.164  27.761  1.00  0.00    -0.365 N
HETATM   44  C25 UNL     1     -12.210  15.655  27.738  1.00  0.00     0.181 C
HETATM   45  N11 UNL     1     -11.783  16.614  28.412  1.00  0.00    -0.374 N
HETATM   46  N12 UNL     1     -11.287  14.988  26.835  1.00  0.00    -0.064 NA
ATOM     47 2H11 UNL     1     -12.431  17.082  29.045  1.00  0.00     0.158 HD
ATOM     48 1H11 UNL     1     -10.828  16.973  28.394  1.00  0.00     0.158 HD
ATOM     49  H10 UNL     1     -13.987  15.154  26.855  1.00  0.00     0.162 HD
ENDBRANCH  42  43
ENDBRANCH  41  42
ENDBRANCH  40  41
ENDBRANCH  39  40
ENDBRANCH  38  39
ENDBRANCH  35  38
ENDBRANCH  28  35
ENDBRANCH  27  28
ENDBRANCH  26  27
ENDBRANCH   1  26
TORSDOF 22
ENDMDL