MODEL 5
REMARK VINA RESULT: -7.700212899      1.539      3.422
REMARK  25 active torsions:
REMARK  status: ('A' for Active; 'I' for Inactive)
REMARK    1  A    between atoms: C2_2  and  C3_3
REMARK    2  A    between atoms: C3_3  and  N1_4
REMARK       I    between atoms: N1_4  and  C4_6
REMARK    3  A    between atoms: C4_6  and  C5_8
REMARK       I    between atoms: C5_8  and  N2_10
REMARK    4  A    between atoms: N2_10  and  C6_12
REMARK    5  A    between atoms: C6_12  and  C7_13
REMARK    6  A    between atoms: C7_13  and  C8_14
REMARK    7  A    between atoms: C8_14  and  N3_15
REMARK    8  A    between atoms: N3_15  and  C9_17
REMARK    9  A    between atoms: C9_17  and  O3_18
REMARK   10  A    between atoms: C9_17  and  N4_20
REMARK   11  A    between atoms: N4_20  and  C10_22
REMARK   12  A    between atoms: C10_22  and  O4_23
REMARK   13  A    between atoms: C10_22  and  C11_25
REMARK   14  A    between atoms: C11_25  and  C12_26
REMARK   15  A    between atoms: C12_26  and  C13_27
REMARK   16  A    between atoms: C13_27  and  C14_28
REMARK   17  A    between atoms: C14_28  and  N5_29
REMARK       I    between atoms: N5_29  and  C15_31
REMARK   18  A    between atoms: C15_31  and  C16_33
REMARK   19  A    between atoms: C16_33  and  C17_34
REMARK   20  A    between atoms: C17_34  and  C18_35
REMARK   21  A    between atoms: N6_38  and  C21_39
REMARK   22  A    between atoms: C21_39  and  C22_40
REMARK   23  A    between atoms: C22_40  and  C23_41
REMARK   24  A    between atoms: C23_41  and  N7_42
REMARK   25  A    between atoms: C25_46  and  N9_47
ROOT
HETATM    1  C13 UNL     1     -10.307  14.360  27.356  1.00  0.00     0.047 C
ENDROOT
BRANCH   1   2
HETATM    2  C12 UNL     1     -11.388  14.980  28.104  1.00  0.00    -0.021 C
BRANCH   2   3
HETATM    3  C11 UNL     1     -11.861  16.347  28.105  1.00  0.00     0.052 C
BRANCH   3   4
HETATM    4  C10 UNL     1     -11.026  17.517  28.249  1.00  0.00     0.142 C
BRANCH   4   5
HETATM    5  N4  UNL     1     -10.172  18.090  27.306  1.00  0.00    -0.303 N
ATOM      6  H4  UNL     1      -9.827  19.013  27.571  1.00  0.00     0.171 HD
BRANCH   5   7
HETATM    7  C9  UNL     1      -9.709  17.654  26.094  1.00  0.00     0.218 C
BRANCH   7   8
HETATM    8  N3  UNL     1     -10.277  17.113  24.936  1.00  0.00    -0.356 N
ATOM      9  H3  UNL     1     -11.159  17.467  24.567  1.00  0.00     0.163 HD
BRANCH   8  10
HETATM   10  C8  UNL     1      -9.558  16.012  24.265  1.00  0.00     0.125 C
BRANCH  10  11
HETATM   11  C7  UNL     1      -9.622  16.163  22.786  1.00  0.00     0.039 C
BRANCH  11  12
HETATM   12  C6  UNL     1      -8.299  16.325  22.111  1.00  0.00     0.125 C
BRANCH  12  13
HETATM   13  N2  UNL     1      -7.278  16.844  22.976  1.00  0.00    -0.353 N
HETATM   14  C5  UNL     1      -6.740  18.147  22.938  1.00  0.00     0.309 C
HETATM   15  O2  UNL     1      -7.157  18.956  22.083  1.00  0.00    -0.262 OA
ATOM     16  H2  UNL     1      -6.907  16.210  23.685  1.00  0.00     0.162 HD
BRANCH  14  17
HETATM   17  C4  UNL     1      -5.696  18.603  23.858  1.00  0.00     0.309 C
HETATM   18  N1  UNL     1      -6.038  19.364  24.999  1.00  0.00    -0.349 N
ATOM     19  H1  UNL     1      -7.016  19.595  25.175  1.00  0.00     0.163 HD
HETATM   20  O1  UNL     1      -4.479  18.308  23.608  1.00  0.00    -0.262 OA
BRANCH  18  21
HETATM   21  C3  UNL     1      -5.020  19.819  25.920  1.00  0.00     0.149 C
BRANCH  21  22
HETATM   22  C2  UNL     1      -5.489  19.562  27.305  1.00  0.00    -0.018 C
HETATM   23  C1  UNL     1      -6.607  20.112  27.695  1.00  0.00     0.008 C
ENDBRANCH  21  22
ENDBRANCH  18  21
ENDBRANCH  14  17
ENDBRANCH  12  13
ENDBRANCH  11  12
ENDBRANCH  10  11
ENDBRANCH   8  10
ENDBRANCH   7   8
BRANCH   7  24
HETATM   24  O3  UNL     1      -8.382  17.761  25.978  1.00  0.00    -0.332 OA
ATOM     25  H3  UNL     1      -8.055  17.224  25.266  1.00  0.00     0.220 HD
ENDBRANCH   7  24
ENDBRANCH   5   7
ENDBRANCH   4   5
BRANCH   4  26
HETATM   26  O4  UNL     1     -11.011  18.179  29.381  1.00  0.00    -0.346 OA
ATOM     27  H4  UNL     1     -11.798  18.023  29.889  1.00  0.00     0.219 HD
ENDBRANCH   4  26
ENDBRANCH   3   4
ENDBRANCH   2   3
ENDBRANCH   1   2
BRANCH   1  28
HETATM   28  C14 UNL     1      -8.881  14.630  27.676  1.00  0.00     0.126 C
BRANCH  28  29
HETATM   29  N5  UNL     1      -8.658  14.965  29.084  1.00  0.00    -0.361 N
HETATM   30  C15 UNL     1      -8.035  16.123  29.539  1.00  0.00     0.217 C
HETATM   31  O5  UNL     1      -7.595  17.020  28.785  1.00  0.00    -0.274 OA
ATOM     32  H5  UNL     1      -8.983  14.298  29.785  1.00  0.00     0.162 HD
BRANCH  30  33
HETATM   33  C16 UNL     1      -7.855  16.355  31.004  1.00  0.00     0.107 C
BRANCH  33  34
HETATM   34  C17 UNL     1      -8.934  17.255  31.573  1.00  0.00     0.048 C
BRANCH  34  35
HETATM   35  C18 UNL     1      -9.849  16.452  32.429  1.00  0.00    -0.055 A
HETATM   36  C19 UNL     1     -10.847  15.678  31.864  1.00  0.00     0.024 A
HETATM   37  C20 UNL     1     -11.696  14.922  32.635  1.00  0.00     0.091 A
HETATM   38  N6  UNL     1     -11.607  14.891  34.010  1.00  0.00    -0.366 N
HETATM   39  C26 UNL     1     -10.648  15.635  34.550  1.00  0.00     0.091 A
HETATM   40  C27 UNL     1      -9.758  16.422  33.805  1.00  0.00     0.024 A
BRANCH  38  41
HETATM   41  C21 UNL     1     -12.521  14.045  34.748  1.00  0.00     0.129 C
BRANCH  41  42
HETATM   42  C22 UNL     1     -13.109  12.913  34.013  1.00  0.00     0.042 C
BRANCH  42  43
HETATM   43  C23 UNL     1     -14.509  12.932  33.555  1.00  0.00     0.152 C
BRANCH  43  44
HETATM   44  N7  UNL     1     -14.785  13.594  32.314  1.00  0.00    -0.273 N
HETATM   45  C24 UNL     1     -15.583  14.709  32.291  1.00  0.00     0.218 A
HETATM   46  N8  UNL     1     -15.701  15.114  31.027  1.00  0.00    -0.185 N
HETATM   47  C25 UNL     1     -15.000  14.292  30.227  1.00  0.00     0.691 A
ATOM     48  H8  UNL     1     -16.239  15.922  30.715  1.00  0.00     0.185 HD
HETATM   49  N10 UNL     1     -14.458  13.375  31.065  1.00  0.00    -0.129 N
ATOM     50  H10 UNL     1     -13.865  12.604  30.758  1.00  0.00     0.206 HD
BRANCH  47  51
HETATM   51  N9  UNL     1     -14.874  14.350  28.956  1.00  0.00    -0.233 N
ATOM     52  H92 UNL     1     -14.471  13.641  28.343  1.00  0.00     0.174 HD
ATOM     53  H91 UNL     1     -15.158  15.103  28.330  1.00  0.00     0.174 HD
ENDBRANCH  47  51
ENDBRANCH  43  44
ENDBRANCH  42  43
ENDBRANCH  41  42
ENDBRANCH  38  41
ENDBRANCH  34  35
ENDBRANCH  33  34
ENDBRANCH  30  33
ENDBRANCH  28  29
ENDBRANCH   1  28
TORSDOF 25
ENDMDL