MODEL 4
REMARK VINA RESULT: -8.120255391      1.203      1.659
REMARK  20 active torsions:
REMARK  status: ('A' for Active; 'I' for Inactive)
REMARK    1  A    between atoms: N2_4  and  N3_6
REMARK    2  A    between atoms: N3_6  and  C1_8
REMARK    3  A    between atoms: C1_8  and  C2_9
REMARK    4  A    between atoms: C1_8  and  C11_20
REMARK    5  A    between atoms: C2_9  and  C3_10
REMARK       I    between atoms: C11_20  and  N5_22
REMARK    6  A    between atoms: N5_22  and  C12_24
REMARK    7  A    between atoms: C12_24  and  C13_25
REMARK    8  A    between atoms: C12_24  and  C22_44
REMARK    9  A    between atoms: C13_25  and  C14_26
REMARK       I    between atoms: C14_26  and  N6_28
REMARK   10  A    between atoms: N6_28  and  C15_30
REMARK   11  A    between atoms: C15_30  and  C16_31
REMARK   12  A    between atoms: C16_31  and  C17_32
REMARK   13  A    between atoms: C17_32  and  N7_33
REMARK   14  A    between atoms: N7_33  and  C18_36
REMARK   15  A    between atoms: C18_36  and  C19_37
REMARK   16  A    between atoms: C19_37  and  C20_38
REMARK   17  A    between atoms: C20_38  and  N8_39
REMARK       I    between atoms: C22_44  and  N11_46
REMARK   18  A    between atoms: N11_46  and  C23_48
REMARK   19  A    between atoms: C23_48  and  C24_49
REMARK   20  A    between atoms: C24_49  and  C25_50
ROOT
HETATM    1  C12 UNL     1      -8.907  16.534  29.942  1.00  0.00     0.185 C
ENDROOT
BRANCH   1   2
HETATM    2  N5  UNL     1      -9.573  15.678  28.996  1.00  0.00    -0.346 N
HETATM    3  C11 UNL     1     -10.732  16.121  28.307  1.00  0.00     0.242 C
HETATM    4  O1  UNL     1     -11.141  17.302  28.580  1.00  0.00    -0.271 OA
ATOM      5  H5  UNL     1      -9.208  14.742  28.818  1.00  0.00     0.163 HD
BRANCH   3   6
HETATM    6  C1  UNL     1     -11.480  15.328  27.317  1.00  0.00     0.197 C
BRANCH   6   7
HETATM    7  N3  UNL     1     -11.296  15.929  26.018  1.00  0.00    -0.308 N
ATOM      8  H3  UNL     1     -12.068  15.925  25.350  1.00  0.00     0.182 HD
BRANCH   7   9
HETATM    9  N2  UNL     1     -10.089  16.511  25.663  1.00  0.00    -0.253 N
HETATM   10  N1  UNL     1      -9.966  17.768  25.705  1.00  0.00    -0.331 N
ATOM     11  H12 UNL     1     -10.761  18.336  26.000  1.00  0.00     0.178 HD
ATOM     12  H11 UNL     1      -9.079  18.197  25.443  1.00  0.00     0.178 HD
ATOM     13  H2  UNL     1      -9.305  15.928  25.370  1.00  0.00     0.207 HD
ENDBRANCH   7   9
ENDBRANCH   6   7
BRANCH   6  14
HETATM   14  C2  UNL     1     -12.968  15.226  27.652  1.00  0.00     0.077 C
BRANCH  14  15
HETATM   15  C3  UNL     1     -13.142  14.058  28.554  1.00  0.00    -0.028 A
HETATM   16  C4  UNL     1     -12.291  12.974  28.615  1.00  0.00     0.096 A
HETATM   17  N4  UNL     1     -12.810  12.157  29.547  1.00  0.00    -0.365 N
HETATM   18  C5  UNL     1     -13.937  12.671  30.071  1.00  0.00     0.042 A
ATOM     19  H4  UNL     1     -12.402  11.264  29.821  1.00  0.00     0.165 HD
HETATM   20  C6  UNL     1     -14.802  12.194  31.045  1.00  0.00     0.030 A
HETATM   21  C10 UNL     1     -14.177  13.896  29.450  1.00  0.00    -0.002 A
HETATM   22  C7  UNL     1     -15.906  12.932  31.404  1.00  0.00     0.002 A
HETATM   23  C8  UNL     1     -16.146  14.157  30.784  1.00  0.00     0.001 A
HETATM   24  C9  UNL     1     -15.286  14.630  29.815  1.00  0.00     0.014 A
ENDBRANCH  14  15
ENDBRANCH   6  14
ENDBRANCH   3   6
ENDBRANCH   1   2
BRANCH   1  25
HETATM   25  C13 UNL     1      -7.464  16.771  29.664  1.00  0.00     0.138 C
BRANCH  25  26
HETATM   26  C14 UNL     1      -7.305  17.456  28.327  1.00  0.00     0.223 C
HETATM   27  O2  UNL     1      -7.465  16.759  27.341  1.00  0.00    -0.273 OA
HETATM   28  N6  UNL     1      -6.996  18.803  28.350  1.00  0.00    -0.341 N
ATOM     29  H6  UNL     1      -6.926  19.199  29.288  1.00  0.00     0.167 HD
BRANCH  28  30
HETATM   30  C15 UNL     1      -6.758  19.733  27.312  1.00  0.00     0.065 C
BRANCH  30  31
HETATM   31  C16 UNL     1      -5.521  19.655  26.560  1.00  0.00     0.072 C
BRANCH  31  32
HETATM   32  C17 UNL     1      -5.440  18.917  25.290  1.00  0.00     0.237 C
BRANCH  32  33
HETATM   33  N7  UNL     1      -6.729  18.484  24.837  1.00  0.00    -0.075 N
ATOM     34  H72 UNL     1      -7.267  18.054  25.589  1.00  0.00     0.277 HD
ATOM     35  H71 UNL     1      -7.344  19.274  24.640  1.00  0.00     0.277 HD
BRANCH  33  36
HETATM   36  C18 UNL     1      -6.612  17.613  23.710  1.00  0.00     0.234 C
BRANCH  36  37
HETATM   37  C19 UNL     1      -7.131  18.261  22.473  1.00  0.00     0.047 C
BRANCH  37  38
HETATM   38  C20 UNL     1      -6.408  17.671  21.271  1.00  0.00     0.123 C
BRANCH  38  39
HETATM   39  N8  UNL     1      -5.169  18.408  21.093  1.00  0.00    -0.367 N
HETATM   40  C21 UNL     1      -4.108  17.806  20.645  1.00  0.00     0.196 C
HETATM   41  N9  UNL     1      -4.199  16.418  20.339  1.00  0.00    -0.067 NA
HETATM   42  N10 UNL     1      -2.921  18.552  20.486  1.00  0.00    -0.067 NA
ATOM     43  H8  UNL     1      -5.131  19.402  21.320  1.00  0.00     0.161 HD
ENDBRANCH  38  39
ENDBRANCH  37  38
ENDBRANCH  36  37
ENDBRANCH  33  36
ENDBRANCH  32  33
ENDBRANCH  31  32
ENDBRANCH  30  31
ENDBRANCH  28  30
ENDBRANCH  25  26
ENDBRANCH   1  25
BRANCH   1  44
HETATM   44  C22 UNL     1      -8.981  15.944  31.331  1.00  0.00     0.240 C
HETATM   45  O3  UNL     1      -9.206  14.733  31.501  1.00  0.00    -0.271 OA
HETATM   46  N11 UNL     1      -8.790  16.793  32.442  1.00  0.00    -0.359 N
ATOM     47  H11 UNL     1      -8.604  17.784  32.291  1.00  0.00     0.162 HD
BRANCH  46  48
HETATM   48  C23 UNL     1      -8.854  16.280  33.781  1.00  0.00     0.128 C
BRANCH  48  49
HETATM   49  C24 UNL     1     -10.075  16.659  34.560  1.00  0.00     0.076 C
BRANCH  49  50
HETATM   50  C25 UNL     1     -11.068  15.532  34.416  1.00  0.00     0.010 A
HETATM   51  C26 UNL     1     -11.993  15.528  33.386  1.00  0.00     0.025 A
HETATM   52  C27 UNL     1     -12.912  14.522  33.235  1.00  0.00     0.003 A
HETATM   53  C28 UNL     1     -12.898  13.493  34.145  1.00  0.00     0.017 A
HETATM   54  C29 UNL     1     -11.978  13.489  35.178  1.00  0.00     0.088 A
HETATM   55  N12 UNL     1     -11.094  14.513  35.274  1.00  0.00    -0.369 N
ATOM     56  H12 UNL     1     -10.419  14.503  36.038  1.00  0.00     0.165 HD
ENDBRANCH  49  50
ENDBRANCH  48  49
ENDBRANCH  46  48
ENDBRANCH   1  44
TORSDOF 20
ENDMDL