MODEL 5
REMARK VINA RESULT: -8.130149848      2.255     10.428
REMARK  19 active torsions:
REMARK  status: ('A' for Active; 'I' for Inactive)
REMARK       I    between atoms: C1_4  and  N3_6
REMARK    1  A    between atoms: N3_6  and  C2_7
REMARK    2  A    between atoms: C2_7  and  C3_8
REMARK       I    between atoms: C3_8  and  N4_10
REMARK    3  A    between atoms: N4_10  and  C4_12
REMARK    4  A    between atoms: C4_12  and  C5_13
REMARK    5  A    between atoms: C5_13  and  C6_14
REMARK    6  A    between atoms: C5_13  and  N7_22
REMARK    7  A    between atoms: C6_14  and  C7_15
REMARK    8  A    between atoms: C7_15  and  C8_16
REMARK    9  A    between atoms: C8_16  and  N5_17
REMARK       I    between atoms: N5_17  and  C9_19
REMARK   10  A    between atoms: N7_22  and  S1_24
REMARK   11  A    between atoms: S1_24  and  C10_27
REMARK   12  A    between atoms: C10_27  and  C11_28
REMARK   13  A    between atoms: C11_28  and  C12_29
REMARK   14  A    between atoms: C12_29  and  C13_30
REMARK   15  A    between atoms: C13_30  and  C14_31
REMARK   16  A    between atoms: C14_31  and  C15_32
REMARK   17  A    between atoms: C15_32  and  N8_33
REMARK       I    between atoms: N8_33  and  C16_35
REMARK   18  A    between atoms: C16_35  and  C17_37
REMARK   19  A    between atoms: C17_37  and  C18_38
ROOT
HETATM    1  C5  UNL     1      -8.701  17.012  26.560  1.00  0.00     0.154 C
ENDROOT
BRANCH   1   2
HETATM    2  C4  UNL     1      -7.793  18.094  27.070  1.00  0.00     0.093 C
BRANCH   2   3
HETATM    3  N4  UNL     1      -6.894  18.758  26.214  1.00  0.00    -0.337 N
HETATM    4  C3  UNL     1      -5.761  19.534  26.318  1.00  0.00     0.250 C
HETATM    5  O1  UNL     1      -5.288  19.833  27.471  1.00  0.00    -0.271 OA
ATOM      6  H4  UNL     1      -7.157  18.625  25.237  1.00  0.00     0.168 HD
BRANCH   4   7
HETATM    7  C2  UNL     1      -4.987  20.095  25.163  1.00  0.00     0.378 C
BRANCH   7   8
HETATM    8  N3  UNL     1      -4.667  19.223  24.101  1.00  0.00     0.091 N
HETATM    9  C1  UNL     1      -5.507  19.283  22.946  1.00  0.00     0.312 C
HETATM   10  N1  UNL     1      -6.335  20.245  22.799  1.00  0.00    -0.365 N
HETATM   11  N2  UNL     1      -5.417  18.267  21.951  1.00  0.00    -0.055 NA
ATOM     12  H12 UNL     1      -6.934  20.288  21.974  1.00  0.00     0.158 HD
ATOM     13  H11 UNL     1      -6.399  20.972  23.511  1.00  0.00     0.158 HD
HETATM   14  C24 UNL     1      -4.159  17.923  24.403  1.00  0.00     0.379 C
HETATM   15  C25 UNL     1      -2.958  18.194  23.586  1.00  0.00     0.271 C
HETATM   16  O6  UNL     1      -2.058  17.448  23.126  1.00  0.00    -0.270 OA
HETATM   17  N9  UNL     1      -3.342  19.539  23.615  1.00  0.00    -0.175 N
ATOM     18  H9  UNL     1      -2.867  20.411  23.381  1.00  0.00     0.197 HD
ENDBRANCH   7   8
ENDBRANCH   4   7
ENDBRANCH   2   3
ENDBRANCH   1   2
BRANCH   1  19
HETATM   19  C6  UNL     1      -9.703  17.253  25.553  1.00  0.00     0.005 C
BRANCH  19  20
HETATM   20  C7  UNL     1      -9.832  16.419  24.373  1.00  0.00     0.015 C
BRANCH  20  21
HETATM   21  C8  UNL     1      -8.797  16.072  23.408  1.00  0.00     0.092 C
BRANCH  21  22
HETATM   22  N5  UNL     1      -8.402  16.890  22.346  1.00  0.00    -0.321 N
HETATM   23  C9  UNL     1      -8.945  17.072  21.085  1.00  0.00     0.332 C
HETATM   24  N6  UNL     1      -8.361  18.004  20.130  1.00  0.00    -0.040 NA
HETATM   25  O2  UNL     1      -9.948  16.466  20.679  1.00  0.00    -0.251 OA
ATOM     26  H5  UNL     1      -7.570  17.451  22.532  1.00  0.00     0.169 HD
ENDBRANCH  21  22
ENDBRANCH  20  21
ENDBRANCH  19  20
ENDBRANCH   1  19
BRANCH   1  27
HETATM   27  N7  UNL     1      -9.409  16.675  27.851  1.00  0.00    -0.306 N
ATOM     28  H7  UNL     1      -9.781  17.390  28.476  1.00  0.00     0.173 HD
BRANCH  27  29
HETATM   29  S1  UNL     1      -9.536  15.040  28.177  1.00  0.00     0.227 S
HETATM   30  O3  UNL     1      -9.629  14.796  29.678  1.00  0.00    -0.206 OA
HETATM   31  O4  UNL     1      -8.241  14.297  27.800  1.00  0.00    -0.206 OA
BRANCH  29  32
HETATM   32  C10 UNL     1     -10.858  14.240  27.366  1.00  0.00     0.163 C
BRANCH  32  33
HETATM   33  C11 UNL     1     -12.162  14.954  27.411  1.00  0.00     0.017 C
BRANCH  33  34
HETATM   34  C12 UNL     1     -13.343  14.077  27.644  1.00  0.00     0.001 C
BRANCH  34  35
HETATM   35  C13 UNL     1     -14.018  14.232  28.970  1.00  0.00     0.002 C
BRANCH  35  36
HETATM   36  C14 UNL     1     -14.021  12.997  29.825  1.00  0.00     0.020 C
BRANCH  36  37
HETATM   37  C15 UNL     1     -12.603  12.810  30.381  1.00  0.00     0.122 C
BRANCH  37  38
HETATM   38  N8  UNL     1     -12.206  14.003  31.112  1.00  0.00    -0.361 N
HETATM   39  C16 UNL     1     -12.494  14.184  32.476  1.00  0.00     0.221 C
HETATM   40  O5  UNL     1     -13.128  13.339  33.180  1.00  0.00    -0.273 OA
ATOM     41  H8  UNL     1     -11.699  14.736  30.615  1.00  0.00     0.162 HD
BRANCH  39  42
HETATM   42  C17 UNL     1     -12.051  15.414  33.174  1.00  0.00     0.141 C
BRANCH  42  43
HETATM   43  C18 UNL     1     -10.564  15.499  33.139  1.00  0.00    -0.050 A
HETATM   44  C19 UNL     1      -9.811  14.520  33.780  1.00  0.00     0.007 A
HETATM   45  C20 UNL     1      -8.446  14.560  33.766  1.00  0.00     0.001 A
HETATM   46  C21 UNL     1      -7.757  15.562  33.125  1.00  0.00     0.000 A
HETATM   47  C22 UNL     1      -8.478  16.545  32.482  1.00  0.00     0.001 A
HETATM   48  C23 UNL     1      -9.869  16.502  32.496  1.00  0.00     0.007 A
ENDBRANCH  42  43
ENDBRANCH  39  42
ENDBRANCH  37  38
ENDBRANCH  36  37
ENDBRANCH  35  36
ENDBRANCH  34  35
ENDBRANCH  33  34
ENDBRANCH  32  33
ENDBRANCH  29  32
ENDBRANCH  27  29
ENDBRANCH   1  27
TORSDOF 19
ENDMDL