MODEL 5
REMARK VINA RESULT: -8.131685951      2.728      9.794
REMARK  22 active torsions:
REMARK  status: ('A' for Active; 'I' for Inactive)
REMARK    1  A    between atoms: N1_1  and  C1_4
REMARK    2  A    between atoms: C2_9  and  N4_10
REMARK    3  A    between atoms: N4_10  and  C3_12
REMARK    4  A    between atoms: C3_12  and  C4_13
REMARK    5  A    between atoms: C4_13  and  N5_14
REMARK       I    between atoms: N5_14  and  C5_16
REMARK    6  A    between atoms: C5_16  and  C6_18
REMARK    7  A    between atoms: C6_18  and  N6_19
REMARK    8  A    between atoms: N6_19  and  C7_20
REMARK       I    between atoms: N6_19  and  C24_49
REMARK    9  A    between atoms: C7_20  and  C8_21
REMARK   10  A    between atoms: C8_21  and  C9_22
REMARK   11  A    between atoms: C9_22  and  N7_23
REMARK       I    between atoms: N7_23  and  C10_25
REMARK   12  A    between atoms: N9_27  and  C11_29
REMARK   13  A    between atoms: C11_29  and  C12_30
REMARK   14  A    between atoms: C12_30  and  C13_31
REMARK   15  A    between atoms: C13_31  and  C14_32
REMARK   16  A    between atoms: N10_36  and  C18_37
REMARK   17  A    between atoms: C18_37  and  C19_38
REMARK   18  A    between atoms: C19_38  and  C20_39
REMARK   19  A    between atoms: C20_39  and  C21_40
REMARK   20  A    between atoms: C21_40  and  C22_41
REMARK   21  A    between atoms: C22_41  and  S1_42
REMARK   22  A    between atoms: S1_42  and  N11_43
ROOT
HETATM    1  C9  UNL     1      -8.951  15.642  25.385  1.00  0.00     0.123 C
ENDROOT
BRANCH   1   2
HETATM    2  C8  UNL     1      -8.927  16.768  24.361  1.00  0.00     0.039 C
BRANCH   2   3
HETATM    3  C7  UNL     1      -7.972  16.418  23.244  1.00  0.00     0.129 C
BRANCH   3   4
HETATM    4  N6  UNL     1      -8.470  16.723  21.939  1.00  0.00    -0.328 N
HETATM    5  C24 UNL     1      -9.621  16.086  21.438  1.00  0.00     0.331 C
HETATM    6  N12 UNL     1     -10.122  16.389  20.158  1.00  0.00    -0.040 NA
HETATM    7  O4  UNL     1     -10.206  15.232  22.154  1.00  0.00    -0.251 OA
BRANCH   4   8
HETATM    8  C6  UNL     1      -7.800  17.717  21.090  1.00  0.00     0.229 C
BRANCH   8   9
HETATM    9  C5  UNL     1      -6.689  18.360  21.851  1.00  0.00     0.235 C
HETATM   10  N5  UNL     1      -5.379  17.837  21.873  1.00  0.00    -0.358 N
ATOM     11  H5  UNL     1      -5.175  16.986  21.350  1.00  0.00     0.162 HD
HETATM   12  O1  UNL     1      -6.919  19.419  22.508  1.00  0.00    -0.272 OA
BRANCH  10  13
HETATM   13  C4  UNL     1      -4.323  18.472  22.614  1.00  0.00     0.143 C
BRANCH  13  14
HETATM   14  C3  UNL     1      -3.827  17.615  23.759  1.00  0.00     0.157 C
BRANCH  14  15
HETATM   15  N4  UNL     1      -4.937  17.113  24.524  1.00  0.00    -0.223 N
ATOM     16  H4  UNL     1      -5.416  16.261  24.233  1.00  0.00     0.177 HD
BRANCH  15  17
HETATM   17  C2  UNL     1      -5.327  17.745  25.581  1.00  0.00     0.707 A
HETATM   18  N3  UNL     1      -4.899  17.529  26.824  1.00  0.00    -0.117 N
HETATM   19  N2  UNL     1      -5.504  18.353  27.636  1.00  0.00    -0.118 N
ATOM     20  H3  UNL     1      -4.207  16.830  27.098  1.00  0.00     0.206 HD
HETATM   21  C1  UNL     1      -6.326  19.103  26.915  1.00  0.00     0.705 A
ATOM     22  H2  UNL     1      -5.370  18.409  28.645  1.00  0.00     0.206 HD
HETATM   23  N13 UNL     1      -6.232  18.741  25.629  1.00  0.00    -0.020 N
ATOM     24  H13 UNL     1      -6.742  19.141  24.841  1.00  0.00     0.203 HD
BRANCH  21  25
HETATM   25  N1  UNL     1      -7.098  20.037  27.368  1.00  0.00    -0.233 N
ATOM     26  H12 UNL     1      -6.777  20.903  27.801  1.00  0.00     0.174 HD
ATOM     27  H11 UNL     1      -8.118  20.032  27.352  1.00  0.00     0.174 HD
ENDBRANCH  21  25
ENDBRANCH  15  17
ENDBRANCH  14  15
ENDBRANCH  13  14
ENDBRANCH  10  13
ENDBRANCH   8   9
ENDBRANCH   4   8
ENDBRANCH   3   4
ENDBRANCH   2   3
ENDBRANCH   1   2
BRANCH   1  28
HETATM   28  N7  UNL     1      -9.588  16.151  26.574  1.00  0.00    -0.365 N
HETATM   29  C10 UNL     1      -8.771  16.452  27.699  1.00  0.00     0.183 C
HETATM   30  N8  UNL     1      -7.486  15.813  27.828  1.00  0.00    -0.064 NA
HETATM   31  N9  UNL     1      -9.153  17.277  28.602  1.00  0.00    -0.365 N
ATOM     32  H9  UNL     1     -10.061  17.737  28.527  1.00  0.00     0.162 HD
ATOM     33  H7  UNL     1     -10.597  16.293  26.608  1.00  0.00     0.162 HD
BRANCH  31  34
HETATM   34  C11 UNL     1      -8.280  17.551  29.735  1.00  0.00     0.122 C
BRANCH  34  35
HETATM   35  C12 UNL     1      -9.089  17.161  30.966  1.00  0.00     0.024 C
BRANCH  35  36
HETATM   36  C13 UNL     1      -8.268  16.383  31.952  1.00  0.00     0.041 C
BRANCH  36  37
HETATM   37  C14 UNL     1      -9.220  15.810  32.945  1.00  0.00    -0.043 A
HETATM   38  C15 UNL     1      -8.801  15.411  34.194  1.00  0.00     0.010 A
HETATM   39  C16 UNL     1      -9.735  14.885  35.092  1.00  0.00     0.018 A
HETATM   40  C17 UNL     1     -11.063  14.784  34.685  1.00  0.00     0.090 A
HETATM   41  N10 UNL     1     -11.446  15.178  33.463  1.00  0.00    -0.366 N
HETATM   42  C23 UNL     1     -10.562  15.684  32.594  1.00  0.00     0.097 A
BRANCH  41  43
HETATM   43  C18 UNL     1     -12.835  15.056  33.087  1.00  0.00     0.128 C
BRANCH  43  44
HETATM   44  C19 UNL     1     -13.134  13.631  32.619  1.00  0.00     0.020 C
BRANCH  44  45
HETATM   45  C20 UNL     1     -14.006  13.688  31.360  1.00  0.00     0.002 C
BRANCH  45  46
HETATM   46  C21 UNL     1     -13.305  12.952  30.269  1.00  0.00     0.017 C
BRANCH  46  47
HETATM   47  C22 UNL     1     -13.563  13.516  28.902  1.00  0.00     0.163 C
BRANCH  47  48
HETATM   48  S1  UNL     1     -12.405  14.726  28.384  1.00  0.00     0.224 S
HETATM   49  O2  UNL     1     -11.233  14.880  29.291  1.00  0.00    -0.206 OA
HETATM   50  O3  UNL     1     -11.843  14.249  27.051  1.00  0.00    -0.206 OA
BRANCH  48  51
HETATM   51  N11 UNL     1     -13.156  16.252  28.067  1.00  0.00    -0.328 N
ATOM     52 2H11 UNL     1     -14.143  16.348  27.828  1.00  0.00     0.168 HD
ATOM     53 1H11 UNL     1     -12.498  17.028  28.148  1.00  0.00     0.168 HD
ENDBRANCH  48  51
ENDBRANCH  47  48
ENDBRANCH  46  47
ENDBRANCH  45  46
ENDBRANCH  44  45
ENDBRANCH  43  44
ENDBRANCH  41  43
ENDBRANCH  36  37
ENDBRANCH  35  36
ENDBRANCH  34  35
ENDBRANCH  31  34
ENDBRANCH   1  28
TORSDOF 22
ENDMDL