MODEL 3
REMARK VINA RESULT: -7.630124740      3.255      9.581
REMARK  23 active torsions:
REMARK  status: ('A' for Active; 'I' for Inactive)
REMARK    1  A    between atoms: N1_2  and  C2_4
REMARK    2  A    between atoms: C6_8  and  C7_9
REMARK    3  A    between atoms: C7_9  and  S1_10
REMARK    4  A    between atoms: S1_10  and  N2_13
REMARK    5  A    between atoms: N2_13  and  C8_15
REMARK    6  A    between atoms: C8_15  and  C9_16
REMARK    7  A    between atoms: C9_16  and  C10_17
REMARK    8  A    between atoms: C10_17  and  C11_18
REMARK    9  A    between atoms: C11_18  and  C12_19
REMARK   10  A    between atoms: C12_19  and  C13_20
REMARK   11  A    between atoms: C13_20  and  C14_21
REMARK       I    between atoms: C14_21  and  N3_23
REMARK   12  A    between atoms: N3_23  and  C15_25
REMARK   13  A    between atoms: C15_25  and  C16_26
REMARK   14  A    between atoms: C16_26  and  C17_27
REMARK   15  A    between atoms: C17_27  and  N4_28
REMARK   16  A    between atoms: N4_28  and  C18_30
REMARK   17  A    between atoms: C20_34  and  C21_35
REMARK   18  A    between atoms: C21_35  and  N6_36
REMARK   19  A    between atoms: N6_36  and  C22_38
REMARK   20  A    between atoms: C22_38  and  C23_39
REMARK   21  A    between atoms: C23_39  and  C24_40
REMARK   22  A    between atoms: C24_40  and  N7_41
REMARK       I    between atoms: N7_41  and  C25_43
REMARK       I    between atoms: C25_43  and  N9_45
REMARK   23  A    between atoms: N9_45  and  N10_47
ROOT
HETATM    1  C16 UNL     1     -11.953  15.490  28.340  1.00  0.00     0.040 C
ENDROOT
BRANCH   1   2
HETATM    2  C15 UNL     1     -11.097  14.521  29.111  1.00  0.00     0.124 C
BRANCH   2   3
HETATM    3  N3  UNL     1     -10.210  15.249  29.985  1.00  0.00    -0.361 N
HETATM    4  C14 UNL     1      -8.898  15.600  29.605  1.00  0.00     0.217 C
HETATM    5  O3  UNL     1      -8.406  15.297  28.477  1.00  0.00    -0.274 OA
ATOM      6  H3  UNL     1     -10.544  15.521  30.909  1.00  0.00     0.162 HD
BRANCH   4   7
HETATM    7  C13 UNL     1      -8.052  16.349  30.556  1.00  0.00     0.103 C
BRANCH   7   8
HETATM    8  C12 UNL     1      -8.878  16.924  31.657  1.00  0.00     0.009 C
BRANCH   8   9
HETATM    9  C11 UNL     1      -8.256  16.663  32.983  1.00  0.00     0.001 C
BRANCH   9  10
HETATM   10  C10 UNL     1      -9.184  16.940  34.138  1.00  0.00     0.002 C
BRANCH  10  11
HETATM   11  C9  UNL     1      -9.123  15.857  35.181  1.00  0.00     0.020 C
BRANCH  11  12
HETATM   12  C8  UNL     1      -9.283  14.510  34.491  1.00  0.00     0.132 C
BRANCH  12  13
HETATM   13  N2  UNL     1     -10.507  13.875  34.836  1.00  0.00    -0.319 N
ATOM     14  H2  UNL     1     -10.569  13.234  35.628  1.00  0.00     0.172 HD
BRANCH  13  15
HETATM   15  S1  UNL     1     -11.855  14.226  33.879  1.00  0.00     0.231 S
HETATM   16  O1  UNL     1     -11.490  14.714  32.492  1.00  0.00    -0.206 OA
HETATM   17  O2  UNL     1     -12.637  15.376  34.500  1.00  0.00    -0.206 OA
BRANCH  15  18
HETATM   18  C7  UNL     1     -13.010  12.894  33.705  1.00  0.00     0.220 C
BRANCH  18  19
HETATM   19  C6  UNL     1     -13.642  13.015  32.335  1.00  0.00     0.026 A
HETATM   20  C5  UNL     1     -13.429  12.095  31.344  1.00  0.00     0.026 A
HETATM   21  C4  UNL     1     -14.026  12.264  30.112  1.00  0.00     0.006 A
HETATM   22  C3  UNL     1     -14.833  13.373  29.918  1.00  0.00     0.048 A
HETATM   23  C2  UNL     1     -15.038  14.290  30.924  1.00  0.00     0.100 A
HETATM   24  N13 UNL     1     -14.432  14.071  32.092  1.00  0.00    -0.345 N
ATOM     25  H13 UNL     1     -14.579  14.745  32.844  1.00  0.00     0.167 HD
BRANCH  23  26
HETATM   26  N1  UNL     1     -15.802  15.324  30.703  1.00  0.00    -0.381 N
HETATM   27  C1  UNL     1     -17.189  15.354  31.099  1.00  0.00     0.147 C
ATOM     28  H1  UNL     1     -15.406  16.139  30.235  1.00  0.00     0.160 HD
ENDBRANCH  23  26
ENDBRANCH  18  19
ENDBRANCH  15  18
ENDBRANCH  13  15
ENDBRANCH  12  13
ENDBRANCH  11  12
ENDBRANCH  10  11
ENDBRANCH   9  10
ENDBRANCH   8   9
ENDBRANCH   7   8
ENDBRANCH   4   7
ENDBRANCH   2   3
ENDBRANCH   1   2
BRANCH   1  29
HETATM   29  C17 UNL     1     -11.452  15.414  26.886  1.00  0.00     0.139 C
BRANCH  29  30
HETATM   30  N4  UNL     1     -10.544  16.474  26.565  1.00  0.00    -0.226 N
ATOM     31  H4  UNL     1     -10.568  17.331  27.117  1.00  0.00     0.177 HD
BRANCH  30  32
HETATM   32  C18 UNL     1      -9.700  16.378  25.599  1.00  0.00     0.678 A
HETATM   33  N5  UNL     1      -8.919  15.349  25.271  1.00  0.00    -0.200 N
HETATM   34  C19 UNL     1      -8.168  15.662  24.204  1.00  0.00     0.137 A
ATOM     35  H5  UNL     1      -8.896  14.454  25.760  1.00  0.00     0.183 HD
HETATM   36  C20 UNL     1      -8.523  16.977  23.863  1.00  0.00     0.080 A
HETATM   37  N12 UNL     1      -9.452  17.381  24.726  1.00  0.00    -0.189 N
ATOM     38  H12 UNL     1      -9.904  18.296  24.729  1.00  0.00     0.184 HD
BRANCH  36  39
HETATM   39  C21 UNL     1      -7.928  17.698  22.757  1.00  0.00     0.114 C
BRANCH  39  40
HETATM   40  N6  UNL     1      -7.162  18.649  22.800  1.00  0.00    -0.397 N
ATOM     41  H6  UNL     1      -7.680  19.447  23.167  1.00  0.00     0.158 HD
BRANCH  40  42
HETATM   42  C22 UNL     1      -5.867  19.070  22.548  1.00  0.00     0.120 C
BRANCH  42  43
HETATM   43  C23 UNL     1      -4.846  17.920  22.548  1.00  0.00     0.039 C
BRANCH  43  44
HETATM   44  C24 UNL     1      -4.173  17.919  23.926  1.00  0.00     0.124 C
BRANCH  44  45
HETATM   45  N7  UNL     1      -5.010  17.273  24.911  1.00  0.00    -0.363 N
HETATM   46  C25 UNL     1      -5.511  17.935  25.920  1.00  0.00     0.204 C
HETATM   47  N8  UNL     1      -5.202  19.311  26.015  1.00  0.00    -0.062 NA
HETATM   48  N9  UNL     1      -6.320  17.222  26.840  1.00  0.00    -0.260 N
ATOM     49  H9  UNL     1      -6.334  16.202  26.865  1.00  0.00     0.191 HD
ATOM     50  H7  UNL     1      -5.214  16.277  24.818  1.00  0.00     0.162 HD
BRANCH  48  51
HETATM   51  N10 UNL     1      -7.102  17.993  27.715  1.00  0.00    -0.247 N
HETATM   52  N11 UNL     1      -7.814  18.964  27.361  1.00  0.00    -0.331 N
ATOM     53 2H11 UNL     1      -7.813  19.195  26.367  1.00  0.00     0.178 HD
ATOM     54 1H11 UNL     1      -8.382  19.524  27.996  1.00  0.00     0.178 HD
ATOM     55  H10 UNL     1      -7.090  17.747  28.705  1.00  0.00     0.207 HD
ENDBRANCH  48  51
ENDBRANCH  44  45
ENDBRANCH  43  44
ENDBRANCH  42  43
ENDBRANCH  40  42
ENDBRANCH  39  40
ENDBRANCH  36  39
ENDBRANCH  30  32
ENDBRANCH  29  30
ENDBRANCH   1  29
TORSDOF 23
ENDMDL