MODEL 3
REMARK VINA RESULT: -6.335994091      7.849     13.516
REMARK  15 active torsions:
REMARK  status: ('A' for Active; 'I' for Inactive)
REMARK    1  A    between atoms: N1_1  and  C1_4
REMARK    2  A    between atoms: C2_7  and  C3_8
REMARK    3  A    between atoms: N3_10  and  C5_11
REMARK    4  A    between atoms: C6_13  and  C7_14
REMARK    5  A    between atoms: C7_14  and  O2_15
REMARK    6  A    between atoms: C8_17  and  O3_18
REMARK    7  A    between atoms: C9_20  and  O4_21
REMARK    8  A    between atoms: C10_23  and  O5_24
REMARK    9  A    between atoms: N6_34  and  C13_35
REMARK   10  A    between atoms: C13_35  and  C14_36
REMARK   11  A    between atoms: C15_38  and  N7_39
REMARK   12  A    between atoms: C17_44  and  N9_45
REMARK   13  A    between atoms: C18_51  and  C19_52
REMARK   14  A    between atoms: C19_52  and  C20_53
REMARK   15  A    between atoms: C22_59  and  O11_60
ROOT
HETATM    1  C1  UNL     1      37.441   5.533   7.235  1.00  0.00     0.694 A
HETATM    2  N2  UNL     1      37.804   6.503   6.379  1.00  0.00    -0.173 N
ATOM      3  H2  UNL     1      38.384   7.311   6.605  1.00  0.00     0.186 HD
HETATM    4  C2  UNL     1      37.264   6.220   5.156  1.00  0.00     0.153 A
HETATM    5  N5  UNL     1      36.592   5.075   5.343  1.00  0.00    -0.268 N
ATOM      6  H5  UNL     1      36.070   4.596   4.608  1.00  0.00     0.189 HD
HETATM    7  N6  UNL     1      36.681   4.635   6.590  1.00  0.00    -0.119 N
ENDROOT
BRANCH   7   8
HETATM    8  C13 UNL     1      36.038   3.414   7.112  1.00  0.00     0.210 C
BRANCH   8   9
HETATM    9  C14 UNL     1      35.462   2.695   5.914  1.00  0.00     0.236 C
HETATM   10  O8  UNL     1      34.294   3.199   5.466  1.00  0.00    -0.345 OA
HETATM   11  C15 UNL     1      33.112   2.602   5.791  1.00  0.00     0.300 C
HETATM   12  C22 UNL     1      33.015   1.139   5.508  1.00  0.00     0.270 C
HETATM   13  N14 UNL     1      34.328   0.534   5.490  1.00  0.00    -0.329 N
HETATM   14  C23 UNL     1      35.399   1.244   6.066  1.00  0.00     0.250 C
ATOM     15  H14 UNL     1      34.475  -0.384   5.072  1.00  0.00     0.165 HD
HETATM   16  O12 UNL     1      36.288   0.635   6.701  1.00  0.00    -0.271 OA
BRANCH  11  17
HETATM   17  N7  UNL     1      32.071   3.359   5.076  1.00  0.00    -0.097 N
HETATM   18  C16 UNL     1      30.875   3.595   5.642  1.00  0.00     0.357 A
HETATM   19  O9  UNL     1      30.675   3.152   6.798  1.00  0.00    -0.245 OA
HETATM   20  N8  UNL     1      29.903   4.282   5.012  1.00  0.00    -0.139 N
HETATM   21  C17 UNL     1      30.112   4.755   3.783  1.00  0.00     0.716 A
ATOM     22  H8  UNL     1      29.008   4.440   5.475  1.00  0.00     0.189 HD
HETATM   23  N10 UNL     1      31.286   4.537   3.193  1.00  0.00     0.092 N
HETATM   24  N11 UNL     1      31.766   4.869   2.029  1.00  0.00    -0.252 N
HETATM   25  C21 UNL     1      32.264   3.838   3.841  1.00  0.00     0.728 A
HETATM   26  C18 UNL     1      33.029   4.413   1.887  1.00  0.00     0.121 A
ATOM     27  H11 UNL     1      31.258   5.402   1.322  1.00  0.00     0.190 HD
HETATM   28  N13 UNL     1      33.326   3.775   3.019  1.00  0.00    -0.176 N
ATOM     29  H13 UNL     1      34.213   3.314   3.227  1.00  0.00     0.185 HD
BRANCH  21  30
HETATM   30  N9  UNL     1      29.150   5.419   3.193  1.00  0.00    -0.232 N
ATOM     31  H92 UNL     1      29.314   5.979   2.356  1.00  0.00     0.174 HD
ATOM     32  H91 UNL     1      28.210   5.373   3.585  1.00  0.00     0.174 HD
ENDBRANCH  21  30
BRANCH  26  33
HETATM   33  C19 UNL     1      33.842   4.633   0.678  1.00  0.00     0.177 C
BRANCH  33  34
HETATM   34  C20 UNL     1      34.710   5.817   0.905  1.00  0.00     0.238 C
HETATM   35  N12 UNL     1      34.367   6.698   1.964  1.00  0.00    -0.062 NA
HETATM   36  O10 UNL     1      35.722   6.022   0.168  1.00  0.00    -0.276 OA
ENDBRANCH  33  34
ENDBRANCH  26  33
ENDBRANCH  11  17
BRANCH  12  37
HETATM   37  O11 UNL     1      32.341   0.447   6.552  1.00  0.00    -0.372 OA
ATOM     38  H11 UNL     1      31.430   0.284   6.335  1.00  0.00     0.212 HD
ENDBRANCH  12  37
ENDBRANCH   8   9
ENDBRANCH   7   8
BRANCH   1  39
HETATM   39  N1  UNL     1      37.757   5.440   8.485  1.00  0.00    -0.233 N
ATOM     40  H12 UNL     1      38.694   5.209   8.817  1.00  0.00     0.174 HD
ATOM     41  H11 UNL     1      37.142   5.583   9.285  1.00  0.00     0.174 HD
ENDBRANCH   1  39
BRANCH   4  42
HETATM   42  C3  UNL     1      37.407   7.010   3.942  1.00  0.00     0.094 A
HETATM   43  C4  UNL     1      36.918   8.290   3.856  1.00  0.00     0.119 A
HETATM   44  N3  UNL     1      37.069   9.000   2.695  1.00  0.00    -0.279 N
HETATM   45  C11 UNL     1      37.691   8.452   1.643  1.00  0.00     0.331 A
HETATM   46  O6  UNL     1      37.835   9.096   0.574  1.00  0.00    -0.246 OA
HETATM   47  N4  UNL     1      38.184   7.196   1.694  1.00  0.00    -0.274 N
HETATM   48  C12 UNL     1      38.039   6.479   2.846  1.00  0.00     0.264 A
ATOM     49  H4  UNL     1      38.656   6.790   0.886  1.00  0.00     0.173 HD
HETATM   50  O7  UNL     1      38.483   5.307   2.931  1.00  0.00    -0.267 OA
BRANCH  44  51
HETATM   51  C5  UNL     1      36.548  10.337   2.630  1.00  0.00     0.264 C
HETATM   52  O1  UNL     1      36.247  10.789   3.897  1.00  0.00    -0.353 OA
HETATM   53  C6  UNL     1      35.965  12.140   3.945  1.00  0.00     0.179 C
HETATM   54  C8  UNL     1      35.035  12.645   2.928  1.00  0.00     0.180 C
HETATM   55  C9  UNL     1      34.875  11.827   1.690  1.00  0.00     0.182 C
HETATM   56  C10 UNL     1      35.242  10.382   1.852  1.00  0.00     0.198 C
BRANCH  53  57
HETATM   57  C7  UNL     1      37.292  12.876   3.994  1.00  0.00     0.198 C
BRANCH  57  58
HETATM   58  O2  UNL     1      37.543  13.430   5.245  1.00  0.00    -0.398 OA
ATOM     59  H2  UNL     1      37.841  12.782   5.873  1.00  0.00     0.209 HD
ENDBRANCH  57  58
ENDBRANCH  53  57
BRANCH  54  60
HETATM   60  O3  UNL     1      33.747  12.879   3.448  1.00  0.00    -0.390 OA
ATOM     61  H3  UNL     1      33.722  12.815   4.395  1.00  0.00     0.210 HD
ENDBRANCH  54  60
BRANCH  55  62
HETATM   62  O4  UNL     1      35.672  12.332   0.638  1.00  0.00    -0.390 OA
ATOM     63  H4  UNL     1      35.722  11.714  -0.081  1.00  0.00     0.210 HD
ENDBRANCH  55  62
BRANCH  56  64
HETATM   64  O5  UNL     1      34.256   9.757   2.636  1.00  0.00    -0.388 OA
ATOM     65  H5  UNL     1      33.409   9.971   2.260  1.00  0.00     0.210 HD
ENDBRANCH  56  64
ENDBRANCH  44  51
ENDBRANCH   4  42
TORSDOF 15
ENDMDL