MODEL 4
REMARK VINA RESULT: -6.486633756      4.681     10.592
REMARK  17 active torsions:
REMARK  status: ('A' for Active; 'I' for Inactive)
REMARK    1  A    between atoms: N5_15  and  C6_16
REMARK    2  A    between atoms: C7_18  and  C8_19
REMARK    3  A    between atoms: C8_19  and  O2_20
REMARK    4  A    between atoms: C9_22  and  N6_23
REMARK    5  A    between atoms: N6_23  and  C10_25
REMARK    6  A    between atoms: C10_25  and  C11_31
REMARK    7  A    between atoms: N7_26  and  N8_28
REMARK    8  A    between atoms: C12_33  and  N9_34
REMARK    9  A    between atoms: C17_43  and  O6_44
REMARK   10  A    between atoms: C18_46  and  O7_47
REMARK   11  A    between atoms: C19_49  and  O8_50
REMARK   12  A    between atoms: O8_50  and  C20_51
REMARK   13  A    between atoms: C21_53  and  C22_54
REMARK   14  A    between atoms: C22_54  and  O10_55
REMARK   15  A    between atoms: C23_57  and  O11_58
REMARK   16  A    between atoms: C24_60  and  O12_61
REMARK   17  A    between atoms: C25_63  and  N11_64
ROOT
HETATM    1  C6  UNL     1      36.642   3.233   6.245  1.00  0.00     0.262 C
HETATM    2  O1  UNL     1      37.203   2.946   7.469  1.00  0.00    -0.354 OA
HETATM    3  C7  UNL     1      36.805   3.921   8.364  1.00  0.00     0.173 C
HETATM    4  C9  UNL     1      36.774   5.148   7.513  1.00  0.00     0.147 C
HETATM    5  C19 UNL     1      35.894   4.540   6.393  1.00  0.00     0.199 C
ENDROOT
BRANCH   4   6
HETATM    6  N6  UNL     1      37.995   5.538   6.896  1.00  0.00    -0.367 N
ATOM      7  H6  UNL     1      38.621   4.782   6.620  1.00  0.00     0.161 HD
BRANCH   6   8
HETATM    8  C10 UNL     1      38.446   6.857   6.619  1.00  0.00     0.124 C
HETATM    9  N7  UNL     1      39.120   7.445   7.543  1.00  0.00    -0.294 N
ATOM     10  H7  UNL     1      39.437   8.391   7.333  1.00  0.00     0.187 HD
BRANCH   9  11
HETATM   11  N8  UNL     1      39.464   6.955   8.771  1.00  0.00    -0.344 N
ATOM     12  H82 UNL     1      40.089   6.149   8.752  1.00  0.00     0.176 HD
ATOM     13  H81 UNL     1      39.172   7.297   9.686  1.00  0.00     0.176 HD
ENDBRANCH   9  11
BRANCH   8  14
HETATM   14  C11 UNL     1      38.195   7.573   5.353  1.00  0.00     0.224 C
HETATM   15  O3  UNL     1      37.318   8.607   5.538  1.00  0.00    -0.348 OA
HETATM   16  C12 UNL     1      37.976   9.807   5.465  1.00  0.00     0.264 C
HETATM   17  C17 UNL     1      39.309   9.597   4.826  1.00  0.00     0.199 C
HETATM   18  C18 UNL     1      39.435   8.111   4.707  1.00  0.00     0.187 C
BRANCH  16  19
HETATM   19  N9  UNL     1      37.210  10.736   4.633  1.00  0.00    -0.280 N
HETATM   20  C13 UNL     1      37.238  10.646   3.282  1.00  0.00     0.104 A
HETATM   21  C14 UNL     1      36.511  11.529   2.517  1.00  0.00     0.092 A
HETATM   22  C15 UNL     1      35.772  12.483   3.160  1.00  0.00     0.250 A
HETATM   23  O4  UNL     1      35.082  13.322   2.495  1.00  0.00    -0.268 OA
HETATM   24  N10 UNL     1      35.747  12.569   4.500  1.00  0.00    -0.275 N
HETATM   25  C16 UNL     1      36.477  11.681   5.229  1.00  0.00     0.331 A
ATOM     26  H10 UNL     1      35.190  13.287   4.963  1.00  0.00     0.173 HD
HETATM   27  O5  UNL     1      36.418  11.804   6.496  1.00  0.00    -0.246 OA
ENDBRANCH  16  19
BRANCH  17  28
HETATM   28  O6  UNL     1      40.323  10.051   5.685  1.00  0.00    -0.388 OA
ATOM     29  H6  UNL     1      40.867   9.319   5.953  1.00  0.00     0.210 HD
ENDBRANCH  17  28
BRANCH  18  30
HETATM   30  O7  UNL     1      40.608   7.654   5.290  1.00  0.00    -0.390 OA
ATOM     31  H7  UNL     1      40.892   6.810   4.959  1.00  0.00     0.210 HD
ENDBRANCH  18  30
ENDBRANCH   8  14
ENDBRANCH   6   8
ENDBRANCH   4   6
BRANCH   3  32
HETATM   32  C8  UNL     1      37.534   3.961   9.631  1.00  0.00     0.198 C
BRANCH  32  33
HETATM   33  O2  UNL     1      37.553   5.309  10.067  1.00  0.00    -0.398 OA
ATOM     34  H2  UNL     1      37.704   5.303  11.005  1.00  0.00     0.209 HD
ENDBRANCH  32  33
ENDBRANCH   3  32
BRANCH   5  35
HETATM   35  O8  UNL     1      36.019   5.235   5.215  1.00  0.00    -0.347 OA
BRANCH  35  36
HETATM   36  C20 UNL     1      34.818   5.775   4.766  1.00  0.00     0.294 C
HETATM   37  O9  UNL     1      33.848   4.798   4.531  1.00  0.00    -0.349 OA
HETATM   38  C21 UNL     1      32.653   5.451   4.270  1.00  0.00     0.179 C
HETATM   39  C23 UNL     1      32.702   6.219   2.964  1.00  0.00     0.180 C
HETATM   40  C24 UNL     1      33.883   7.134   2.882  1.00  0.00     0.184 C
HETATM   41  C25 UNL     1      35.106   6.463   3.449  1.00  0.00     0.269 C
BRANCH  38  42
HETATM   42  C22 UNL     1      31.493   4.471   4.155  1.00  0.00     0.198 C
BRANCH  42  43
HETATM   43  O10 UNL     1      32.062   3.230   3.806  1.00  0.00    -0.398 OA
ATOM     44  H10 UNL     1      32.735   3.057   4.454  1.00  0.00     0.209 HD
ENDBRANCH  42  43
ENDBRANCH  38  42
BRANCH  39  45
HETATM   45  O11 UNL     1      32.653   5.323   1.896  1.00  0.00    -0.390 OA
ATOM     46  H11 UNL     1      33.230   5.624   1.204  1.00  0.00     0.210 HD
ENDBRANCH  39  45
BRANCH  40  47
HETATM   47  O12 UNL     1      34.159   7.422   1.537  1.00  0.00    -0.391 OA
ATOM     48  H12 UNL     1      34.881   8.037   1.486  1.00  0.00     0.210 HD
ENDBRANCH  40  47
BRANCH  41  49
HETATM   49  N11 UNL     1      35.557   5.476   2.514  1.00  0.00    -0.068 N
ATOM     50 3H11 UNL     1      35.595   4.540   2.918  1.00  0.00     0.275 HD
ATOM     51 2H11 UNL     1      34.871   5.283   1.784  1.00  0.00     0.275 HD
ATOM     52 1H11 UNL     1      36.457   5.777   2.138  1.00  0.00     0.275 HD
ENDBRANCH  41  49
ENDBRANCH  35  36
ENDBRANCH   5  35
BRANCH   1  53
HETATM   53  N5  UNL     1      35.799   2.152   5.831  1.00  0.00    -0.297 N
HETATM   54  C3  UNL     1      34.505   2.077   6.201  1.00  0.00     0.142 A
HETATM   55  N3  UNL     1      33.676   2.828   6.943  1.00  0.00    -0.336 N
HETATM   56  C4  UNL     1      33.930   0.922   5.656  1.00  0.00     0.122 A
HETATM   57  C2  UNL     1      32.399   2.568   7.190  1.00  0.00     0.183 A
ATOM     58  H3  UNL     1      34.063   3.677   7.355  1.00  0.00     0.168 HD
HETATM   59  N2  UNL     1      31.867   1.439   6.647  1.00  0.00    -0.337 N
HETATM   60  C1  UNL     1      32.610   0.623   5.893  1.00  0.00     0.131 A
ATOM     61  H2  UNL     1      30.887   1.213   6.819  1.00  0.00     0.168 HD
HETATM   62  N1  UNL     1      32.080  -0.429   5.397  1.00  0.00    -0.383 N
ATOM     63  H12 UNL     1      31.100  -0.650   5.573  1.00  0.00     0.157 HD
ATOM     64  H11 UNL     1      32.646  -1.052   4.821  1.00  0.00     0.157 HD
HETATM   65  N4  UNL     1      34.932   0.344   4.967  1.00  0.00    -0.346 N
HETATM   66  C5  UNL     1      36.060   1.080   5.070  1.00  0.00     0.188 A
ATOM     67  H4  UNL     1      34.851  -0.526   4.442  1.00  0.00     0.167 HD
ENDBRANCH   1  53
TORSDOF 17
ENDMDL