MODEL 5
REMARK VINA RESULT: -6.641683607      2.370      6.217
REMARK  15 active torsions:
REMARK  status: ('A' for Active; 'I' for Inactive)
REMARK    1  A    between atoms: N5_13  and  C5_14
REMARK    2  A    between atoms: N6_17  and  N7_18
REMARK    3  A    between atoms: C8_22  and  N8_23
REMARK    4  A    between atoms: C9_27  and  O3_28
REMARK    5  A    between atoms: C10_30  and  N9_31
REMARK    6  A    between atoms: C11_32  and  C12_33
REMARK    7  A    between atoms: C12_33  and  C13_34
REMARK    8  A    between atoms: C13_34  and  N10_35
REMARK    9  A    between atoms: N10_35  and  C14_38
REMARK   10  A    between atoms: C15_40  and  C16_41
REMARK   11  A    between atoms: C17_44  and  O7_45
REMARK   12  A    between atoms: C18_47  and  O8_48
REMARK   13  A    between atoms: C19_50  and  O9_51
REMARK   14  A    between atoms: C21_56  and  O10_57
REMARK   15  A    between atoms: C22_61  and  N13_62
ROOT
HETATM    1  N9  UNL     1      29.177   0.935   1.324  1.00  0.00    -0.287 N
HETATM    2  C11 UNL     1      30.491   1.252   1.454  1.00  0.00     0.091 A
HETATM    3  N11 UNL     1      31.155   0.119   1.828  1.00  0.00    -0.339 N
ATOM      4  H11 UNL     1      32.156   0.042   2.004  1.00  0.00     0.167 HD
HETATM    5  C20 UNL     1      30.259  -0.878   1.926  1.00  0.00     0.131 A
HETATM    6  C21 UNL     1      30.309  -2.221   2.252  1.00  0.00     0.186 A
HETATM    7  N12 UNL     1      29.201  -2.981   2.258  1.00  0.00    -0.168 N
ATOM      8  H12 UNL     1      29.261  -3.970   2.502  1.00  0.00     0.186 HD
HETATM    9  C22 UNL     1      28.014  -2.433   1.942  1.00  0.00     0.679 A
HETATM   10  N14 UNL     1      27.951  -1.133   1.624  1.00  0.00    -0.174 N
ATOM     11  H14 UNL     1      27.045  -0.728   1.385  1.00  0.00     0.186 HD
HETATM   12  C23 UNL     1      29.026  -0.350   1.608  1.00  0.00     0.160 A
ENDROOT
BRANCH   1  13
HETATM   13  C10 UNL     1      28.181   1.913   0.924  1.00  0.00     0.062 C
HETATM   14  C5  UNL     1      27.504   2.381   2.191  1.00  0.00     0.254 C
HETATM   15  C6  UNL     1      28.219   3.436   2.895  1.00  0.00     0.268 C
HETATM   16  O2  UNL     1      28.534   3.317   4.107  1.00  0.00    -0.269 OA
HETATM   17  N6  UNL     1      28.641   4.676   2.347  1.00  0.00    -0.264 N
HETATM   18  C7  UNL     1      28.439   5.124   1.016  1.00  0.00     0.187 C
HETATM   19  C8  UNL     1      28.828   4.224  -0.079  1.00  0.00     0.237 C
HETATM   20  C9  UNL     1      28.494   2.822  -0.132  1.00  0.00     0.199 C
BRANCH  14  21
HETATM   21  N5  UNL     1      26.081   2.603   2.018  1.00  0.00    -0.240 N
HETATM   22  C3  UNL     1      25.248   2.842   3.053  1.00  0.00     0.163 A
HETATM   23  N2  UNL     1      25.462   2.931   4.400  1.00  0.00    -0.291 N
HETATM   24  C4  UNL     1      23.989   3.006   2.543  1.00  0.00     0.164 A
HETATM   25  C2  UNL     1      24.434   3.177   5.191  1.00  0.00     0.330 A
ATOM     26  H2  UNL     1      26.398   2.810   4.787  1.00  0.00     0.172 HD
HETATM   27  N1  UNL     1      23.189   3.342   4.709  1.00  0.00    -0.269 N
HETATM   28  O1  UNL     1      24.645   3.259   6.438  1.00  0.00    -0.246 OA
HETATM   29  C1  UNL     1      22.108   3.611   5.630  1.00  0.00     0.164 C
HETATM   30  C24 UNL     1      22.924   3.265   3.393  1.00  0.00     0.283 A
HETATM   31  O11 UNL     1      21.764   3.416   2.913  1.00  0.00    -0.265 OA
HETATM   32  N3  UNL     1      24.114   2.860   1.215  1.00  0.00    -0.278 N
HETATM   33  N4  UNL     1      25.359   2.621   0.923  1.00  0.00    -0.237 N
ATOM     34  H3  UNL     1      23.352   2.924   0.540  1.00  0.00     0.189 HD
ATOM     35  H4  UNL     1      25.721   2.470  -0.018  1.00  0.00     0.208 HD
ENDBRANCH  14  21
BRANCH  17  36
HETATM   36  N7  UNL     1      29.326   5.565   3.177  1.00  0.00    -0.340 N
ATOM     37  H72 UNL     1      29.103   6.550   3.038  1.00  0.00     0.177 HD
ATOM     38  H71 UNL     1      29.987   5.181   3.852  1.00  0.00     0.177 HD
ENDBRANCH  17  36
BRANCH  19  39
HETATM   39  N8  UNL     1      28.506   4.957  -1.336  1.00  0.00    -0.071 N
ATOM     40  H83 UNL     1      28.644   5.966  -1.268  1.00  0.00     0.274 HD
ATOM     41  H82 UNL     1      29.175   4.794  -2.088  1.00  0.00     0.274 HD
ATOM     42  H81 UNL     1      27.550   4.690  -1.574  1.00  0.00     0.274 HD
ENDBRANCH  19  39
BRANCH  20  43
HETATM   43  O3  UNL     1      27.483   2.774  -1.166  1.00  0.00    -0.388 OA
ATOM     44  H3  UNL     1      26.696   3.030  -0.700  1.00  0.00     0.210 HD
ENDBRANCH  20  43
ENDBRANCH   1  13
BRANCH   2  45
HETATM   45  C12 UNL     1      31.192   2.545   1.259  1.00  0.00     0.104 C
BRANCH  45  46
HETATM   46  C13 UNL     1      32.461   2.597   2.068  1.00  0.00     0.243 C
BRANCH  46  47
HETATM   47  N10 UNL     1      32.417   3.549   3.131  1.00  0.00    -0.046 N
ATOM     48 2H10 UNL     1      33.107   4.293   3.020  1.00  0.00     0.280 HD
ATOM     49 1H10 UNL     1      31.579   4.130   3.102  1.00  0.00     0.280 HD
BRANCH  47  50
HETATM   50  C14 UNL     1      32.560   2.840   4.394  1.00  0.00     0.353 C
HETATM   51  O4  UNL     1      31.856   1.651   4.315  1.00  0.00    -0.338 OA
HETATM   52  C15 UNL     1      32.065   0.784   5.354  1.00  0.00     0.256 C
HETATM   53  C17 UNL     1      32.469   1.486   6.629  1.00  0.00     0.189 C
HETATM   54  C18 UNL     1      31.811   2.843   6.777  1.00  0.00     0.182 C
HETATM   55  C19 UNL     1      32.052   3.698   5.545  1.00  0.00     0.205 C
BRANCH  52  56
HETATM   56  C16 UNL     1      32.993  -0.322   5.039  1.00  0.00     0.206 C
HETATM   57  O5  UNL     1      33.200  -0.618   3.842  1.00  0.00    -0.646 OA
HETATM   58  O6  UNL     1      33.626  -1.022   6.043  1.00  0.00    -0.646 OA
ENDBRANCH  52  56
BRANCH  53  59
HETATM   59  O7  UNL     1      32.068   0.728   7.727  1.00  0.00    -0.390 OA
ATOM     60  H7  UNL     1      31.863   1.303   8.454  1.00  0.00     0.210 HD
ENDBRANCH  53  59
BRANCH  54  61
HETATM   61  O8  UNL     1      32.330   3.460   7.896  1.00  0.00    -0.390 OA
ATOM     62  H8  UNL     1      32.688   2.791   8.469  1.00  0.00     0.210 HD
ENDBRANCH  54  61
BRANCH  55  63
HETATM   63  O9  UNL     1      30.850   4.263   5.140  1.00  0.00    -0.388 OA
ATOM     64  H9  UNL     1      30.742   4.068   4.216  1.00  0.00     0.210 HD
ENDBRANCH  55  63
ENDBRANCH  47  50
ENDBRANCH  46  47
ENDBRANCH  45  46
ENDBRANCH   2  45
BRANCH   6  65
HETATM   65  O10 UNL     1      31.554  -2.740   2.570  1.00  0.00    -0.344 OA
ATOM     66  H10 UNL     1      31.954  -2.430   3.374  1.00  0.00     0.219 HD
ENDBRANCH   6  65
BRANCH   9  67
HETATM   67  N13 UNL     1      26.931  -3.131   1.937  1.00  0.00    -0.234 N
ATOM     68 2H13 UNL     1      26.345  -3.140   2.772  1.00  0.00     0.174 HD
ATOM     69 1H13 UNL     1      26.647  -3.670   1.119  1.00  0.00     0.174 HD
ENDBRANCH   9  67
TORSDOF 15
ENDMDL