MODEL 3
REMARK VINA RESULT: -7.154318297      4.030      8.210
REMARK  17 active torsions:
REMARK  status: ('A' for Active; 'I' for Inactive)
REMARK    1  A    between atoms: C5_14  and  C6_15
REMARK    2  A    between atoms: C6_15  and  O1_16
REMARK    3  A    between atoms: O1_16  and  C7_17
REMARK    4  A    between atoms: C8_19  and  C9_20
REMARK    5  A    between atoms: C9_20  and  O3_21
REMARK    6  A    between atoms: C9_20  and  C10_23
REMARK    7  A    between atoms: C11_25  and  C12_26
REMARK    8  A    between atoms: C12_26  and  O5_27
REMARK    9  A    between atoms: C13_29  and  O6_30
REMARK   10  A    between atoms: C14_32  and  O7_33
REMARK   11  A    between atoms: C15_35  and  O8_36
REMARK   12  A    between atoms: C16_38  and  N5_39
REMARK   13  A    between atoms: N7_48  and  N8_49
REMARK   14  A    between atoms: N9_52  and  C21_53
REMARK   15  A    between atoms: C22_54  and  O11_55
REMARK   16  A    between atoms: C24_59  and  O13_60
REMARK   17  A    between atoms: C25_62  and  O14_63
ROOT
HETATM    1  C7  UNL     1      32.953   5.768   0.980  1.00  0.00     0.364 C
HETATM    2  O2  UNL     1      33.720   5.222   2.000  1.00  0.00    -0.335 OA
HETATM    3  C8  UNL     1      32.902   4.449   2.809  1.00  0.00     0.197 C
HETATM    4  C16 UNL     1      31.651   4.163   2.059  1.00  0.00     0.224 C
HETATM    5  N7  UNL     1      31.632   5.184   1.048  1.00  0.00    -0.159 NA
ENDROOT
BRANCH   1   6
HETATM    6  O1  UNL     1      32.948   7.129   1.123  1.00  0.00    -0.340 OA
BRANCH   6   7
HETATM    7  C6  UNL     1      33.978   7.826   0.564  1.00  0.00     0.249 C
BRANCH   7   8
HETATM    8  C5  UNL     1      34.876   8.374   1.588  1.00  0.00     0.110 A
HETATM    9  N4  UNL     1      35.569   7.636   2.470  1.00  0.00    -0.338 N
HETATM   10  C4  UNL     1      36.296   8.411   3.286  1.00  0.00     0.122 A
ATOM     11  H4  UNL     1      35.545   6.617   2.513  1.00  0.00     0.167 HD
HETATM   12  C1  UNL     1      37.154   8.126   4.336  1.00  0.00     0.131 A
HETATM   13  C3  UNL     1      36.042   9.708   2.889  1.00  0.00     0.141 A
HETATM   14  N1  UNL     1      37.344   6.903   4.651  1.00  0.00    -0.383 N
HETATM   15  N2  UNL     1      37.732   9.153   4.957  1.00  0.00    -0.337 N
ATOM     16  H12 UNL     1      37.975   6.694   5.423  1.00  0.00     0.157 HD
ATOM     17  H11 UNL     1      36.901   6.117   4.176  1.00  0.00     0.157 HD
HETATM   18  C2  UNL     1      37.483  10.424   4.568  1.00  0.00     0.183 A
ATOM     19  H2  UNL     1      38.368   8.979   5.735  1.00  0.00     0.168 HD
HETATM   20  N3  UNL     1      36.655  10.731   3.554  1.00  0.00    -0.336 N
ATOM     21  H3  UNL     1      36.489  11.702   3.288  1.00  0.00     0.168 HD
HETATM   22  N9  UNL     1      35.177   9.653   1.859  1.00  0.00    -0.308 N
BRANCH  22  23
HETATM   23  C21 UNL     1      34.672  10.850   1.177  1.00  0.00     0.161 A
HETATM   24  C22 UNL     1      34.521  11.994   2.157  1.00  0.00     0.216 A
HETATM   25  C23 UNL     1      35.408  13.074   1.686  1.00  0.00     0.188 A
HETATM   26  O12 UNL     1      35.535  14.139   2.228  1.00  0.00    -0.292 OA
HETATM   27  C24 UNL     1      36.119  12.664   0.455  1.00  0.00     0.221 A
HETATM   28  C25 UNL     1      35.601  11.300   0.095  1.00  0.00     0.180 A
BRANCH  24  29
HETATM   29  O11 UNL     1      33.221  12.433   2.291  1.00  0.00    -0.386 OA
ATOM     30  H11 UNL     1      33.145  13.250   2.771  1.00  0.00     0.210 HD
ENDBRANCH  24  29
BRANCH  27  31
HETATM   31  O13 UNL     1      35.863  13.610  -0.565  1.00  0.00    -0.385 OA
ATOM     32  H13 UNL     1      35.782  13.157  -1.396  1.00  0.00     0.210 HD
ENDBRANCH  27  31
BRANCH  28  33
HETATM   33  O14 UNL     1      36.664  10.416  -0.127  1.00  0.00    -0.390 OA
ATOM     34  H14 UNL     1      37.402  10.818  -0.570  1.00  0.00     0.210 HD
ENDBRANCH  28  33
ENDBRANCH  22  23
ENDBRANCH   7   8
ENDBRANCH   6   7
ENDBRANCH   1   6
BRANCH   5  35
HETATM   35  N8  UNL     1      31.239   4.629  -0.189  1.00  0.00    -0.357 NA
ATOM     36  H82 UNL     1      31.779   3.785  -0.378  1.00  0.00     0.171 HD
ATOM     37  H81 UNL     1      31.390   5.278  -0.961  1.00  0.00     0.171 HD
ENDBRANCH   5  35
BRANCH   3  38
HETATM   38  C9  UNL     1      32.697   5.225   4.084  1.00  0.00     0.182 C
BRANCH  38  39
HETATM   39  O3  UNL     1      33.550   6.363   4.093  1.00  0.00    -0.390 OA
ATOM     40  H3  UNL     1      34.271   6.216   4.693  1.00  0.00     0.210 HD
ENDBRANCH  38  39
BRANCH  38  41
HETATM   41  C10 UNL     1      33.102   4.452   5.329  1.00  0.00     0.184 C
HETATM   42  O4  UNL     1      33.300   3.140   4.891  1.00  0.00    -0.370 OA
HETATM   43  C11 UNL     1      33.669   2.282   5.898  1.00  0.00     0.177 C
HETATM   44  C13 UNL     1      34.899   2.738   6.647  1.00  0.00     0.180 C
HETATM   45  C14 UNL     1      34.863   4.189   6.995  1.00  0.00     0.180 C
HETATM   46  C15 UNL     1      34.472   4.955   5.735  1.00  0.00     0.181 C
BRANCH  43  47
HETATM   47  C12 UNL     1      32.579   2.033   6.906  1.00  0.00     0.198 C
BRANCH  47  48
HETATM   48  O5  UNL     1      31.482   1.447   6.302  1.00  0.00    -0.398 OA
ATOM     49  H5  UNL     1      30.737   1.441   6.893  1.00  0.00     0.209 HD
ENDBRANCH  47  48
ENDBRANCH  43  47
BRANCH  44  50
HETATM   50  O6  UNL     1      36.018   2.487   5.868  1.00  0.00    -0.390 OA
ATOM     51  H6  UNL     1      36.709   3.087   6.121  1.00  0.00     0.210 HD
ENDBRANCH  44  50
BRANCH  45  52
HETATM   52  O7  UNL     1      36.119   4.628   7.377  1.00  0.00    -0.390 OA
ATOM     53  H7  UNL     1      36.793   4.175   6.885  1.00  0.00     0.210 HD
ENDBRANCH  45  52
BRANCH  46  54
HETATM   54  O8  UNL     1      35.362   4.526   4.742  1.00  0.00    -0.390 OA
ATOM     55  H8  UNL     1      36.235   4.642   5.096  1.00  0.00     0.210 HD
ENDBRANCH  46  54
ENDBRANCH  38  41
ENDBRANCH   3  38
BRANCH   4  56
HETATM   56  N5  UNL     1      30.442   4.163   2.810  1.00  0.00    -0.288 N
HETATM   57  C17 UNL     1      29.672   5.253   2.925  1.00  0.00     0.103 A
HETATM   58  C18 UNL     1      28.500   5.246   3.652  1.00  0.00     0.092 A
HETATM   59  C19 UNL     1      28.138   4.059   4.271  1.00  0.00     0.250 A
HETATM   60  O9  UNL     1      27.091   3.946   4.959  1.00  0.00    -0.268 OA
HETATM   61  N6  UNL     1      28.925   2.979   4.142  1.00  0.00    -0.275 N
HETATM   62  C20 UNL     1      30.039   3.047   3.430  1.00  0.00     0.330 A
ATOM     63  H6  UNL     1      28.665   2.103   4.595  1.00  0.00     0.173 HD
HETATM   64  O10 UNL     1      30.732   1.978   3.356  1.00  0.00    -0.246 OA
ENDBRANCH   4  56
TORSDOF 17
ENDMDL