MODEL 4
REMARK VINA RESULT: -5.880323871      2.488      3.372
REMARK  15 active torsions:
REMARK  status: ('A' for Active; 'I' for Inactive)
REMARK    1  A    between atoms: C3_6  and  C4_7
REMARK       I    between atoms: C4_7  and  N2_9
REMARK    2  A    between atoms: N2_9  and  C5_11
REMARK    3  A    between atoms: C6_12  and  N3_13
REMARK    4  A    between atoms: C7_14  and  C8_15
REMARK    5  A    between atoms: N4_17  and  C10_18
REMARK    6  A    between atoms: C11_20  and  C12_21
REMARK    7  A    between atoms: C12_21  and  O3_22
REMARK    8  A    between atoms: C12_21  and  C13_24
REMARK    9  A    between atoms: C13_24  and  O4_25
REMARK   10  A    between atoms: C14_27  and  O5_28
REMARK   11  A    between atoms: C15_30  and  O6_31
REMARK   12  A    between atoms: N10_51  and  N11_52
REMARK   13  A    between atoms: C22_55  and  N12_56
REMARK   14  A    between atoms: C24_61  and  O9_62
REMARK   15  A    between atoms: C25_64  and  O10_65
ROOT
HETATM    1  N3  UNL     1      25.306   3.294   2.945  1.00  0.00    -0.284 N
HETATM    2  C7  UNL     1      26.195   3.715   3.900  1.00  0.00     0.142 A
HETATM    3  N7  UNL     1      25.440   4.001   4.971  1.00  0.00    -0.333 N
ATOM      4  H7  UNL     1      25.820   4.343   5.853  1.00  0.00     0.168 HD
HETATM    5  C16 UNL     1      24.144   3.792   4.762  1.00  0.00     0.147 A
HETATM    6  C17 UNL     1      22.994   3.929   5.527  1.00  0.00     0.277 A
HETATM    7  O7  UNL     1      23.133   4.345   6.697  1.00  0.00    -0.266 OA
HETATM    8  N8  UNL     1      21.782   3.632   5.043  1.00  0.00    -0.318 N
ATOM      9  H8  UNL     1      20.944   3.737   5.614  1.00  0.00     0.169 HD
HETATM   10  C18 UNL     1      21.713   3.189   3.775  1.00  0.00     0.185 A
HETATM   11  N9  UNL     1      22.818   3.057   3.033  1.00  0.00    -0.336 N
ATOM     12  H9  UNL     1      22.707   2.718   2.077  1.00  0.00     0.168 HD
HETATM   13  C19 UNL     1      24.065   3.336   3.452  1.00  0.00     0.145 A
ENDROOT
BRANCH   1  14
HETATM   14  C6  UNL     1      25.735   2.901   1.647  1.00  0.00     0.272 C
HETATM   15  C5  UNL     1      24.774   2.874   0.535  1.00  0.00     0.231 C
HETATM   16  N10 UNL     1      24.641   1.448   0.171  1.00  0.00    -0.181 NA
HETATM   17  C20 UNL     1      25.104   0.827   1.422  1.00  0.00     0.215 C
HETATM   18  O8  UNL     1      26.242   1.583   1.659  1.00  0.00    -0.341 OA
HETATM   19  C21 UNL     1      25.482  -0.619   1.096  1.00  0.00     0.058 C
BRANCH  15  20
HETATM   20  N2  UNL     1      25.323   3.584  -0.643  1.00  0.00    -0.337 N
HETATM   21  C4  UNL     1      24.489   4.220  -1.587  1.00  0.00     0.252 C
HETATM   22  O1  UNL     1      23.234   4.139  -1.354  1.00  0.00    -0.271 OA
ATOM     23  H2  UNL     1      26.334   3.615  -0.776  1.00  0.00     0.164 HD
BRANCH  21  24
HETATM   24  C3  UNL     1      24.943   4.951  -2.786  1.00  0.00     0.302 C
HETATM   25  N1  UNL     1      26.399   4.969  -2.794  1.00  0.00    -0.054 N
HETATM   26  C2  UNL     1      26.963   6.236  -2.449  1.00  0.00     0.214 C
ATOM     27  H12 UNL     1      26.757   4.650  -3.695  1.00  0.00     0.278 HD
ATOM     28  H11 UNL     1      26.771   4.235  -2.193  1.00  0.00     0.278 HD
HETATM   29  C1  UNL     1      28.378   5.972  -1.942  1.00  0.00     0.043 C
HETATM   30  C25 UNL     1      26.248   6.945  -1.324  1.00  0.00     0.179 C
HETATM   31  C24 UNL     1      24.759   7.040  -1.552  1.00  0.00     0.174 C
HETATM   32  C22 UNL     1      24.422   6.370  -2.844  1.00  0.00     0.155 C
BRANCH  30  33
HETATM   33  O10 UNL     1      26.795   8.229  -1.211  1.00  0.00    -0.391 OA
ATOM     34  H10 UNL     1      27.732   8.134  -1.089  1.00  0.00     0.210 HD
ENDBRANCH  30  33
BRANCH  31  35
HETATM   35  O9  UNL     1      24.387   8.389  -1.585  1.00  0.00    -0.391 OA
ATOM     36  H9  UNL     1      24.068   8.669  -0.734  1.00  0.00     0.210 HD
ENDBRANCH  31  35
BRANCH  32  37
HETATM   37  N12 UNL     1      23.018   6.395  -3.116  1.00  0.00    -0.357 N
HETATM   38  C23 UNL     1      22.515   7.183  -3.978  1.00  0.00     0.197 C
HETATM   39  N13 UNL     1      23.371   8.065  -4.690  1.00  0.00    -0.067 NA
HETATM   40  N14 UNL     1      21.133   7.216  -4.257  1.00  0.00    -0.067 NA
ATOM     41  H12 UNL     1      22.403   5.761  -2.605  1.00  0.00     0.162 HD
ENDBRANCH  32  37
ENDBRANCH  21  24
ENDBRANCH  15  20
BRANCH  16  42
HETATM   42  N11 UNL     1      25.618   1.123  -0.774  1.00  0.00    -0.359 NA
ATOM     43 2H11 UNL     1      26.391   1.759  -0.580  1.00  0.00     0.171 HD
ATOM     44 1H11 UNL     1      25.330   1.476  -1.687  1.00  0.00     0.171 HD
ENDBRANCH  16  42
ENDBRANCH   1  14
BRANCH   2  45
HETATM   45  C8  UNL     1      27.640   3.816   3.769  1.00  0.00     0.111 A
HETATM   46  C9  UNL     1      28.276   4.931   3.215  1.00  0.00     0.149 A
HETATM   47  N4  UNL     1      29.624   4.735   3.227  1.00  0.00    -0.255 N
HETATM   48  N5  UNL     1      29.809   3.551   3.766  1.00  0.00    -0.238 N
HETATM   49  N6  UNL     1      28.642   3.001   4.089  1.00  0.00    -0.281 N
ATOM     50  H5  UNL     1      30.720   3.116   3.914  1.00  0.00     0.208 HD
ATOM     51  H6  UNL     1      28.531   2.084   4.521  1.00  0.00     0.188 HD
BRANCH  47  52
HETATM   52  C10 UNL     1      30.643   5.614   2.758  1.00  0.00     0.276 C
HETATM   53  O2  UNL     1      31.625   5.875   3.709  1.00  0.00    -0.352 OA
HETATM   54  C11 UNL     1      32.804   5.317   3.236  1.00  0.00     0.186 C
HETATM   55  C14 UNL     1      32.734   5.602   1.738  1.00  0.00     0.182 C
HETATM   56  C15 UNL     1      31.296   5.192   1.486  1.00  0.00     0.200 C
BRANCH  54  57
HETATM   57  C12 UNL     1      34.028   5.897   3.863  1.00  0.00     0.173 C
BRANCH  57  58
HETATM   58  O3  UNL     1      35.113   5.967   3.027  1.00  0.00    -0.391 OA
ATOM     59  H3  UNL     1      35.932   5.698   3.426  1.00  0.00     0.210 HD
ENDBRANCH  57  58
BRANCH  57  60
HETATM   60  C13 UNL     1      34.299   5.204   5.175  1.00  0.00     0.198 C
BRANCH  60  61
HETATM   61  O4  UNL     1      33.119   4.504   5.498  1.00  0.00    -0.398 OA
ATOM     62  H4  UNL     1      32.962   4.665   6.420  1.00  0.00     0.209 HD
ENDBRANCH  60  61
ENDBRANCH  57  60
ENDBRANCH  54  57
BRANCH  55  63
HETATM   63  O5  UNL     1      32.901   6.970   1.528  1.00  0.00    -0.390 OA
ATOM     64  H5  UNL     1      33.716   7.247   1.930  1.00  0.00     0.210 HD
ENDBRANCH  55  63
BRANCH  56  65
HETATM   65  O6  UNL     1      31.322   3.798   1.300  1.00  0.00    -0.388 OA
ATOM     66  H6  UNL     1      31.902   3.517   0.603  1.00  0.00     0.210 HD
ENDBRANCH  56  65
ENDBRANCH  47  52
ENDBRANCH   2  45
TORSDOF 15
ENDMDL