MODEL 1
REMARK VINA RESULT: -6.844056762      0.000      0.000
REMARK  18 active torsions:
REMARK  status: ('A' for Active; 'I' for Inactive)
REMARK    1  A    between atoms: C2_5  and  C3_6
REMARK       I    between atoms: C3_6  and  N3_8
REMARK    2  A    between atoms: N3_8  and  N4_10
REMARK    3  A    between atoms: C4_15  and  N6_16
REMARK       I    between atoms: N6_16  and  C5_18
REMARK    4  A    between atoms: C5_18  and  C6_20
REMARK    5  A    between atoms: C6_20  and  O3_21
REMARK    6  A    between atoms: C10_29  and  C11_30
REMARK       I    between atoms: C11_30  and  N9_32
REMARK    7  A    between atoms: N9_32  and  C12_34
REMARK    8  A    between atoms: C12_34  and  C13_35
REMARK    9  A    between atoms: C13_35  and  O5_36
REMARK   10  A    between atoms: C14_38  and  O6_39
REMARK   11  A    between atoms: C17_45  and  C18_46
REMARK   12  A    between atoms: C18_46  and  O9_47
REMARK   13  A    between atoms: C18_46  and  O10_49
REMARK   14  A    between atoms: O10_49  and  C19_50
REMARK   15  A    between atoms: C21_53  and  O12_54
REMARK   16  A    between atoms: C22_56  and  O13_57
REMARK   17  A    between atoms: C23_59  and  O14_60
REMARK   18  A    between atoms: C24_62  and  O15_63
ROOT
HETATM    1  C6  UNL     1      28.998   3.341   2.939  1.00  0.00     0.198 C
HETATM    2  C7  UNL     1      30.131   2.510   3.400  1.00  0.00     0.055 A
HETATM    3  C8  UNL     1      30.715   1.391   2.849  1.00  0.00     0.122 A
HETATM    4  N7  UNL     1      31.771   0.829   3.435  1.00  0.00    -0.338 N
ATOM      5  H7  UNL     1      32.193   0.000   3.015  1.00  0.00     0.167 HD
HETATM    6  C9  UNL     1      32.291   1.328   4.565  1.00  0.00     0.135 A
HETATM    7  N8  UNL     1      33.432   0.691   5.161  1.00  0.00    -0.082 NA
HETATM    8  C10 UNL     1      31.724   2.464   5.157  1.00  0.00     0.106 A
HETATM    9  C14 UNL     1      30.604   3.095   4.572  1.00  0.00     0.097 A
HETATM   10  C15 UNL     1      30.447   0.549   1.682  1.00  0.00     0.310 C
HETATM   11  O7  UNL     1      31.476  -0.076   1.342  1.00  0.00    -0.258 OA
HETATM   12  O8  UNL     1      29.293   0.353   0.944  1.00  0.00    -0.316 OA
HETATM   13  C16 UNL     1      27.925   0.327   1.279  1.00  0.00     0.191 C
HETATM   14  C17 UNL     1      27.410   1.645   1.824  1.00  0.00     0.098 C
HETATM   15  C24 UNL     1      28.303   2.782   1.720  1.00  0.00     0.178 C
ENDROOT
BRANCH   1  16
HETATM   16  C5  UNL     1      29.657   4.590   2.366  1.00  0.00     0.278 C
HETATM   17  N6  UNL     1      30.527   4.573   1.269  1.00  0.00    -0.155 N
ATOM     18  H6  UNL     1      30.351   3.909   0.516  1.00  0.00     0.187 HD
HETATM   19  O2  UNL     1      29.328   5.654   3.002  1.00  0.00    -0.269 OA
BRANCH  17  20
HETATM   20  C4  UNL     1      31.528   5.353   1.174  1.00  0.00     0.703 A
HETATM   21  N1  UNL     1      32.264   5.621   0.064  1.00  0.00    -0.126 N
HETATM   22  C1  UNL     1      32.046   5.054  -1.252  1.00  0.00     0.197 C
HETATM   23  N2  UNL     1      33.224   6.482   0.349  1.00  0.00    -0.264 N
HETATM   24  C2  UNL     1      33.150   6.802   1.637  1.00  0.00     0.206 A
ATOM     25  H2  UNL     1      33.912   6.844  -0.312  1.00  0.00     0.189 HD
HETATM   26  N5  UNL     1      32.096   6.095   2.138  1.00  0.00    -0.168 N
ATOM     27  H5  UNL     1      31.784   6.127   3.109  1.00  0.00     0.186 HD
BRANCH  24  28
HETATM   28  C3  UNL     1      34.020   7.723   2.359  1.00  0.00     0.305 C
HETATM   29  O1  UNL     1      34.556   7.413   3.457  1.00  0.00    -0.263 OA
HETATM   30  N3  UNL     1      34.301   9.016   1.850  1.00  0.00    -0.270 N
ATOM     31  H3  UNL     1      33.877   9.286   0.963  1.00  0.00     0.189 HD
BRANCH  30  32
HETATM   32  N4  UNL     1      35.119   9.933   2.492  1.00  0.00    -0.342 N
ATOM     33  H42 UNL     1      35.118   9.923   3.512  1.00  0.00     0.176 HD
ATOM     34  H41 UNL     1      35.709  10.604   2.000  1.00  0.00     0.176 HD
ENDBRANCH  30  32
ENDBRANCH  24  28
ENDBRANCH  17  20
ENDBRANCH   1  16
BRANCH   1  35
HETATM   35  O3  UNL     1      28.126   3.768   3.884  1.00  0.00    -0.373 OA
ATOM     36  H3  UNL     1      28.622   3.852   4.690  1.00  0.00     0.211 HD
ENDBRANCH   1  35
BRANCH  15  37
HETATM   37  O15 UNL     1      27.600   3.931   1.224  1.00  0.00    -0.391 OA
ATOM     38  H15 UNL     1      26.927   3.533   0.684  1.00  0.00     0.210 HD
ENDBRANCH  15  37
BRANCH   9  39
HETATM   39  O6  UNL     1      30.065   4.148   5.113  1.00  0.00    -0.359 OA
ATOM     40  H6  UNL     1      30.063   5.004   4.701  1.00  0.00     0.217 HD
ENDBRANCH   9  39
BRANCH  14  41
HETATM   41  C18 UNL     1      26.667   1.402   3.101  1.00  0.00     0.268 C
BRANCH  41  42
HETATM   42  O9  UNL     1      25.880   0.264   3.124  1.00  0.00    -0.371 OA
ATOM     43  H9  UNL     1      25.212   0.243   3.799  1.00  0.00     0.212 HD
ENDBRANCH  41  42
BRANCH  41  44
HETATM   44  O10 UNL     1      25.716   2.452   3.190  1.00  0.00    -0.329 OA
BRANCH  44  45
HETATM   45  C19 UNL     1      24.811   2.287   4.208  1.00  0.00     0.294 C
HETATM   46  O11 UNL     1      23.494   2.397   3.808  1.00  0.00    -0.356 OA
HETATM   47  C20 UNL     1      22.840   3.534   4.208  1.00  0.00     0.205 C
HETATM   48  C21 UNL     1      22.802   3.738   5.698  1.00  0.00     0.173 C
HETATM   49  C22 UNL     1      24.091   3.358   6.354  1.00  0.00     0.182 C
HETATM   50  C23 UNL     1      25.171   3.270   5.301  1.00  0.00     0.204 C
BRANCH  48  51
HETATM   51  O12 UNL     1      21.777   2.980   6.292  1.00  0.00    -0.391 OA
ATOM     52  H12 UNL     1      22.131   2.283   6.833  1.00  0.00     0.210 HD
ENDBRANCH  48  51
BRANCH  49  53
HETATM   53  O13 UNL     1      24.455   4.385   7.221  1.00  0.00    -0.390 OA
ATOM     54  H13 UNL     1      24.979   4.010   7.919  1.00  0.00     0.210 HD
ENDBRANCH  49  53
BRANCH  50  55
HETATM   55  O14 UNL     1      25.337   4.509   4.730  1.00  0.00    -0.388 OA
ATOM     56  H14 UNL     1      26.250   4.605   4.483  1.00  0.00     0.210 HD
ENDBRANCH  50  55
ENDBRANCH  44  45
ENDBRANCH  41  44
ENDBRANCH  14  41
BRANCH   8  57
HETATM   57  C11 UNL     1      32.364   2.926   6.374  1.00  0.00     0.257 C
HETATM   58  O4  UNL     1      31.645   2.855   7.452  1.00  0.00    -0.267 OA
HETATM   59  N9  UNL     1      33.651   3.440   6.555  1.00  0.00    -0.355 N
ATOM     60  H9  UNL     1      34.233   3.486   5.719  1.00  0.00     0.162 HD
BRANCH  59  61
HETATM   61  C12 UNL     1      34.258   3.909   7.764  1.00  0.00     0.148 C
BRANCH  61  62
HETATM   62  C13 UNL     1      35.699   4.261   7.716  1.00  0.00     0.183 C
BRANCH  62  63
HETATM   63  O5  UNL     1      36.058   5.332   8.473  1.00  0.00    -0.399 OA
ATOM     64  H5  UNL     1      36.849   5.777   8.193  1.00  0.00     0.209 HD
ENDBRANCH  62  63
ENDBRANCH  61  62
ENDBRANCH  59  61
ENDBRANCH   8  57
TORSDOF 18
ENDMDL