MODEL 1
REMARK VINA RESULT: -5.819922226      0.000      0.000
REMARK  17 active torsions:
REMARK  status: ('A' for Active; 'I' for Inactive)
REMARK    1  A    between atoms: C2_2  and  O2_4
REMARK    2  A    between atoms: O2_4  and  C3_5
REMARK    3  A    between atoms: C4_6  and  O3_7
REMARK    4  A    between atoms: C5_12  and  O4_13
REMARK    5  A    between atoms: O4_13  and  C6_14
REMARK    6  A    between atoms: C7_15  and  O5_16
REMARK    7  A    between atoms: C8_18  and  O6_19
REMARK    8  A    between atoms: C9_21  and  N2_22
REMARK    9  A    between atoms: C10_26  and  N3_27
REMARK   10  A    between atoms: C14_38  and  O9_39
REMARK   11  A    between atoms: C15_41  and  O10_42
REMARK   12  A    between atoms: C16_44  and  N6_45
REMARK   13  A    between atoms: C17_52  and  C18_53
REMARK   14  A    between atoms: C18_53  and  C19_54
REMARK   15  A    between atoms: C18_53  and  S2_61
REMARK   16  A    between atoms: C19_54  and  S1_55
REMARK   17  A    between atoms: S1_55  and  C20_56
ROOT
HETATM    1  C3  UNL     1      33.604   2.758   5.082  1.00  0.00     0.215 C
HETATM    2  C4  UNL     1      33.910   3.419   3.771  1.00  0.00     0.353 C
HETATM    3  N1  UNL     1      32.805   4.109   3.170  1.00  0.00    -0.018 N
ATOM      4  H11 UNL     1      33.032   4.391   2.217  1.00  0.00     0.283 HD
ATOM      5  H12 UNL     1      32.681   5.028   3.595  1.00  0.00     0.283 HD
HETATM    6  C5  UNL     1      31.565   3.360   3.200  1.00  0.00     0.355 C
HETATM    7  C15 UNL     1      31.911   1.919   3.549  1.00  0.00     0.202 C
HETATM    8  C16 UNL     1      32.384   1.935   4.970  1.00  0.00     0.178 C
ENDROOT
BRANCH   6   9
HETATM    9  O4  UNL     1      30.812   3.515   2.072  1.00  0.00    -0.346 OA
BRANCH   9  10
HETATM   10  C6  UNL     1      29.593   4.166   2.292  1.00  0.00     0.186 C
HETATM   11  C7  UNL     1      29.345   4.605   3.677  1.00  0.00     0.180 C
HETATM   12  C8  UNL     1      28.460   3.744   4.522  1.00  0.00     0.182 C
HETATM   13  C9  UNL     1      27.214   3.417   3.729  1.00  0.00     0.239 C
HETATM   14  C10 UNL     1      27.718   2.502   2.604  1.00  0.00     0.147 C
HETATM   15  C14 UNL     1      28.462   3.394   1.652  1.00  0.00     0.174 C
BRANCH  11  16
HETATM   16  O5  UNL     1      28.790   5.907   3.682  1.00  0.00    -0.390 OA
ATOM     17  H5  UNL     1      29.476   6.553   3.802  1.00  0.00     0.210 HD
ENDBRANCH  11  16
BRANCH  12  18
HETATM   18  O6  UNL     1      28.126   4.471   5.665  1.00  0.00    -0.391 OA
ATOM     19  H6  UNL     1      28.259   3.906   6.417  1.00  0.00     0.210 HD
ENDBRANCH  12  18
BRANCH  13  20
HETATM   20  N2  UNL     1      26.171   2.827   4.503  1.00  0.00    -0.070 N
ATOM     21  H23 UNL     1      26.536   2.067   5.077  1.00  0.00     0.274 HD
ATOM     22  H22 UNL     1      25.866   3.466   5.238  1.00  0.00     0.274 HD
ATOM     23  H21 UNL     1      25.375   2.509   3.952  1.00  0.00     0.274 HD
ENDBRANCH  13  20
BRANCH  14  24
HETATM   24  N3  UNL     1      26.574   1.967   1.943  1.00  0.00    -0.362 N
HETATM   25  C11 UNL     1      26.451   0.821   1.414  1.00  0.00     0.175 A
HETATM   26  N4  UNL     1      25.244   0.395   0.775  1.00  0.00    -0.290 N
HETATM   27  C13 UNL     1      27.380  -0.275   1.310  1.00  0.00     0.293 A
HETATM   28  C12 UNL     1      25.413  -0.927   0.283  1.00  0.00     0.328 A
ATOM     29  H4  UNL     1      24.395   0.953   0.685  1.00  0.00     0.172 HD
HETATM   30  O7  UNL     1      24.577  -1.642  -0.337  1.00  0.00    -0.247 OA
HETATM   31  N5  UNL     1      26.724  -1.319   0.620  1.00  0.00    -0.272 N
ATOM     32  H5  UNL     1      27.138  -2.224   0.398  1.00  0.00     0.174 HD
HETATM   33  O8  UNL     1      28.548  -0.333   1.731  1.00  0.00    -0.264 OA
ATOM     34  H3  UNL     1      25.759   2.578   1.889  1.00  0.00     0.161 HD
ENDBRANCH  14  24
BRANCH  15  35
HETATM   35  O9  UNL     1      27.527   4.253   1.077  1.00  0.00    -0.391 OA
ATOM     36  H9  UNL     1      27.200   4.879   1.712  1.00  0.00     0.210 HD
ENDBRANCH  15  35
ENDBRANCH   9  10
ENDBRANCH   6   9
BRANCH   7  37
HETATM   37  O10 UNL     1      30.771   1.119   3.393  1.00  0.00    -0.389 OA
ATOM     38  H10 UNL     1      31.025   0.204   3.405  1.00  0.00     0.210 HD
ENDBRANCH   7  37
BRANCH   2  39
HETATM   39  O3  UNL     1      34.912   4.414   3.944  1.00  0.00    -0.368 OA
ATOM     40  H3  UNL     1      35.642   4.250   3.359  1.00  0.00     0.212 HD
ENDBRANCH   2  39
BRANCH   8  41
HETATM   41  N6  UNL     1      32.393   0.659   5.622  1.00  0.00    -0.252 N
HETATM   42  N7  UNL     1      31.587   0.312   6.642  1.00  0.00    -0.224 N
HETATM   43  N8  UNL     1      31.810  -0.905   7.037  1.00  0.00    -0.227 N
ATOM     44  H7  UNL     1      30.888   0.928   7.054  1.00  0.00     0.210 HD
HETATM   45  N9  UNL     1      32.768  -1.376   6.281  1.00  0.00    -0.271 N
ATOM     46  H8  UNL     1      31.331  -1.399   7.790  1.00  0.00     0.210 HD
HETATM   47  C17 UNL     1      33.144  -0.426   5.399  1.00  0.00     0.138 A
ATOM     48  H9  UNL     1      33.168  -2.313   6.347  1.00  0.00     0.190 HD
BRANCH  47  49
HETATM   49  C18 UNL     1      34.204  -0.552   4.362  1.00  0.00     0.210 C
BRANCH  49  50
HETATM   50  C19 UNL     1      34.212  -2.048   3.993  1.00  0.00     0.113 C
BRANCH  50  51
HETATM   51  S1  UNL     1      33.215  -2.234   2.518  1.00  0.00    -0.096 SA
BRANCH  51  52
HETATM   52  C20 UNL     1      31.541  -2.660   2.828  1.00  0.00     0.147 C
HETATM   53  N10 UNL     1      30.652  -1.752   2.965  1.00  0.00    -0.382 N
ATOM     54 2H10 UNL     1      30.919  -0.771   2.894  1.00  0.00     0.157 HD
ATOM     55 1H10 UNL     1      29.679  -2.000   3.145  1.00  0.00     0.157 HD
HETATM   56  N11 UNL     1      31.173  -4.011   2.926  1.00  0.00    -0.075 NA
ENDBRANCH  51  52
ENDBRANCH  50  51
ENDBRANCH  49  50
BRANCH  49  57
HETATM   57  S2  UNL     1      35.821  -0.235   5.057  1.00  0.00     0.114 S
HETATM   58  O11 UNL     1      36.683  -1.453   4.966  1.00  0.00    -0.594 OA
HETATM   59  O12 UNL     1      35.678   0.218   6.506  1.00  0.00    -0.594 OA
HETATM   60  O13 UNL     1      36.592   1.019   4.261  1.00  0.00    -0.594 OA
ENDBRANCH  49  57
ENDBRANCH  47  49
ENDBRANCH   8  41
BRANCH   1  61
HETATM   61  O2  UNL     1      33.616   3.650   6.169  1.00  0.00    -0.310 OA
BRANCH  61  62
HETATM   62  C2  UNL     1      34.006   3.355   7.446  1.00  0.00     0.255 C
HETATM   63  C1  UNL     1      35.310   3.778   7.997  1.00  0.00     0.126 C
HETATM   64  O1  UNL     1      33.224   2.701   8.171  1.00  0.00    -0.266 OA
ENDBRANCH  61  62
ENDBRANCH   1  61
TORSDOF 17
ENDMDL