MODEL 3
REMARK VINA RESULT: -6.064055091      2.884      5.424
REMARK  17 active torsions:
REMARK  status: ('A' for Active; 'I' for Inactive)
REMARK    1  A    between atoms: N1_1  and  N2_4
REMARK    2  A    between atoms: C2_7  and  N3_8
REMARK    3  A    between atoms: C5_14  and  N5_15
REMARK    4  A    between atoms: N5_15  and  N6_17
REMARK    5  A    between atoms: N6_17  and  C6_19
REMARK    6  A    between atoms: N9_27  and  C10_28
REMARK    7  A    between atoms: C11_30  and  C12_31
REMARK    8  A    between atoms: C12_31  and  O4_32
REMARK    9  A    between atoms: C13_34  and  O5_35
REMARK   10  A    between atoms: C14_37  and  O6_38
REMARK   11  A    between atoms: N10_42  and  C16_43
REMARK   12  A    between atoms: C17_45  and  C18_46
REMARK   13  A    between atoms: C18_46  and  O9_47
REMARK   14  A    between atoms: C19_49  and  O10_50
REMARK   15  A    between atoms: C20_52  and  O11_53
REMARK   16  A    between atoms: C23_62  and  C24_63
REMARK   17  A    between atoms: C24_63  and  O13_64
ROOT
HETATM    1  C6  UNL     1      27.464   3.915   4.785  1.00  0.00     0.152 A
HETATM    2  N7  UNL     1      26.688   3.974   5.873  1.00  0.00    -0.336 N
ATOM      3  H7  UNL     1      27.118   4.183   6.775  1.00  0.00     0.168 HD
HETATM    4  C7  UNL     1      25.364   3.768   5.817  1.00  0.00     0.183 A
HETATM    5  N8  UNL     1      24.760   3.493   4.658  1.00  0.00    -0.336 N
ATOM      6  H8  UNL     1      23.752   3.340   4.629  1.00  0.00     0.168 HD
HETATM    7  C8  UNL     1      25.484   3.420   3.536  1.00  0.00     0.146 A
HETATM    8  C9  UNL     1      26.874   3.633   3.573  1.00  0.00     0.131 A
HETATM    9  N9  UNL     1      27.345   3.503   2.326  1.00  0.00    -0.262 N
HETATM   10  C15 UNL     1      26.281   3.219   1.540  1.00  0.00     0.335 A
HETATM   11  O7  UNL     1      26.379   3.036   0.305  1.00  0.00    -0.246 OA
HETATM   12  N10 UNL     1      25.164   3.169   2.267  1.00  0.00    -0.252 N
ENDROOT
BRANCH   1  13
HETATM   13  N6  UNL     1      28.719   4.114   4.860  1.00  0.00    -0.282 N
ATOM     14  H6  UNL     1      29.044   5.064   5.038  1.00  0.00     0.188 HD
BRANCH  13  15
HETATM   15  N5  UNL     1      29.673   3.115   4.716  1.00  0.00    -0.282 N
ATOM     16  H5  UNL     1      29.454   2.335   4.096  1.00  0.00     0.188 HD
BRANCH  15  17
HETATM   17  C5  UNL     1      30.798   3.108   5.303  1.00  0.00     0.152 A
HETATM   18  C4  UNL     1      31.757   4.052   4.948  1.00  0.00     0.127 A
HETATM   19  N4  UNL     1      31.737   5.051   4.039  1.00  0.00    -0.302 N
HETATM   20  C22 UNL     1      32.997   4.099   5.545  1.00  0.00     0.146 A
HETATM   21  C3  UNL     1      32.910   5.669   4.089  1.00  0.00     0.331 A
ATOM     22  H4  UNL     1      30.959   5.288   3.424  1.00  0.00     0.171 HD
HETATM   23  N3  UNL     1      33.723   5.111   5.009  1.00  0.00    -0.246 N
HETATM   24  O2  UNL     1      33.235   6.653   3.370  1.00  0.00    -0.246 OA
HETATM   25  N12 UNL     1      33.260   3.197   6.493  1.00  0.00    -0.336 N
HETATM   26  C21 UNL     1      32.345   2.280   6.846  1.00  0.00     0.183 A
ATOM     27  H12 UNL     1      34.170   3.205   6.956  1.00  0.00     0.168 HD
HETATM   28  N11 UNL     1      31.139   2.241   6.259  1.00  0.00    -0.336 N
ATOM     29  H11 UNL     1      30.467   1.531   6.550  1.00  0.00     0.168 HD
BRANCH  23  30
HETATM   30  C2  UNL     1      35.090   5.510   5.355  1.00  0.00     0.331 C
HETATM   31  C1  UNL     1      36.100   4.758   4.606  1.00  0.00     0.289 C
HETATM   32  N2  UNL     1      36.956   4.148   5.550  1.00  0.00    -0.232 N
HETATM   33  O1  UNL     1      36.194   4.669   3.369  1.00  0.00    -0.267 OA
HETATM   34  C23 UNL     1      36.434   4.504   6.854  1.00  0.00     0.273 C
HETATM   35  O12 UNL     1      35.279   5.213   6.680  1.00  0.00    -0.329 OA
BRANCH  32  36
HETATM   36  N1  UNL     1      38.082   3.359   5.370  1.00  0.00    -0.338 N
ATOM     37  H12 UNL     1      38.307   2.899   4.488  1.00  0.00     0.177 HD
ATOM     38  H11 UNL     1      38.828   3.109   6.019  1.00  0.00     0.177 HD
ENDBRANCH  32  36
BRANCH  34  39
HETATM   39  C24 UNL     1      37.421   5.336   7.645  1.00  0.00     0.219 C
BRANCH  39  40
HETATM   40  O13 UNL     1      37.065   5.274   8.991  1.00  0.00    -0.397 OA
ATOM     41  H13 UNL     1      37.862   5.255   9.509  1.00  0.00     0.209 HD
ENDBRANCH  39  40
ENDBRANCH  34  39
ENDBRANCH  23  30
ENDBRANCH  15  17
ENDBRANCH  13  15
ENDBRANCH   1  13
BRANCH   9  42
HETATM   42  C10 UNL     1      28.712   3.635   1.882  1.00  0.00     0.265 C
HETATM   43  O3  UNL     1      28.957   2.691   0.885  1.00  0.00    -0.353 OA
HETATM   44  C11 UNL     1      29.604   3.276  -0.161  1.00  0.00     0.179 C
HETATM   45  C13 UNL     1      30.076   4.630   0.254  1.00  0.00     0.182 C
HETATM   46  C14 UNL     1      29.013   4.987   1.304  1.00  0.00     0.198 C
BRANCH  44  47
HETATM   47  C12 UNL     1      30.724   2.384  -0.652  1.00  0.00     0.198 C
BRANCH  47  48
HETATM   48  O4  UNL     1      31.414   1.764   0.355  1.00  0.00    -0.398 OA
ATOM     49  H4  UNL     1      30.934   1.718   1.173  1.00  0.00     0.209 HD
ENDBRANCH  47  48
ENDBRANCH  44  47
BRANCH  45  50
HETATM   50  O5  UNL     1      31.305   4.616   0.904  1.00  0.00    -0.390 OA
ATOM     51  H5  UNL     1      32.031   4.372   0.341  1.00  0.00     0.210 HD
ENDBRANCH  45  50
BRANCH  46  52
HETATM   52  O6  UNL     1      27.915   5.585   0.716  1.00  0.00    -0.388 OA
ATOM     53  H6  UNL     1      27.595   6.337   1.200  1.00  0.00     0.210 HD
ENDBRANCH  46  52
ENDBRANCH   9  42
BRANCH  12  54
HETATM   54  C16 UNL     1      23.847   2.887   1.720  1.00  0.00     0.266 C
HETATM   55  O8  UNL     1      22.823   3.345   2.556  1.00  0.00    -0.353 OA
HETATM   56  C17 UNL     1      21.696   2.790   1.994  1.00  0.00     0.179 C
HETATM   57  C19 UNL     1      22.023   1.382   1.629  1.00  0.00     0.182 C
HETATM   58  C20 UNL     1      23.556   1.397   1.684  1.00  0.00     0.198 C
BRANCH  56  59
HETATM   59  C18 UNL     1      20.483   2.905   2.887  1.00  0.00     0.198 C
BRANCH  59  60
HETATM   60  O9  UNL     1      20.782   2.774   4.219  1.00  0.00    -0.398 OA
ATOM     61  H9  UNL     1      20.021   2.860   4.781  1.00  0.00     0.209 HD
ENDBRANCH  59  60
ENDBRANCH  56  59
BRANCH  57  62
HETATM   62  O10 UNL     1      21.595   0.437   2.529  1.00  0.00    -0.390 OA
ATOM     63  H10 UNL     1      22.085   0.408   3.342  1.00  0.00     0.210 HD
ENDBRANCH  57  62
BRANCH  58  64
HETATM   64  O11 UNL     1      24.014   0.858   2.883  1.00  0.00    -0.388 OA
ATOM     65  H11 UNL     1      23.318   0.314   3.231  1.00  0.00     0.210 HD
ENDBRANCH  58  64
ENDBRANCH  12  54
TORSDOF 17
ENDMDL