MODEL 1
REMARK VINA RESULT: -6.467399998      0.000      0.000
REMARK  19 active torsions:
REMARK  status: ('A' for Active; 'I' for Inactive)
REMARK    1  A    between atoms: C2_2  and  O1_3
REMARK    2  A    between atoms: C4_7  and  C5_8
REMARK    3  A    between atoms: C4_7  and  C6_11
REMARK    4  A    between atoms: C5_8  and  O3_9
REMARK    5  A    between atoms: C9_17  and  C10_18
REMARK    6  A    between atoms: C10_18  and  O7_19
REMARK    7  A    between atoms: C10_18  and  C11_21
REMARK    8  A    between atoms: C11_21  and  C12_22
REMARK    9  A    between atoms: C11_21  and  C13_25
REMARK   10  A    between atoms: C12_22  and  O8_23
REMARK   11  A    between atoms: C14_27  and  N1_28
REMARK   12  A    between atoms: C18_36  and  C19_37
REMARK   13  A    between atoms: C19_37  and  O12_38
REMARK   14  A    between atoms: C19_37  and  O13_40
REMARK   15  A    between atoms: C21_45  and  O14_46
REMARK   16  A    between atoms: C22_48  and  O15_49
REMARK   17  A    between atoms: C23_51  and  O16_52
REMARK   18  A    between atoms: C24_54  and  O17_55
REMARK   19  A    between atoms: C25_57  and  O18_58
ROOT
HETATM    1  C11 UNL     1      35.728   8.660   2.693  1.00  0.00     0.072 C
ENDROOT
BRANCH   1   2
HETATM    2  C10 UNL     1      34.945   7.430   2.478  1.00  0.00     0.158 C
BRANCH   2   3
HETATM    3  C9  UNL     1      35.314   6.217   3.275  1.00  0.00     0.182 C
HETATM    4  O6  UNL     1      35.070   6.572   4.641  1.00  0.00    -0.380 OA
HETATM    5  C8  UNL     1      35.700   5.673   5.505  1.00  0.00     0.178 C
HETATM    6  C7  UNL     1      35.230   4.283   5.255  1.00  0.00     0.083 C
HETATM    7  C4  UNL     1      34.981   3.456   6.490  1.00  0.00     0.142 C
HETATM    8  C25 UNL     1      34.040   4.359   4.339  1.00  0.00     0.157 C
HETATM    9  C3  UNL     1      34.746   2.060   6.008  1.00  0.00     0.190 C
HETATM   10  C2  UNL     1      34.035   1.804   4.727  1.00  0.00     0.179 C
HETATM   11  O2  UNL     1      35.124   1.093   6.642  1.00  0.00    -0.293 OA
HETATM   12  C1  UNL     1      32.925   0.780   4.941  1.00  0.00     0.063 C
HETATM   13  C26 UNL     1      33.484   3.022   4.109  1.00  0.00     0.205 C
HETATM   14  O19 UNL     1      32.502   2.958   3.351  1.00  0.00    -0.291 OA
HETATM   15  C24 UNL     1      34.613   4.951   3.024  1.00  0.00     0.192 C
BRANCH   7  16
HETATM   16  C5  UNL     1      33.850   3.952   7.317  1.00  0.00     0.193 C
BRANCH  16  17
HETATM   17  O3  UNL     1      33.503   2.996   8.262  1.00  0.00    -0.399 OA
ATOM     18  H3  UNL     1      33.299   3.419   9.088  1.00  0.00     0.209 HD
ENDBRANCH  16  17
ENDBRANCH   7  16
BRANCH   7  19
HETATM   19  C6  UNL     1      36.227   3.501   7.291  1.00  0.00     0.192 C
HETATM   20  O4  UNL     1      37.360   3.155   6.873  1.00  0.00    -0.647 OA
HETATM   21  O5  UNL     1      36.134   3.959   8.596  1.00  0.00    -0.647 OA
ENDBRANCH   7  19
BRANCH  10  22
HETATM   22  O1  UNL     1      34.976   1.175   3.882  1.00  0.00    -0.374 OA
ATOM     23  H1  UNL     1      34.824   1.535   3.016  1.00  0.00     0.211 HD
ENDBRANCH  10  22
BRANCH   8  24
HETATM   24  O18 UNL     1      33.085   5.283   4.753  1.00  0.00    -0.379 OA
ATOM     25  H18 UNL     1      32.366   5.381   4.140  1.00  0.00     0.211 HD
ENDBRANCH   8  24
BRANCH  15  26
HETATM   26  O17 UNL     1      35.599   3.986   2.668  1.00  0.00    -0.389 OA
ATOM     27  H17 UNL     1      35.217   3.426   2.001  1.00  0.00     0.210 HD
ENDBRANCH  15  26
ENDBRANCH   2   3
BRANCH   2  28
HETATM   28  O7  UNL     1      33.624   7.741   2.941  1.00  0.00    -0.392 OA
ATOM     29  H7  UNL     1      33.546   8.672   2.770  1.00  0.00     0.210 HD
ENDBRANCH   2  28
ENDBRANCH   1   2
BRANCH   1  30
HETATM   30  C12 UNL     1      37.146   8.559   3.103  1.00  0.00     0.174 C
BRANCH  30  31
HETATM   31  O8  UNL     1      37.369   8.664   4.475  1.00  0.00    -0.400 OA
ATOM     32  H8  UNL     1      38.253   8.453   4.754  1.00  0.00     0.209 HD
ENDBRANCH  30  31
ENDBRANCH   1  30
BRANCH   1  33
HETATM   33  C13 UNL     1      35.587   9.677   1.578  1.00  0.00     0.164 C
HETATM   34  O9  UNL     1      34.717  10.715   1.992  1.00  0.00    -0.355 OA
HETATM   35  C14 UNL     1      34.790  11.826   1.195  1.00  0.00     0.262 C
HETATM   36  C21 UNL     1      34.820  11.515  -0.270  1.00  0.00     0.198 C
HETATM   37  C22 UNL     1      34.365  10.099  -0.563  1.00  0.00     0.182 C
HETATM   38  C23 UNL     1      35.221   9.115   0.251  1.00  0.00     0.179 C
BRANCH  35  39
HETATM   39  N1  UNL     1      35.867  12.739   1.549  1.00  0.00    -0.297 N
HETATM   40  C15 UNL     1      36.495  13.638   0.793  1.00  0.00     0.188 A
HETATM   41  N2  UNL     1      37.413  14.237   1.565  1.00  0.00    -0.344 N
HETATM   42  C16 UNL     1      37.381  13.736   2.797  1.00  0.00     0.154 A
ATOM     43  H2  UNL     1      38.046  14.973   1.252  1.00  0.00     0.167 HD
HETATM   44  C17 UNL     1      38.080  13.965   3.978  1.00  0.00     0.320 A
HETATM   45  C20 UNL     1      36.387  12.778   2.774  1.00  0.00     0.146 A
HETATM   46  O10 UNL     1      38.973  14.851   3.934  1.00  0.00    -0.257 OA
HETATM   47  O11 UNL     1      37.780  13.271   5.029  1.00  0.00    -0.255 OA
HETATM   48  C18 UNL     1      36.847  12.351   5.062  1.00  0.00     0.184 A
HETATM   49  N3  UNL     1      36.151  12.104   3.938  1.00  0.00    -0.320 N
ATOM     50  H3  UNL     1      35.423  11.390   3.955  1.00  0.00     0.169 HD
BRANCH  48  51
HETATM   51  C19 UNL     1      36.565  11.594   6.329  1.00  0.00     0.331 C
BRANCH  51  52
HETATM   52  O12 UNL     1      36.538  12.420   7.431  1.00  0.00    -0.364 OA
ATOM     53  H12 UNL     1      37.347  12.381   7.927  1.00  0.00     0.213 HD
ENDBRANCH  51  52
BRANCH  51  54
HETATM   54  O13 UNL     1      37.544  10.632   6.480  1.00  0.00    -0.364 OA
ATOM     55  H13 UNL     1      38.386  11.036   6.305  1.00  0.00     0.213 HD
ENDBRANCH  51  54
ENDBRANCH  48  51
ENDBRANCH  35  39
BRANCH  36  56
HETATM   56  O14 UNL     1      36.141  11.638  -0.753  1.00  0.00    -0.388 OA
ATOM     57  H14 UNL     1      36.143  12.163  -1.544  1.00  0.00     0.210 HD
ENDBRANCH  36  56
BRANCH  37  58
HETATM   58  O15 UNL     1      33.025   9.957  -0.319  1.00  0.00    -0.390 OA
ATOM     59  H15 UNL     1      32.858   9.189   0.214  1.00  0.00     0.210 HD
ENDBRANCH  37  58
BRANCH  38  60
HETATM   60  O16 UNL     1      36.381   8.950  -0.548  1.00  0.00    -0.390 OA
ATOM     61  H16 UNL     1      36.464   8.044  -0.824  1.00  0.00     0.210 HD
ENDBRANCH  38  60
ENDBRANCH   1  33
TORSDOF 19
ENDMDL