MODEL 4
REMARK VINA RESULT: -6.342562684      1.750      2.178
REMARK  17 active torsions:
REMARK  status: ('A' for Active; 'I' for Inactive)
REMARK    1  A    between atoms: N1_1  and  C1_4
REMARK    2  A    between atoms: N4_13  and  C5_14
REMARK    3  A    between atoms: C6_16  and  C7_17
REMARK    4  A    between atoms: C7_17  and  N5_18
REMARK    5  A    between atoms: C7_17  and  C8_22
REMARK    6  A    between atoms: C8_22  and  O4_24
REMARK    7  A    between atoms: O4_24  and  C9_25
REMARK    8  A    between atoms: C9_25  and  C10_26
REMARK    9  A    between atoms: C12_29  and  O6_30
REMARK   10  A    between atoms: C19_41  and  O10_42
REMARK   11  A    between atoms: O10_42  and  C20_43
REMARK   12  A    between atoms: C20_43  and  O11_44
REMARK   13  A    between atoms: C21_46  and  O12_47
REMARK   14  A    between atoms: C22_49  and  O13_50
REMARK   15  A    between atoms: C23_52  and  O14_53
REMARK   16  A    between atoms: C24_55  and  O15_56
REMARK   17  A    between atoms: C25_58  and  O16_59
ROOT
HETATM    1  C8  UNL     1      30.140   4.657   0.136  1.00  0.00     0.292 C
HETATM    2  O3  UNL     1      30.123   5.174  -0.996  1.00  0.00    -0.263 OA
ENDROOT
BRANCH   1   3
HETATM    3  C7  UNL     1      29.038   4.965   1.082  1.00  0.00     0.313 C
BRANCH   3   4
HETATM    4  C6  UNL     1      28.667   3.778   1.949  1.00  0.00     0.196 C
HETATM    5  O2  UNL     1      27.326   3.459   1.733  1.00  0.00    -0.353 OA
HETATM    6  C5  UNL     1      27.082   2.543   2.738  1.00  0.00     0.262 C
HETATM    7  C25 UNL     1      27.715   3.101   3.994  1.00  0.00     0.198 C
HETATM    8  C24 UNL     1      28.675   4.140   3.416  1.00  0.00     0.182 C
BRANCH   6   9
HETATM    9  N4  UNL     1      25.664   2.326   2.875  1.00  0.00    -0.297 N
HETATM   10  C4  UNL     1      24.693   3.208   2.632  1.00  0.00     0.188 A
HETATM   11  N3  UNL     1      23.500   2.630   2.876  1.00  0.00    -0.345 N
HETATM   12  C3  UNL     1      23.698   1.364   3.280  1.00  0.00     0.147 A
ATOM     13  H3  UNL     1      22.591   3.082   2.771  1.00  0.00     0.167 HD
HETATM   14  C2  UNL     1      22.836   0.341   3.655  1.00  0.00     0.290 A
HETATM   15  C26 UNL     1      25.066   1.189   3.274  1.00  0.00     0.159 A
HETATM   16  N2  UNL     1      23.420  -0.820   4.008  1.00  0.00    -0.154 N
HETATM   17  O1  UNL     1      21.588   0.495   3.664  1.00  0.00    -0.265 OA
HETATM   18  C1  UNL     1      24.747  -1.003   4.005  1.00  0.00     0.680 A
ATOM     19  H2  UNL     1      22.823  -1.597   4.290  1.00  0.00     0.187 HD
HETATM   20  N6  UNL     1      25.571   0.008   3.637  1.00  0.00    -0.174 N
ATOM     21  H6  UNL     1      26.581  -0.135   3.637  1.00  0.00     0.186 HD
BRANCH  18  22
HETATM   22  N1  UNL     1      25.295  -2.115   4.343  1.00  0.00    -0.234 N
ATOM     23  H12 UNL     1      24.673  -2.881   4.603  1.00  0.00     0.174 HD
ATOM     24  H11 UNL     1      26.306  -2.248   4.358  1.00  0.00     0.174 HD
ENDBRANCH  18  22
ENDBRANCH   6   9
BRANCH   7  25
HETATM   25  O16 UNL     1      26.788   3.695   4.830  1.00  0.00    -0.388 OA
ATOM     26  H16 UNL     1      25.899   3.602   4.509  1.00  0.00     0.210 HD
ENDBRANCH   7  25
BRANCH   8  27
HETATM   27  O15 UNL     1      28.119   5.385   3.658  1.00  0.00    -0.390 OA
ATOM     28  H15 UNL     1      27.285   5.330   4.110  1.00  0.00     0.210 HD
ENDBRANCH   8  27
ENDBRANCH   3   4
BRANCH   3  29
HETATM   29  N5  UNL     1      27.873   5.483   0.382  1.00  0.00    -0.063 N
ATOM     30  H53 UNL     1      27.280   6.040   0.998  1.00  0.00     0.275 HD
ATOM     31  H52 UNL     1      28.128   6.211  -0.286  1.00  0.00     0.275 HD
ATOM     32  H51 UNL     1      27.350   4.730  -0.064  1.00  0.00     0.275 HD
ENDBRANCH   3  29
ENDBRANCH   1   3
BRANCH   1  33
HETATM   33  O4  UNL     1      31.189   3.816   0.465  1.00  0.00    -0.317 OA
BRANCH  33  34
HETATM   34  C9  UNL     1      32.087   4.145   1.552  1.00  0.00     0.212 C
BRANCH  34  35
HETATM   35  C10 UNL     1      32.246   2.919   2.349  1.00  0.00     0.167 C
HETATM   36  O5  UNL     1      32.926   1.923   1.650  1.00  0.00    -0.379 OA
HETATM   37  C11 UNL     1      33.417   1.023   2.590  1.00  0.00     0.210 C
HETATM   38  C12 UNL     1      32.958   1.477   3.955  1.00  0.00     0.128 C
HETATM   39  C13 UNL     1      34.011   1.381   5.018  1.00  0.00     0.209 C
HETATM   40  C18 UNL     1      32.818   2.982   3.705  1.00  0.00     0.113 C
HETATM   41  O7  UNL     1      33.421   0.788   6.144  1.00  0.00    -0.309 OA
HETATM   42  C21 UNL     1      34.616   2.698   5.209  1.00  0.00     0.143 C
HETATM   43  C14 UNL     1      32.436   1.321   6.950  1.00  0.00     0.266 C
HETATM   44  O8  UNL     1      31.816   0.462   7.628  1.00  0.00    -0.265 OA
HETATM   45  C15 UNL     1      32.085   2.755   7.059  1.00  0.00     0.124 C
HETATM   46  C16 UNL     1      31.222   3.247   5.952  1.00  0.00     0.097 C
HETATM   47  C23 UNL     1      33.335   3.521   7.298  1.00  0.00     0.164 C
HETATM   48  C17 UNL     1      31.939   3.606   4.718  1.00  0.00     0.145 C
HETATM   49  O9  UNL     1      31.754   4.777   4.447  1.00  0.00    -0.297 OA
HETATM   50  C22 UNL     1      34.458   3.497   6.404  1.00  0.00     0.187 C
HETATM   51  C19 UNL     1      34.195   3.443   3.908  1.00  0.00     0.185 C
BRANCH  38  52
HETATM   52  O6  UNL     1      31.776   0.864   4.250  1.00  0.00    -0.383 OA
ATOM     53  H6  UNL     1      31.753   0.673   5.180  1.00  0.00     0.210 HD
ENDBRANCH  38  52
BRANCH  47  54
HETATM   54  O14 UNL     1      33.734   3.131   8.608  1.00  0.00    -0.392 OA
ATOM     55  H14 UNL     1      34.600   2.762   8.486  1.00  0.00     0.210 HD
ENDBRANCH  47  54
BRANCH  50  56
HETATM   56  O13 UNL     1      34.751   4.847   6.025  1.00  0.00    -0.390 OA
ATOM     57  H13 UNL     1      35.177   5.246   6.774  1.00  0.00     0.210 HD
ENDBRANCH  50  56
BRANCH  42  58
HETATM   58  O12 UNL     1      36.016   2.511   4.987  1.00  0.00    -0.382 OA
ATOM     59  H12 UNL     1      36.320   3.320   4.593  1.00  0.00     0.211 HD
ENDBRANCH  42  58
BRANCH  51  60
HETATM   60  O10 UNL     1      35.107   3.204   2.909  1.00  0.00    -0.357 OA
BRANCH  60  61
HETATM   61  C20 UNL     1      35.641   4.392   2.415  1.00  0.00     0.335 C
BRANCH  61  62
HETATM   62  O11 UNL     1      36.107   5.214   3.432  1.00  0.00    -0.377 OA
ATOM     63  H11 UNL     1      36.868   5.715   3.164  1.00  0.00     0.212 HD
ENDBRANCH  61  62
ENDBRANCH  60  61
ENDBRANCH  51  60
ENDBRANCH  34  35
ENDBRANCH  33  34
ENDBRANCH   1  33
TORSDOF 17
ENDMDL