MODEL 5
REMARK VINA RESULT: -7.958627600      1.705      2.690
REMARK  1 active torsions:
REMARK  status: ('A' for Active; 'I' for Inactive)
REMARK    1  A    between atoms: C9_9  and  C10_10
REMARK       I    between atoms: C10_10  and  N1_12
ROOT
HETATM    1  C1  UNL     1       5.178  65.380  65.118  1.00  0.00     0.014 C
HETATM    2  C2  UNL     1       5.050  66.689  64.960  1.00  0.00    -0.084 C
HETATM    3  C3  UNL     1       6.117  67.614  64.417  1.00  0.00     0.039 C
HETATM    4  C4  UNL     1       5.259  68.435  63.444  1.00  0.00    -0.005 C
HETATM    5  C5  UNL     1       5.024  67.594  62.247  1.00  0.00     0.005 C
HETATM    6  C6  UNL     1       3.811  67.957  61.453  1.00  0.00     0.001 C
HETATM    7  C7  UNL     1       2.623  68.375  62.230  1.00  0.00     0.006 C
HETATM    8  C8  UNL     1       2.795  68.919  63.569  1.00  0.00     0.004 C
HETATM    9  C9  UNL     1       1.799  68.285  64.557  1.00  0.00     0.083 C
HETATM   10  C12 UNL     1       2.582  66.999  64.866  1.00  0.00     0.023 C
HETATM   11  C13 UNL     1       3.901  67.573  65.251  1.00  0.00     0.019 C
HETATM   12  C14 UNL     1       4.067  68.729  64.275  1.00  0.00     0.003 C
ENDROOT
BRANCH   9  13
HETATM   13  C10 UNL     1       0.510  68.002  63.938  1.00  0.00     0.228 C
HETATM   14  O1  UNL     1       0.421  67.306  62.893  1.00  0.00    -0.273 OA
HETATM   15  N1  UNL     1      -0.668  68.507  64.505  1.00  0.00    -0.303 N
HETATM   16  C11 UNL     1      -1.270  67.877  65.472  1.00  0.00     0.203 C
ATOM     17  H1  UNL     1      -1.059  69.382  64.156  1.00  0.00     0.171 HD
HETATM   18  N2  UNL     1      -0.746  66.646  65.984  1.00  0.00    -0.066 NA
HETATM   19  N3  UNL     1      -2.456  68.404  66.030  1.00  0.00    -0.066 NA
ENDBRANCH   9  13
TORSDOF 1
ENDMDL