MODEL 2
REMARK VINA RESULT: -9.783195665      0.663      2.209
REMARK  1 active torsions:
REMARK  status: ('A' for Active; 'I' for Inactive)
REMARK       I    between atoms: N3_4  and  C2_6
REMARK    1  A    between atoms: C2_6  and  C3_8
ROOT
HETATM    1  C3  UNL     1       2.389  67.449  64.553  1.00  0.00     0.046 C
HETATM    2  C4  UNL     1       2.857  66.033  64.303  1.00  0.00     0.024 C
HETATM    3  C5  UNL     1       4.314  65.931  64.051  1.00  0.00    -0.013 C
HETATM    4  C6  UNL     1       4.688  66.051  62.586  1.00  0.00     0.009 C
HETATM    5  C7  UNL     1       4.385  67.393  62.012  1.00  0.00    -0.013 C
HETATM    6  C8  UNL     1       5.114  68.518  62.696  1.00  0.00     0.010 C
HETATM    7  C9  UNL     1       4.178  68.877  63.821  1.00  0.00    -0.005 C
HETATM    8  C10 UNL     1       4.542  68.196  65.108  1.00  0.00    -0.009 C
HETATM    9  C11 UNL     1       5.155  66.844  64.916  1.00  0.00     0.010 C
HETATM   10  C12 UNL     1       3.172  67.972  65.737  1.00  0.00     0.024 C
HETATM   11  C13 UNL     1       2.816  68.386  63.446  1.00  0.00     0.008 C
HETATM   12  C14 UNL     1       2.911  67.724  62.113  1.00  0.00     0.011 C
ENDROOT
BRANCH   1  13
HETATM   13  C2  UNL     1       0.965  67.517  64.850  1.00  0.00     0.233 C
HETATM   14  N3  UNL     1       0.332  66.685  65.840  1.00  0.00    -0.303 N
HETATM   15  C1  UNL     1      -0.664  67.116  66.513  1.00  0.00     0.203 C
ATOM     16  H3  UNL     1       0.682  65.741  66.006  1.00  0.00     0.171 HD
HETATM   17  N1  UNL     1      -1.270  66.284  67.478  1.00  0.00    -0.066 NA
HETATM   18  N2  UNL     1      -1.155  68.421  66.289  1.00  0.00    -0.066 NA
HETATM   19  O1  UNL     1       0.233  68.328  64.231  1.00  0.00    -0.272 OA
ENDBRANCH   1  13
TORSDOF 1
ENDMDL