MODEL 1
REMARK VINA RESULT: -7.697060424      0.000      0.000
REMARK  2 active torsions:
REMARK  status: ('A' for Active; 'I' for Inactive)
REMARK    1  A    between atoms: C3_3  and  C4_4
REMARK    2  A    between atoms: C4_4  and  N1_7
REMARK       I    between atoms: N1_7  and  C7_9
REMARK       I    between atoms: C7_9  and  N2_11
ROOT
HETATM    1  C1  UNL     1       1.242  65.733  69.562  1.00  0.00     0.112 C
HETATM    2  C2  UNL     1       0.712  66.543  68.463  1.00  0.00    -0.108 C
HETATM    3  C3  UNL     1       0.277  67.235  67.552  1.00  0.00    -0.076 C
ENDROOT
BRANCH   3   4
HETATM    4  C4  UNL     1      -0.236  68.082  66.476  1.00  0.00     0.091 C
HETATM    5  C5  UNL     1      -1.689  67.727  66.167  1.00  0.00     0.053 C
HETATM    6  C6  UNL     1      -0.238  69.513  66.992  1.00  0.00     0.053 C
BRANCH   4   7
HETATM    7  N1  UNL     1       0.597  67.979  65.318  1.00  0.00    -0.324 N
HETATM    8  C7  UNL     1       2.020  68.016  65.365  1.00  0.00     0.320 C
HETATM    9  O1  UNL     1       2.636  68.147  66.471  1.00  0.00    -0.247 OA
HETATM   10  N2  UNL     1       2.817  67.911  64.198  1.00  0.00    -0.328 N
HETATM   11  C8  UNL     1       2.031  67.766  62.992  1.00  0.00     0.158 C
HETATM   12  C12 UNL     1       4.246  67.966  64.404  1.00  0.00     0.092 C
HETATM   13  C9  UNL     1       2.835  67.754  61.737  1.00  0.00     0.292 C
HETATM   14  N3  UNL     1       4.207  67.424  61.879  1.00  0.00     0.090 N
HETATM   15  C10 UNL     1       5.061  68.540  62.188  1.00  0.00     0.274 C
HETATM   16  C14 UNL     1       4.471  66.256  62.660  1.00  0.00     0.274 C
HETATM   17  C11 UNL     1       4.856  69.058  63.590  1.00  0.00     0.055 C
HETATM   18  C13 UNL     1       4.918  66.656  64.050  1.00  0.00     0.055 C
ATOM     19  H1  UNL     1       0.148  67.874  64.409  1.00  0.00     0.166 HD
ENDBRANCH   4   7
ENDBRANCH   3   4
TORSDOF 2
ENDMDL