MODEL 2
REMARK VINA RESULT: -8.899217357      1.376      2.171
REMARK  1 active torsions:
REMARK  status: ('A' for Active; 'I' for Inactive)
REMARK    1  A    between atoms: C2_2  and  N4_10
REMARK       I    between atoms: N1_3  and  C3_5
ROOT
HETATM    1  N4  UNL     1       2.167  67.419  65.653  1.00  0.00    -0.345 N
HETATM    2  C4  UNL     1       2.664  66.080  65.789  1.00  0.00     0.165 C
HETATM    3  C5  UNL     1       3.308  65.714  64.480  1.00  0.00     0.333 C
HETATM    4  N5  UNL     1       4.326  66.623  64.050  1.00  0.00     0.025 N
HETATM    5  C6  UNL     1       5.483  66.424  64.862  1.00  0.00     0.357 C
HETATM    6  O1  UNL     1       4.658  66.181  62.787  1.00  0.00    -0.064 OA
HETATM    7  C7  UNL     1       3.864  67.969  63.949  1.00  0.00     0.214 C
HETATM    8  C8  UNL     1       4.922  68.999  63.790  1.00  0.00     0.054 C
HETATM    9  C9  UNL     1       5.472  68.769  62.429  1.00  0.00     0.003 C
HETATM   10  C10 UNL     1       4.240  68.460  61.628  1.00  0.00     0.003 C
HETATM   11  C11 UNL     1       3.148  68.105  62.615  1.00  0.00     0.054 C
HETATM   12  C12 UNL     1       2.953  68.416  65.042  1.00  0.00     0.113 C
ENDROOT
BRANCH   1  13
HETATM   13  C2  UNL     1       0.881  67.730  66.139  1.00  0.00     0.081 C
HETATM   14  C1  UNL     1       0.740  68.474  67.437  1.00  0.00     0.089 C
HETATM   15  N1  UNL     1      -0.172  67.384  65.486  1.00  0.00    -0.321 N
HETATM   16  C3  UNL     1      -1.454  67.700  65.984  1.00  0.00     0.187 C
ATOM     17  H1  UNL     1      -0.080  66.878  64.605  1.00  0.00     0.169 HD
HETATM   18  N2  UNL     1      -2.167  68.590  65.415  1.00  0.00    -0.373 N
HETATM   19  N3  UNL     1      -1.950  67.023  67.122  1.00  0.00    -0.064 NA
ATOM     20  H22 UNL     1      -1.810  69.079  64.594  1.00  0.00     0.158 HD
ATOM     21  H21 UNL     1      -3.094  68.819  65.775  1.00  0.00     0.158 HD
ENDBRANCH   1  13
TORSDOF 1
ENDMDL