MODEL 3
REMARK VINA RESULT: -7.823529248      2.096      4.405
REMARK  2 active torsions:
REMARK  status: ('A' for Active; 'I' for Inactive)
REMARK    1  A    between atoms: C3_3  and  C4_4
REMARK    2  A    between atoms: C4_4  and  O1_5
ROOT
HETATM    1  C1  UNL     1       5.969  70.230  66.057  1.00  0.00     0.012 C
HETATM    2  C2  UNL     1       6.039  69.096  65.615  1.00  0.00    -0.114 C
HETATM    3  C3  UNL     1       6.134  67.746  65.106  1.00  0.00     0.144 C
ENDROOT
BRANCH   3   4
HETATM    4  C4  UNL     1       4.768  67.127  64.859  1.00  0.00     0.131 C
HETATM    5  C5  UNL     1       4.419  67.107  63.480  1.00  0.00    -0.063 C
HETATM    6  C6  UNL     1       4.117  67.107  62.403  1.00  0.00    -0.075 C
HETATM    7  C7  UNL     1       3.704  67.128  61.063  1.00  0.00     0.064 C
HETATM    8  C8  UNL     1       3.250  68.466  60.589  1.00  0.00     0.007 C
HETATM    9  C9  UNL     1       2.039  68.960  60.634  1.00  0.00     0.006 C
HETATM   10  C10 UNL     1       0.796  68.352  61.153  1.00  0.00     0.211 A
HETATM   11  C11 UNL     1       0.154  69.301  62.181  1.00  0.00     0.070 A
HETATM   12  N1  UNL     1       0.931  67.373  62.162  1.00  0.00    -0.063 N
HETATM   13  C12 UNL     1       0.240  68.162  63.126  1.00  0.00     0.189 A
HETATM   14  C13 UNL     1       1.072  68.455  64.380  1.00  0.00     0.033 C
HETATM   15  C14 UNL     1       1.449  67.151  64.977  1.00  0.00     0.002 C
HETATM   16  C15 UNL     1       2.522  67.149  66.002  1.00  0.00     0.004 C
HETATM   17  C16 UNL     1       3.753  67.917  65.698  1.00  0.00     0.052 C
ATOM     18  H12 UNL     1       0.599  66.428  61.974  1.00  0.00     0.278 HD
ATOM     19  H11 UNL     1       1.865  67.029  62.389  1.00  0.00     0.278 HD
BRANCH   4  20
HETATM   20  O1  UNL     1       4.856  65.802  65.313  1.00  0.00    -0.377 OA
ATOM     21  H1  UNL     1       5.603  65.421  64.865  1.00  0.00     0.211 HD
ENDBRANCH   4  20
ENDBRANCH   3   4
TORSDOF 2
ENDMDL