MODEL 5
REMARK VINA RESULT: -6.696499899      1.508      1.726
REMARK  2 active torsions:
REMARK  status: ('A' for Active; 'I' for Inactive)
REMARK    1  A    between atoms: N1_2  and  C2_4
REMARK    2  A    between atoms: C2_4  and  N2_6
REMARK       I    between atoms: C3_8  and  N4_10
ROOT
HETATM    1  N2  UNL     1       1.699  67.326  66.996  1.00  0.00    -0.307 N
ATOM      2  H2  UNL     1       2.408  67.846  67.513  1.00  0.00     0.171 HD
HETATM    3  C3  UNL     1       1.966  66.829  65.856  1.00  0.00     0.192 C
HETATM    4  N3  UNL     1       0.999  66.104  65.122  1.00  0.00    -0.063 NA
HETATM    5  N4  UNL     1       3.255  66.967  65.238  1.00  0.00    -0.355 N
HETATM    6  C4  UNL     1       3.961  68.237  65.619  1.00  0.00     0.125 C
HETATM    7  C5  UNL     1       4.681  68.504  64.398  1.00  0.00     0.020 C
HETATM    8  C6  UNL     1       5.540  69.518  63.876  1.00  0.00     0.002 C
HETATM    9  C7  UNL     1       5.936  68.920  62.500  1.00  0.00     0.000 C
HETATM   10  C8  UNL     1       4.925  68.087  61.806  1.00  0.00     0.000 C
HETATM   11  C9  UNL     1       4.812  66.637  62.067  1.00  0.00     0.002 C
HETATM   12  C10 UNL     1       3.648  66.124  62.884  1.00  0.00     0.020 C
HETATM   13  C11 UNL     1       3.803  65.985  64.347  1.00  0.00     0.125 C
ENDROOT
BRANCH   1  14
HETATM   14  C2  UNL     1       0.385  67.142  67.543  1.00  0.00     0.173 C
HETATM   15  S1  UNL     1       0.127  66.139  68.792  1.00  0.00    -0.041 SA
BRANCH  14  16
HETATM   16  N1  UNL     1      -0.686  67.864  66.960  1.00  0.00    -0.371 N
HETATM   17  C1  UNL     1      -1.968  67.182  66.788  1.00  0.00     0.148 C
ATOM     18  H1  UNL     1      -0.566  68.833  66.668  1.00  0.00     0.161 HD
ENDBRANCH  14  16
ENDBRANCH   1  14
TORSDOF 2
ENDMDL