MODEL 2
REMARK VINA RESULT: -7.275420358      1.247      2.477
REMARK  3 active torsions:
REMARK  status: ('A' for Active; 'I' for Inactive)
REMARK    1  A    between atoms: C2_2  and  N1_3
REMARK       I    between atoms: N1_3  and  C3_5
REMARK    2  A    between atoms: N3_7  and  C4_9
REMARK    3  A    between atoms: C4_9  and  N4_11
ROOT
HETATM    1  C4  UNL     1       2.590  66.891  64.956  1.00  0.00     0.176 C
HETATM    2  S1  UNL     1       3.354  65.464  65.302  1.00  0.00    -0.041 SA
ENDROOT
BRANCH   1   3
HETATM    3  N3  UNL     1       1.211  66.908  64.982  1.00  0.00    -0.307 N
HETATM    4  C3  UNL     1       0.411  67.257  65.916  1.00  0.00     0.190 C
HETATM    5  N1  UNL     1      -1.005  67.176  65.665  1.00  0.00    -0.365 N
HETATM    6  N2  UNL     1       0.905  67.720  67.169  1.00  0.00    -0.063 NA
ATOM      7  H1  UNL     1      -1.343  66.879  64.749  1.00  0.00     0.162 HD
ATOM      8  H3  UNL     1       0.759  66.595  64.123  1.00  0.00     0.171 HD
BRANCH   5   9
HETATM    9  C2  UNL     1      -1.937  67.509  66.692  1.00  0.00     0.118 C
HETATM   10  C1  UNL     1      -2.336  66.286  67.517  1.00  0.00     0.026 C
ENDBRANCH   5   9
ENDBRANCH   1   3
BRANCH   1  11
HETATM   11  N4  UNL     1       3.426  67.995  64.656  1.00  0.00    -0.357 N
HETATM   12  C5  UNL     1       4.061  68.781  65.703  1.00  0.00     0.129 C
HETATM   13  C6  UNL     1       5.261  69.442  65.014  1.00  0.00    -0.000 C
HETATM   14  C7  UNL     1       6.134  70.134  66.043  1.00  0.00     0.011 C
HETATM   15  C8  UNL     1       5.991  68.335  64.307  1.00  0.00     0.011 C
HETATM   16  C9  UNL     1       5.221  68.082  63.015  1.00  0.00    -0.000 C
HETATM   17  C10 UNL     1       5.783  68.940  61.926  1.00  0.00     0.011 C
HETATM   18  C11 UNL     1       3.742  68.377  63.292  1.00  0.00     0.129 C
ENDBRANCH   1  11
TORSDOF 3
ENDMDL