MODEL 2
REMARK VINA RESULT: -6.927751347      0.112      1.037
REMARK  2 active torsions:
REMARK  status: ('A' for Active; 'I' for Inactive)
REMARK    1  A    between atoms: C2_2  and  C5_5
REMARK    2  A    between atoms: C5_5  and  N1_6
REMARK       I    between atoms: N2_9  and  C6_11
REMARK       I    between atoms: C6_11  and  N3_13
ROOT
HETATM    1  C5  UNL     1      -1.415  68.204  64.706  1.00  0.00     0.086 C
HETATM    2  N2  UNL     1      -0.107  67.996  64.602  1.00  0.00    -0.298 N
ATOM      3  H2  UNL     1       0.440  67.791  65.437  1.00  0.00     0.172 HD
HETATM    4  C6  UNL     1       0.565  68.061  63.280  1.00  0.00     0.323 C
HETATM    5  O1  UNL     1      -0.204  68.324  62.323  1.00  0.00    -0.247 OA
HETATM    6  N3  UNL     1       1.942  67.844  63.134  1.00  0.00    -0.331 N
HETATM    7  C7  UNL     1       2.827  67.534  64.226  1.00  0.00     0.155 C
HETATM    8  C8  UNL     1       4.126  66.919  63.730  1.00  0.00     0.256 C
HETATM    9  N4  UNL     1       4.734  67.647  62.659  1.00  0.00    -0.072 N
HETATM   10  C9  UNL     1       5.125  66.723  61.601  1.00  0.00     0.272 C
HETATM   11  C10 UNL     1       5.949  68.355  63.049  1.00  0.00     0.272 C
HETATM   12  C11 UNL     1       3.870  68.639  62.053  1.00  0.00     0.256 C
HETATM   13  C12 UNL     1       2.524  67.932  61.819  1.00  0.00     0.155 C
ENDROOT
BRANCH   1  14
HETATM   14  C2  UNL     1      -1.402  67.903  66.512  1.00  0.00     0.007 C
HETATM   15  C1  UNL     1      -2.776  67.510  66.760  1.00  0.00     0.022 C
HETATM   16  C3  UNL     1      -0.463  66.764  66.467  1.00  0.00     0.022 C
HETATM   17  C4  UNL     1      -0.946  69.219  66.918  1.00  0.00     0.022 C
ENDBRANCH   1  14
BRANCH   1  18
HETATM   18  N1  UNL     1      -2.624  68.395  64.803  1.00  0.00    -0.388 N
ATOM     19  H12 UNL     1      -3.628  68.554  64.884  1.00  0.00     0.157 HD
ATOM     20  H11 UNL     1      -2.412  69.389  64.890  1.00  0.00     0.157 HD
ENDBRANCH   1  18
TORSDOF 2
ENDMDL