MODEL 2
REMARK VINA RESULT: -8.151144986      1.963      2.976
REMARK  0 active torsions:
REMARK  status: ('A' for Active; 'I' for Inactive)
REMARK       I    between atoms: N1_9  and  C9_10
REMARK       I    between atoms: N3_12  and  C10_14
ROOT
HETATM    1  C1  UNL     1       4.101  68.772  63.058  1.00  0.00     0.015 C
HETATM    2  C2  UNL     1       3.897  67.588  64.013  1.00  0.00    -0.037 C
HETATM    3  C3  UNL     1       5.161  66.769  63.942  1.00  0.00     0.010 C
HETATM    4  C4  UNL     1       6.148  67.081  65.010  1.00  0.00     0.001 C
HETATM    5  C5  UNL     1       6.154  68.473  65.510  1.00  0.00     0.000 C
HETATM    6  C6  UNL     1       4.803  69.095  65.677  1.00  0.00     0.007 C
HETATM    7  C7  UNL     1       3.733  68.049  65.426  1.00  0.00     0.012 C
HETATM    8  C8  UNL     1       2.359  68.580  65.734  1.00  0.00     0.130 C
HETATM    9  N1  UNL     1       1.319  67.883  65.021  1.00  0.00    -0.355 N
HETATM   10  C9  UNL     1       0.126  67.537  65.689  1.00  0.00     0.194 C
HETATM   11  N2  UNL     1      -1.101  67.962  65.137  1.00  0.00    -0.063 NA
HETATM   12  N3  UNL     1       0.161  66.860  66.762  1.00  0.00    -0.285 N
ATOM     13  H3  UNL     1       1.071  66.575  67.124  1.00  0.00     0.172 HD
HETATM   14  C10 UNL     1      -1.000  66.479  67.486  1.00  0.00     0.335 C
HETATM   15  N4  UNL     1      -2.208  66.202  66.821  1.00  0.00    -0.040 NA
HETATM   16  O1  UNL     1      -0.913  66.393  68.757  1.00  0.00    -0.251 OA
HETATM   17  C11 UNL     1       1.470  67.523  63.614  1.00  0.00     0.126 C
HETATM   18  C12 UNL     1       2.760  66.739  63.515  1.00  0.00     0.029 C
ENDROOT
TORSDOF 0
ENDMDL