MODEL 4
REMARK VINA RESULT: -7.841164662      3.196      5.771
REMARK  2 active torsions:
REMARK  status: ('A' for Active; 'I' for Inactive)
REMARK    1  A    between atoms: N1_1  and  N2_4
REMARK       I    between atoms: C1_6  and  N4_8
REMARK    2  A    between atoms: C6_13  and  C7_14
ROOT
HETATM    1  N2  UNL     1       6.063  69.310  64.745  1.00  0.00    -0.280 N
ATOM      2  H2  UNL     1       5.965  69.027  65.720  1.00  0.00     0.189 HD
HETATM    3  C1  UNL     1       5.594  68.567  63.810  1.00  0.00     0.205 C
HETATM    4  N3  UNL     1       5.780  69.049  62.475  1.00  0.00    -0.062 NA
HETATM    5  N4  UNL     1       4.939  67.358  64.094  1.00  0.00    -0.349 N
HETATM    6  C2  UNL     1       5.074  66.514  65.262  1.00  0.00     0.131 C
HETATM    7  C3  UNL     1       4.163  65.390  64.839  1.00  0.00     0.012 C
HETATM    8  C4  UNL     1       4.577  65.244  63.365  1.00  0.00     0.032 C
HETATM    9  C5  UNL     1       3.976  66.663  63.298  1.00  0.00     0.092 C
HETATM   10  C6  UNL     1       2.966  66.111  64.276  1.00  0.00     0.019 C
ENDROOT
BRANCH  10  11
HETATM   11  C7  UNL     1       2.307  67.099  65.172  1.00  0.00    -0.003 A
HETATM   12  C8  UNL     1       1.666  68.222  64.421  1.00  0.00     0.010 A
HETATM   13  C9  UNL     1       0.285  67.724  64.788  1.00  0.00    -0.009 A
HETATM   14  C10 UNL     1      -0.542  68.664  65.599  1.00  0.00     0.010 C
HETATM   15  C15 UNL     1       0.920  66.621  65.559  1.00  0.00    -0.002 A
HETATM   16  C11 UNL     1      -0.584  68.338  67.056  1.00  0.00    -0.013 C
HETATM   17  C12 UNL     1       0.802  68.041  67.617  1.00  0.00     0.010 C
HETATM   18  C14 UNL     1      -0.870  66.842  67.260  1.00  0.00     0.010 C
HETATM   19  C13 UNL     1       0.630  66.653  67.034  1.00  0.00    -0.009 C
ENDBRANCH  10  11
BRANCH   1  20
HETATM   20  N1  UNL     1       6.705  70.499  64.429  1.00  0.00    -0.343 N
ATOM     21  H12 UNL     1       6.157  71.275  64.058  1.00  0.00     0.176 HD
ATOM     22  H11 UNL     1       7.711  70.587  64.569  1.00  0.00     0.176 HD
ENDBRANCH   1  20
TORSDOF 2
ENDMDL