MODEL 2
REMARK VINA RESULT: -8.552721985      5.079      8.161
REMARK  3 active torsions:
REMARK  status: ('A' for Active; 'I' for Inactive)
REMARK       I    between atoms: C2_5  and  N4_7
REMARK    1  A    between atoms: N4_7  and  C3_9
REMARK    2  A    between atoms: C5_11  and  C6_12
REMARK    3  A    between atoms: C7_13  and  C8_14
ROOT
HETATM    1  N1  UNL     1       1.994  62.132  69.371  1.00  0.00    -0.172 NA
HETATM    2  C1  UNL     1       1.274  62.690  70.107  1.00  0.00     0.184 C
HETATM    3  N2  UNL     1       0.411  63.335  70.993  1.00  0.00    -0.267 N
ATOM      4  H2  UNL     1      -0.170  62.775  71.616  1.00  0.00     0.180 HD
HETATM    5  C2  UNL     1       0.328  64.618  71.047  1.00  0.00     0.203 C
HETATM    6  N3  UNL     1      -0.542  65.296  71.940  1.00  0.00    -0.062 NA
HETATM    7  N4  UNL     1       1.146  65.379  70.173  1.00  0.00    -0.316 N
ATOM      8  H4  UNL     1       2.132  65.518  70.395  1.00  0.00     0.170 HD
ENDROOT
BRANCH   7   9
HETATM    9  C3  UNL     1       0.649  65.905  69.085  1.00  0.00     0.108 A
HETATM   10  C4  UNL     1       1.520  66.342  68.108  1.00  0.00     0.069 A
HETATM   11  C5  UNL     1       1.044  66.900  66.945  1.00  0.00     0.022 A
HETATM   12  C14 UNL     1      -0.332  67.005  66.797  1.00  0.00     0.038 A
HETATM   13  C15 UNL     1      -1.154  66.555  67.799  1.00  0.00     0.091 A
HETATM   14  N5  UNL     1      -0.686  66.007  68.940  1.00  0.00    -0.352 N
ATOM     15  H5  UNL     1      -1.322  65.681  69.668  1.00  0.00     0.166 HD
BRANCH  11  16
HETATM   16  C6  UNL     1       1.929  67.372  65.895  1.00  0.00    -0.061 C
HETATM   17  C7  UNL     1       2.672  67.746  65.020  1.00  0.00    -0.061 C
BRANCH  17  18
HETATM   18  C8  UNL     1       3.573  68.172  63.986  1.00  0.00     0.018 A
HETATM   19  C9  UNL     1       3.340  67.962  62.643  1.00  0.00     0.020 A
HETATM   20  C10 UNL     1       4.205  68.372  61.663  1.00  0.00     0.001 A
HETATM   21  C11 UNL     1       5.359  69.021  62.037  1.00  0.00     0.000 A
HETATM   22  C12 UNL     1       5.621  69.245  63.367  1.00  0.00     0.001 A
HETATM   23  C13 UNL     1       4.736  68.824  64.327  1.00  0.00     0.020 A
ENDBRANCH  17  18
ENDBRANCH  11  16
ENDBRANCH   7   9
TORSDOF 3
ENDMDL