MODEL 4
REMARK VINA RESULT: -6.431005909      2.772      3.324
REMARK  2 active torsions:
REMARK  status: ('A' for Active; 'I' for Inactive)
REMARK       I    between atoms: N1_3  and  C3_5
REMARK       I    between atoms: C3_5  and  N3_11
REMARK    1  A    between atoms: N2_6  and  C4_8
REMARK       I    between atoms: N3_11  and  C6_13
REMARK       I    between atoms: C6_13  and  N4_15
REMARK    2  A    between atoms: N4_15  and  C7_17
ROOT
HETATM    1  C1  UNL     1       6.425  67.650  65.205  1.00  0.00     0.037 C
HETATM    2  C2  UNL     1       5.298  67.232  65.110  1.00  0.00     0.015 C
HETATM    3  N1  UNL     1       3.980  66.721  64.996  1.00  0.00    -0.149 N
ATOM      4  H1  UNL     1       3.695  65.867  65.476  1.00  0.00     0.195 HD
HETATM    5  C3  UNL     1       3.074  67.453  64.181  1.00  0.00     0.694 C
HETATM    6  N2  UNL     1       3.292  67.475  62.930  1.00  0.00    -0.185 N
ATOM      7  H2  UNL     1       4.110  66.961  62.602  1.00  0.00     0.185 HD
HETATM    8  N3  UNL     1       1.990  68.107  64.825  1.00  0.00    -0.140 N
ATOM      9  H3  UNL     1       1.335  68.635  64.249  1.00  0.00     0.189 HD
HETATM   10  C6  UNL     1       1.769  68.066  66.215  1.00  0.00     0.340 C
HETATM   11  O1  UNL     1       2.546  67.428  66.996  1.00  0.00    -0.246 OA
HETATM   12  N4  UNL     1       0.653  68.756  66.755  1.00  0.00    -0.294 N
ATOM     13  H4  UNL     1       0.808  69.622  67.273  1.00  0.00     0.172 HD
ENDROOT
BRANCH   6  14
HETATM   14  C4  UNL     1       2.534  68.126  61.957  1.00  0.00     0.090 C
HETATM   15  C5  UNL     1       3.167  68.480  60.661  1.00  0.00     0.082 C
HETATM   16  S1  UNL     1       0.967  68.531  62.159  1.00  0.00    -0.065 SA
ENDBRANCH   6  14
BRANCH  12  17
HETATM   17  C7  UNL     1      -0.563  68.317  66.609  1.00  0.00     0.108 A
HETATM   18  C8  UNL     1      -0.993  67.189  67.246  1.00  0.00     0.049 A
HETATM   19  C9  UNL     1      -2.279  66.711  67.101  1.00  0.00     0.005 A
HETATM   20  C10 UNL     1      -3.135  67.408  66.284  1.00  0.00     0.017 A
HETATM   21  C11 UNL     1      -2.701  68.546  65.640  1.00  0.00     0.089 A
HETATM   22  N5  UNL     1      -1.427  68.969  65.820  1.00  0.00    -0.352 N
ATOM     23  H5  UNL     1      -1.115  69.812  65.339  1.00  0.00     0.166 HD
ENDBRANCH  12  17
TORSDOF 2
ENDMDL