MODEL 5
REMARK VINA RESULT: -6.651194091      2.123      5.377
REMARK  1 active torsions:
REMARK  status: ('A' for Active; 'I' for Inactive)
REMARK       I    between atoms: C3_5  and  N3_7
REMARK       I    between atoms: C4_9  and  N4_10
REMARK       I    between atoms: C4_9  and  N5_17
REMARK    1  A    between atoms: N4_10  and  C5_12
ROOT
HETATM    1  C1  UNL     1      -0.297  70.521  61.408  1.00  0.00     0.037 C
HETATM    2  C2  UNL     1       0.309  69.537  61.799  1.00  0.00     0.001 C
HETATM    3  N1  UNL     1       1.017  68.410  62.234  1.00  0.00    -0.289 N
ATOM      4  H1  UNL     1       0.615  67.816  62.959  1.00  0.00     0.179 HD
HETATM    5  C3  UNL     1       2.153  68.111  61.742  1.00  0.00     0.214 C
HETATM    6  N2  UNL     1       2.716  68.922  60.743  1.00  0.00    -0.062 NA
HETATM    7  N3  UNL     1       2.837  66.974  62.198  1.00  0.00    -0.163 N
ATOM      8  H3  UNL     1       3.059  66.255  61.509  1.00  0.00     0.187 HD
HETATM    9  C4  UNL     1       3.208  66.762  63.406  1.00  0.00     0.678 C
HETATM   10  N4  UNL     1       2.924  67.728  64.394  1.00  0.00    -0.221 N
ATOM     11  H4  UNL     1       2.175  67.534  65.058  1.00  0.00     0.178 HD
HETATM   12  N5  UNL     1       3.891  65.562  63.699  1.00  0.00    -0.218 N
HETATM   13  C10 UNL     1       4.563  64.788  62.663  1.00  0.00     0.141 C
HETATM   14  C11 UNL     1       5.430  63.769  63.377  1.00  0.00     0.020 C
HETATM   15  C12 UNL     1       4.509  62.792  64.066  1.00  0.00     0.003 C
HETATM   16  C13 UNL     1       3.654  63.545  65.063  1.00  0.00     0.020 C
HETATM   17  C14 UNL     1       3.962  65.029  65.051  1.00  0.00     0.141 C
ENDROOT
BRANCH  10  18
HETATM   18  C5  UNL     1       3.640  68.979  64.513  1.00  0.00     0.099 C
HETATM   19  C6  UNL     1       3.888  69.255  65.985  1.00  0.00     0.026 C
HETATM   20  C7  UNL     1       5.361  69.587  66.099  1.00  0.00     0.002 C
HETATM   21  C8  UNL     1       5.944  68.682  65.012  1.00  0.00     0.002 C
HETATM   22  C9  UNL     1       4.998  68.944  63.864  1.00  0.00     0.026 C
ENDBRANCH  10  18
TORSDOF 1
ENDMDL