MODEL 5
REMARK VINA RESULT: -7.551438252      1.948      3.290
REMARK  5 active torsions:
REMARK  status: ('A' for Active; 'I' for Inactive)
REMARK    1  A    between atoms: C4_4  and  C5_5
REMARK    2  A    between atoms: C6_6  and  C7_7
REMARK    3  A    between atoms: C7_7  and  N1_8
REMARK    4  A    between atoms: C7_7  and  C8_13
REMARK    5  A    between atoms: C9_14  and  C10_15
ROOT
HETATM    1  C1  UNL     1       0.118  63.441  72.102  1.00  0.00     0.027 C
HETATM    2  C2  UNL     1       0.364  64.192  71.190  1.00  0.00    -0.025 C
HETATM    3  C3  UNL     1       0.653  65.060  70.113  1.00  0.00    -0.002 C
HETATM    4  C4  UNL     1       0.906  65.783  69.185  1.00  0.00    -0.001 C
ENDROOT
BRANCH   4   5
HETATM    5  C5  UNL     1       1.216  66.610  68.092  1.00  0.00    -0.007 C
HETATM    6  C6  UNL     1       1.490  67.313  67.124  1.00  0.00    -0.032 C
BRANCH   6   7
HETATM    7  C7  UNL     1       1.801  68.129  65.957  1.00  0.00     0.119 C
BRANCH   7   8
HETATM    8  N1  UNL     1       2.849  68.782  65.959  1.00  0.00    -0.298 N
HETATM    9  N2  UNL     1       3.984  69.214  65.575  1.00  0.00    -0.344 N
ATOM     10  H22 UNL     1       4.056  68.652  64.726  1.00  0.00     0.176 HD
ATOM     11  H21 UNL     1       4.850  69.753  65.576  1.00  0.00     0.176 HD
ATOM     12  H1  UNL     1       2.728  69.321  66.817  1.00  0.00     0.187 HD
ENDBRANCH   7   8
BRANCH   7  13
HETATM   13  C8  UNL     1       0.856  68.138  64.867  1.00  0.00     0.095 A
HETATM   14  C9  UNL     1      -0.516  68.266  64.844  1.00  0.00     0.052 A
HETATM   15  N3  UNL     1      -0.854  68.253  63.514  1.00  0.00    -0.300 N
HETATM   16  N4  UNL     1       0.195  68.127  62.772  1.00  0.00    -0.266 N
ATOM     17  H3  UNL     1      -1.808  68.331  63.159  1.00  0.00     0.186 HD
HETATM   18  C14 UNL     1       1.281  68.049  63.524  1.00  0.00     0.275 A
ATOM     19  H4  UNL     1       0.188  68.092  61.752  1.00  0.00     0.190 HD
HETATM   20  O1  UNL     1       2.472  67.920  63.086  1.00  0.00    -0.266 OA
BRANCH  14  21
HETATM   21  C10 UNL     1      -1.453  68.364  65.961  1.00  0.00    -0.006 C
HETATM   22  C11 UNL     1      -1.723  67.110  66.720  1.00  0.00     0.021 C
HETATM   23  C12 UNL     1      -1.187  69.499  66.919  1.00  0.00     0.021 C
HETATM   24  C13 UNL     1      -2.836  68.715  65.311  1.00  0.00     0.021 C
ENDBRANCH  14  21
ENDBRANCH   7  13
ENDBRANCH   6   7
ENDBRANCH   4   5
TORSDOF 5
ENDMDL