MODEL 4
REMARK VINA RESULT: -7.000318328      1.209      1.512
REMARK  0 active torsions:
REMARK  status: ('A' for Active; 'I' for Inactive)
ROOT
HETATM    1  C1  UNL     1      -1.360  66.172  67.991  1.00  0.00     0.003 C
HETATM    2  C2  UNL     1      -1.528  66.875  66.675  1.00  0.00     0.028 C
HETATM    3  C3  UNL     1      -0.488  67.933  66.440  1.00  0.00     0.237 C
HETATM    4  N1  UNL     1       0.855  67.434  66.558  1.00  0.00    -0.064 N
HETATM    5  C4  UNL     1       1.076  66.676  67.762  1.00  0.00     0.237 C
HETATM    6  C5  UNL     1      -0.118  66.663  68.682  1.00  0.00     0.028 C
HETATM    7  C6  UNL     1       1.127  66.580  65.434  1.00  0.00     0.265 C
HETATM    8  C7  UNL     1       1.979  67.286  64.372  1.00  0.00     0.265 C
HETATM    9  N2  UNL     1       3.295  67.596  64.864  1.00  0.00    -0.062 N
HETATM   10  C8  UNL     1       3.831  68.698  64.128  1.00  0.00     0.237 C
HETATM   11  C9  UNL     1       3.572  68.672  62.666  1.00  0.00     0.029 C
HETATM   12  C10 UNL     1       4.815  68.341  61.844  1.00  0.00     0.029 C
HETATM   13  C11 UNL     1       4.841  66.876  61.468  1.00  0.00     0.232 C
HETATM   14  N3  UNL     1       4.421  66.024  62.543  1.00  0.00    -0.074 N
ATOM     15  H31 UNL     1       4.524  65.040  62.291  1.00  0.00     0.277 HD
ATOM     16  H32 UNL     1       3.409  66.059  62.664  1.00  0.00     0.277 HD
HETATM   17  C12 UNL     1       5.101  66.313  63.787  1.00  0.00     0.260 C
HETATM   18  C13 UNL     1       4.084  66.418  64.874  1.00  0.00     0.265 C
HETATM   19  C14 UNL     1       3.177  68.046  66.262  1.00  0.00     0.265 C
HETATM   20  C15 UNL     1       1.778  68.553  66.537  1.00  0.00     0.265 C
ENDROOT
TORSDOF 0
ENDMDL