MODEL 2
REMARK VINA RESULT: -6.721178936      1.188      1.424
REMARK  1 active torsions:
REMARK  status: ('A' for Active; 'I' for Inactive)
REMARK       I    between atoms: N3_13  and  C9_15
REMARK    1  A    between atoms: N5_17  and  C10_19
ROOT
HETATM    1  C1  UNL     1       2.418  65.176  64.574  1.00  0.00     0.040 C
HETATM    2  C2  UNL     1       2.958  66.205  63.627  1.00  0.00     0.156 C
HETATM    3  N1  UNL     1       4.131  65.637  62.993  1.00  0.00    -0.348 N
ATOM      4  H1  UNL     1       4.279  64.629  62.966  1.00  0.00     0.163 HD
HETATM    5  C3  UNL     1       5.068  66.532  62.412  1.00  0.00     0.249 C
HETATM    6  O1  UNL     1       5.934  66.115  61.599  1.00  0.00    -0.271 OA
HETATM    7  C4  UNL     1       4.973  67.959  62.809  1.00  0.00     0.284 C
HETATM    8  C5  UNL     1       6.263  68.703  62.565  1.00  0.00     0.051 C
HETATM    9  N2  UNL     1       4.579  67.983  64.203  1.00  0.00    -0.019 N
HETATM   10  C6  UNL     1       4.702  69.314  64.758  1.00  0.00     0.281 C
HETATM   11  C7  UNL     1       5.333  67.079  65.024  1.00  0.00     0.281 C
HETATM   12  C8  UNL     1       3.210  67.523  64.211  1.00  0.00     0.209 C
HETATM   13  N3  UNL     1       2.348  68.310  64.723  1.00  0.00    -0.312 N
ATOM     14  H3  UNL     1       2.695  69.196  65.087  1.00  0.00     0.169 HD
HETATM   15  C9  UNL     1       0.960  68.078  64.835  1.00  0.00     0.190 C
HETATM   16  N4  UNL     1       0.172  67.641  63.707  1.00  0.00    -0.063 NA
HETATM   17  N5  UNL     1       0.297  68.233  65.923  1.00  0.00    -0.356 N
ATOM     18  H5  UNL     1      -0.702  68.033  65.877  1.00  0.00     0.163 HD
ENDROOT
BRANCH  17  19
HETATM   19  C10 UNL     1       0.804  68.654  67.187  1.00  0.00     0.021 C
HETATM   20  C11 UNL     1       2.162  69.270  67.144  1.00  0.00     0.037 C
HETATM   21  C12 UNL     1       0.798  67.474  68.134  1.00  0.00     0.037 C
HETATM   22  C13 UNL     1      -0.162  69.695  67.758  1.00  0.00     0.037 C
ENDBRANCH  17  19
TORSDOF 1
ENDMDL