MODEL 3
REMARK VINA RESULT: -10.151872962      1.303      4.193
REMARK  0 active torsions:
REMARK  status: ('A' for Active; 'I' for Inactive)
REMARK       I    between atoms: C1_4  and  N3_6
ROOT
HETATM    1  N1  UNL     1       0.547  69.940  61.331  1.00  0.00    -0.372 N
ATOM      2  H11 UNL     1       0.855  70.459  62.153  1.00  0.00     0.158 HD
ATOM      3  H12 UNL     1      -0.234  70.266  60.761  1.00  0.00     0.158 HD
HETATM    4  C1  UNL     1       1.164  68.844  61.052  1.00  0.00     0.204 C
HETATM    5  N2  UNL     1       0.734  68.123  59.908  1.00  0.00    -0.062 NA
HETATM    6  N3  UNL     1       2.214  68.407  61.818  1.00  0.00    -0.248 N
HETATM    7  C2  UNL     1       3.436  68.127  60.923  1.00  0.00     0.237 C
HETATM    8  C3  UNL     1       4.498  68.364  61.812  1.00  0.00    -0.133 C
HETATM    9  C4  UNL     1       5.011  68.597  62.654  1.00  0.00     0.065 C
HETATM   10  C5  UNL     1       5.205  68.970  63.972  1.00  0.00    -0.016 A
HETATM   11  C6  UNL     1       6.297  69.400  64.448  1.00  0.00     0.013 A
HETATM   12  C7  UNL     1       6.314  69.935  65.758  1.00  0.00     0.001 A
HETATM   13  C8  UNL     1       5.142  69.971  66.468  1.00  0.00     0.001 A
HETATM   14  C9  UNL     1       3.902  69.500  65.970  1.00  0.00     0.014 A
HETATM   15  C10 UNL     1       3.932  69.007  64.756  1.00  0.00     0.003 A
HETATM   16  C11 UNL     1       2.617  68.482  64.376  1.00  0.00     0.067 A
HETATM   17  C12 UNL     1       2.072  68.202  65.611  1.00  0.00     0.032 A
HETATM   18  C13 UNL     1       0.789  67.720  65.646  1.00  0.00     0.004 A
HETATM   19  C14 UNL     1       0.121  67.541  64.428  1.00  0.00     0.019 A
HETATM   20  C15 UNL     1       0.699  67.825  63.240  1.00  0.00     0.117 A
HETATM   21  N4  UNL     1       1.978  68.307  63.176  1.00  0.00    -0.262 N
ENDROOT
TORSDOF 0
ENDMDL