MODEL 3
REMARK VINA RESULT: -7.576321568      1.161      6.119
REMARK  0 active torsions:
REMARK  status: ('A' for Active; 'I' for Inactive)
REMARK       I    between atoms: N2_11  and  C10_12
ROOT
HETATM    1  C1  UNL     1      -1.038  69.270  66.925  1.00  0.00     0.272 C
HETATM    2  N1  UNL     1      -0.465  67.935  66.897  1.00  0.00    -0.075 N
HETATM    3  C2  UNL     1      -1.505  67.056  67.472  1.00  0.00     0.272 C
HETATM    4  C3  UNL     1       0.625  67.841  67.792  1.00  0.00     0.236 C
HETATM    5  C4  UNL     1       1.662  68.902  67.725  1.00  0.00     0.028 C
HETATM    6  C5  UNL     1       2.407  69.002  66.441  1.00  0.00     0.002 C
HETATM    7  C6  UNL     1       2.891  67.669  65.993  1.00  0.00     0.010 C
HETATM    8  C7  UNL     1       2.120  67.059  64.866  1.00  0.00    -0.036 C
HETATM    9  C8  UNL     1       2.897  65.786  64.480  1.00  0.00     0.029 C
HETATM   10  C9  UNL     1       4.292  66.074  64.056  1.00  0.00     0.126 C
HETATM   11  N2  UNL     1       4.398  67.196  63.145  1.00  0.00    -0.356 N
HETATM   12  C10 UNL     1       5.528  67.251  62.304  1.00  0.00     0.183 C
HETATM   13  N3  UNL     1       5.657  66.420  61.342  1.00  0.00    -0.374 N
ATOM     14  H31 UNL     1       6.474  66.461  60.733  1.00  0.00     0.158 HD
ATOM     15  H32 UNL     1       4.942  65.711  61.177  1.00  0.00     0.158 HD
HETATM   16  N4  UNL     1       6.516  68.230  62.532  1.00  0.00    -0.064 NA
HETATM   17  C11 UNL     1       3.420  68.228  63.068  1.00  0.00     0.126 C
HETATM   18  C12 UNL     1       2.086  67.904  63.632  1.00  0.00     0.029 C
HETATM   19  C13 UNL     1       0.756  66.562  65.240  1.00  0.00     0.037 C
HETATM   20  C14 UNL     1      -0.267  67.560  65.553  1.00  0.00     0.237 C
ENDROOT
TORSDOF 0
ENDMDL