MODEL 1
REMARK VINA RESULT: -5.240694557      0.000      0.000
REMARK  7 active torsions:
REMARK  status: ('A' for Active; 'I' for Inactive)
REMARK    1  A    between atoms: O1_2  and  C2_3
REMARK    2  A    between atoms: C2_3  and  O2_4
REMARK    3  A    between atoms: O2_4  and  C3_5
REMARK    4  A    between atoms: C3_5  and  C4_6
REMARK    5  A    between atoms: C4_6  and  N1_7
REMARK    6  A    between atoms: N1_7  and  C5_9
REMARK    7  A    between atoms: C8_14  and  N3_15
ROOT
HETATM    1  C5  UNL     1      89.078  65.893   1.905  1.00  0.00     0.118 A
HETATM    2  C6  UNL     1      89.305  65.429   3.185  1.00  0.00     0.066 A
HETATM    3  C7  UNL     1      90.026  64.244   3.337  1.00  0.00     0.110 A
HETATM    4  N2  UNL     1      90.489  63.567   2.263  1.00  0.00    -0.202 N
ATOM      5  H2  UNL     1      91.012  62.702   2.392  1.00  0.00     0.183 HD
HETATM    6  C8  UNL     1      90.257  64.036   1.023  1.00  0.00     0.677 A
HETATM    7  N4  UNL     1      89.555  65.189   0.886  1.00  0.00    -0.177 N
ATOM      8  H4  UNL     1      89.385  65.537  -0.057  1.00  0.00     0.185 HD
ENDROOT
BRANCH   1   9
HETATM    9  N1  UNL     1      88.419  66.977   1.765  1.00  0.00    -0.374 N
ATOM     10  H1  UNL     1      88.928  67.803   1.450  1.00  0.00     0.161 HD
BRANCH   9  11
HETATM   11  C4  UNL     1      87.006  67.118   2.020  1.00  0.00     0.147 C
BRANCH  11  12
HETATM   12  C3  UNL     1      86.859  68.241   3.017  1.00  0.00     0.190 C
BRANCH  12  13
HETATM   13  O2  UNL     1      85.605  68.336   3.556  1.00  0.00    -0.365 OA
BRANCH  13  14
HETATM   14  C2  UNL     1      85.108  67.075   3.835  1.00  0.00     0.337 C
BRANCH  14  15
HETATM   15  O1  UNL     1      83.718  67.121   3.961  1.00  0.00    -0.372 OA
HETATM   16  C1  UNL     1      83.085  66.644   2.824  1.00  0.00     0.204 C
ENDBRANCH  14  15
ENDBRANCH  13  14
ENDBRANCH  12  13
ENDBRANCH  11  12
ENDBRANCH   9  11
ENDBRANCH   1   9
BRANCH   6  17
HETATM   17  N3  UNL     1      90.693  63.403  -0.026  1.00  0.00    -0.234 N
ATOM     18  H32 UNL     1      90.965  62.422   0.039  1.00  0.00     0.174 HD
ATOM     19  H31 UNL     1      90.772  63.871  -0.928  1.00  0.00     0.174 HD
ENDBRANCH   6  17
TORSDOF 7
ENDMDL