MODEL 4
REMARK VINA RESULT: -4.626881725      2.717      4.380
REMARK  7 active torsions:
REMARK  status: ('A' for Active; 'I' for Inactive)
REMARK    1  A    between atoms: C2_2  and  O1_3
REMARK    2  A    between atoms: O1_3  and  C3_4
REMARK    3  A    between atoms: C3_4  and  C4_5
REMARK    4  A    between atoms: C4_5  and  C5_6
REMARK    5  A    between atoms: C5_6  and  N1_7
REMARK    6  A    between atoms: N1_7  and  C6_9
REMARK    7  A    between atoms: C7_14  and  N4_15
ROOT
HETATM    1  C6  UNL     1      89.114  65.552   2.884  1.00  0.00     0.707 A
HETATM    2  N2  UNL     1      90.356  65.165   3.226  1.00  0.00    -0.117 N
ATOM      3  H2  UNL     1      90.938  65.631   3.922  1.00  0.00     0.206 HD
HETATM    4  N3  UNL     1      90.714  64.103   2.542  1.00  0.00    -0.118 N
ATOM      5  H3  UNL     1      91.602  63.606   2.606  1.00  0.00     0.206 HD
HETATM    6  C7  UNL     1      89.681  63.801   1.741  1.00  0.00     0.705 A
HETATM    7  N5  UNL     1      88.693  64.686   1.944  1.00  0.00    -0.020 N
ATOM      8  H5  UNL     1      87.788  64.700   1.472  1.00  0.00     0.203 HD
ENDROOT
BRANCH   1   9
HETATM    9  N1  UNL     1      88.449  66.572   3.370  1.00  0.00    -0.224 N
ATOM     10  H1  UNL     1      88.847  67.120   4.132  1.00  0.00     0.177 HD
BRANCH   9  11
HETATM   11  C5  UNL     1      87.152  66.924   2.829  1.00  0.00     0.140 C
BRANCH  11  12
HETATM   12  C4  UNL     1      86.070  66.769   3.869  1.00  0.00     0.046 C
BRANCH  12  13
HETATM   13  C3  UNL     1      84.864  67.607   3.580  1.00  0.00     0.169 C
BRANCH  13  14
HETATM   14  O1  UNL     1      83.695  66.951   3.827  1.00  0.00    -0.391 OA
BRANCH  14  15
HETATM   15  C2  UNL     1      82.950  66.584   2.748  1.00  0.00     0.163 C
HETATM   16  C1  UNL     1      83.193  65.099   2.484  1.00  0.00     0.033 C
ENDBRANCH  14  15
ENDBRANCH  13  14
ENDBRANCH  12  13
ENDBRANCH  11  12
ENDBRANCH   9  11
ENDBRANCH   1   9
BRANCH   6  17
HETATM   17  N4  UNL     1      89.659  62.821   0.920  1.00  0.00    -0.233 N
ATOM     18  H42 UNL     1      89.887  61.850   1.135  1.00  0.00     0.174 HD
ATOM     19  H41 UNL     1      89.407  62.895  -0.065  1.00  0.00     0.174 HD
ENDBRANCH   6  17
TORSDOF 7
ENDMDL