MODEL 5
REMARK VINA RESULT: -4.634959571      1.972      5.391
REMARK  8 active torsions:
REMARK  status: ('A' for Active; 'I' for Inactive)
REMARK    1  A    between atoms: N1_1  and  C1_5
REMARK    2  A    between atoms: C1_5  and  C2_6
REMARK    3  A    between atoms: C2_6  and  N2_7
REMARK    4  A    between atoms: N2_7  and  C3_10
REMARK    5  A    between atoms: C3_10  and  C4_11
REMARK    6  A    between atoms: C8_15  and  N3_16
REMARK    7  A    between atoms: C8_15  and  C9_20
REMARK    8  A    between atoms: C9_20  and  N4_21
ROOT
HETATM    1  C4  UNL     1      89.233  63.634   0.215  1.00  0.00     0.054 C
HETATM    2  C5  UNL     1      88.755  62.425   0.990  1.00  0.00     0.001 A
HETATM    3  C6  UNL     1      89.071  61.991   2.313  1.00  0.00     0.013 A
HETATM    4  C7  UNL     1      89.257  63.389   2.151  1.00  0.00     0.028 A
HETATM    5  C8  UNL     1      88.529  64.392   1.289  1.00  0.00     0.156 C
ENDROOT
BRANCH   1   6
HETATM    6  C3  UNL     1      88.726  63.601  -1.172  1.00  0.00     0.239 C
BRANCH   6   7
HETATM    7  N2  UNL     1      88.492  62.291  -1.740  1.00  0.00    -0.073 N
ATOM      8  H22 UNL     1      87.526  61.983  -1.625  1.00  0.00     0.277 HD
ATOM      9  H21 UNL     1      88.942  61.548  -1.206  1.00  0.00     0.277 HD
BRANCH   7  10
HETATM   10  C2  UNL     1      88.909  62.305  -3.136  1.00  0.00     0.259 C
BRANCH  10  11
HETATM   11  C1  UNL     1      90.311  62.758  -3.354  1.00  0.00     0.257 C
BRANCH  11  12
HETATM   12  N1  UNL     1      91.103  61.569  -3.730  1.00  0.00    -0.078 N
ATOM     13  H13 UNL     1      91.274  61.505  -4.733  1.00  0.00     0.274 HD
ATOM     14  H12 UNL     1      92.078  61.628  -3.433  1.00  0.00     0.274 HD
ATOM     15  H11 UNL     1      90.621  60.753  -3.354  1.00  0.00     0.274 HD
ENDBRANCH  11  12
ENDBRANCH  10  11
ENDBRANCH   7  10
ENDBRANCH   6   7
ENDBRANCH   1   6
BRANCH   5  16
HETATM   16  N3  UNL     1      87.111  64.417   1.351  1.00  0.00    -0.068 N
ATOM     17  H33 UNL     1      86.760  63.544   0.959  1.00  0.00     0.275 HD
ATOM     18  H32 UNL     1      86.834  64.333   2.329  1.00  0.00     0.275 HD
ATOM     19  H31 UNL     1      86.584  65.187   0.936  1.00  0.00     0.275 HD
ENDBRANCH   5  16
BRANCH   5  20
HETATM   20  C9  UNL     1      89.077  65.812   1.532  1.00  0.00     0.269 C
BRANCH  20  21
HETATM   21  N4  UNL     1      89.808  65.739   2.787  1.00  0.00    -0.077 N
ATOM     22  H43 UNL     1      89.430  66.343   3.517  1.00  0.00     0.274 HD
ATOM     23  H42 UNL     1      89.685  64.857   3.282  1.00  0.00     0.274 HD
ATOM     24  H41 UNL     1      90.780  65.943   2.550  1.00  0.00     0.274 HD
ENDBRANCH  20  21
ENDBRANCH   5  20
TORSDOF 8
ENDMDL