MODEL 3
REMARK VINA RESULT: -4.934735147      1.857      2.256
REMARK  6 active torsions:
REMARK  status: ('A' for Active; 'I' for Inactive)
REMARK    1  A    between atoms: N1_1  and  C1_5
REMARK    2  A    between atoms: C1_5  and  C2_6
REMARK    3  A    between atoms: C2_6  and  N2_7
REMARK    4  A    between atoms: N2_7  and  C3_10
REMARK    5  A    between atoms: C3_10  and  C4_11
REMARK    6  A    between atoms: C4_11  and  N3_12
ROOT
HETATM    1  C4  UNL     1      88.605  63.053   0.503  1.00  0.00     0.200 C
HETATM    2  C5  UNL     1      89.760  63.618   1.336  1.00  0.00     0.223 C
HETATM    3  O1  UNL     1      89.465  65.009   1.231  1.00  0.00    -0.332 OA
HETATM    4  C6  UNL     1      88.058  65.095   1.394  1.00  0.00     0.151 A
HETATM    5  N4  UNL     1      87.071  65.897   1.814  1.00  0.00    -0.346 N
ATOM      6  H4  UNL     1      87.199  66.836   2.190  1.00  0.00     0.167 HD
HETATM    7  C7  UNL     1      85.891  65.280   1.666  1.00  0.00     0.091 A
HETATM    8  C8  UNL     1      86.123  64.035   1.134  1.00  0.00     0.031 A
HETATM    9  C9  UNL     1      87.488  63.925   0.965  1.00  0.00     0.034 A
ENDROOT
BRANCH   1  10
HETATM   10  C3  UNL     1      88.921  63.360  -0.933  1.00  0.00     0.278 C
BRANCH  10  11
HETATM   11  N2  UNL     1      90.335  63.316  -1.231  1.00  0.00    -0.071 N
ATOM     12  H22 UNL     1      90.772  62.424  -1.003  1.00  0.00     0.277 HD
ATOM     13  H21 UNL     1      90.900  63.893  -0.609  1.00  0.00     0.277 HD
BRANCH  11  14
HETATM   14  C2  UNL     1      90.458  63.683  -2.641  1.00  0.00     0.259 C
BRANCH  14  15
HETATM   15  C1  UNL     1      90.068  62.538  -3.549  1.00  0.00     0.257 C
BRANCH  15  16
HETATM   16  N1  UNL     1      91.133  61.563  -3.696  1.00  0.00    -0.078 N
ATOM     17  H13 UNL     1      91.989  62.001  -4.034  1.00  0.00     0.274 HD
ATOM     18  H12 UNL     1      91.464  61.240  -2.786  1.00  0.00     0.274 HD
ATOM     19  H11 UNL     1      90.862  60.778  -4.289  1.00  0.00     0.274 HD
ENDBRANCH  15  16
ENDBRANCH  14  15
ENDBRANCH  11  14
ENDBRANCH  10  11
ENDBRANCH   1  10
BRANCH   1  20
HETATM   20  N3  UNL     1      88.410  61.662   0.756  1.00  0.00    -0.062 N
ATOM     21  H33 UNL     1      87.499  61.357   0.415  1.00  0.00     0.275 HD
ATOM     22  H32 UNL     1      89.013  61.098   0.158  1.00  0.00     0.275 HD
ATOM     23  H31 UNL     1      88.533  61.407   1.736  1.00  0.00     0.275 HD
ENDBRANCH   1  20
TORSDOF 6
ENDMDL