MODEL 3
REMARK VINA RESULT: -4.505096061      2.525      5.138
REMARK  7 active torsions:
REMARK  status: ('A' for Active; 'I' for Inactive)
REMARK    1  A    between atoms: N1_1  and  C1_5
REMARK    2  A    between atoms: C1_5  and  C2_6
REMARK    3  A    between atoms: C2_6  and  S1_7
REMARK    4  A    between atoms: S1_7  and  C3_8
REMARK    5  A    between atoms: C3_8  and  C4_9
REMARK    6  A    between atoms: C4_9  and  N2_10
REMARK    7  A    between atoms: N2_10  and  C5_12
ROOT
HETATM    1  C4  UNL     1      86.276  63.868   1.266  1.00  0.00     0.131 C
ENDROOT
BRANCH   1   2
HETATM    2  C3  UNL     1      86.150  65.359   0.976  1.00  0.00     0.093 C
BRANCH   2   3
HETATM    3  S1  UNL     1      86.439  66.338   2.467  1.00  0.00    -0.166 SA
BRANCH   3   4
HETATM    4  C2  UNL     1      88.179  66.464   2.825  1.00  0.00     0.101 C
BRANCH   4   5
HETATM    5  C1  UNL     1      88.590  66.152   4.220  1.00  0.00     0.239 C
BRANCH   5   6
HETATM    6  N1  UNL     1      89.671  65.245   4.384  1.00  0.00    -0.079 N
ATOM      7  H13 UNL     1      89.308  64.320   4.613  1.00  0.00     0.274 HD
ATOM      8  H12 UNL     1      90.100  65.059   3.478  1.00  0.00     0.274 HD
ATOM      9  H11 UNL     1      90.393  65.505   5.056  1.00  0.00     0.274 HD
ENDBRANCH   5   6
ENDBRANCH   4   5
ENDBRANCH   3   4
ENDBRANCH   2   3
ENDBRANCH   1   2
BRANCH   1  10
HETATM   10  N2  UNL     1      87.374  63.363   0.462  1.00  0.00    -0.374 N
ATOM     11  H2  UNL     1      87.179  62.956  -0.453  1.00  0.00     0.161 HD
BRANCH  10  12
HETATM   12  C5  UNL     1      88.606  63.421   0.888  1.00  0.00     0.131 A
HETATM   13  C6  UNL     1      89.671  64.119   0.356  1.00  0.00     0.154 A
HETATM   14  N3  UNL     1      90.724  63.853   1.160  1.00  0.00    -0.292 N
HETATM   15  N4  UNL     1      90.375  63.040   2.143  1.00  0.00    -0.021 NA
ATOM     16  H3  UNL     1      91.663  64.229   1.026  1.00  0.00     0.183 HD
HETATM   17  N5  UNL     1      89.072  62.784   1.963  1.00  0.00    -0.268 N
ATOM     18  H5  UNL     1      88.511  62.183   2.566  1.00  0.00     0.186 HD
ENDBRANCH  10  12
ENDBRANCH   1  10
TORSDOF 7
ENDMDL