MODEL 5
REMARK VINA RESULT: -4.468337364      3.080      4.943
REMARK  5 active torsions:
REMARK  status: ('A' for Active; 'I' for Inactive)
REMARK    1  A    between atoms: C1_1  and  C2_2
REMARK    2  A    between atoms: C1_1  and  C6_12
REMARK    3  A    between atoms: C2_2  and  N1_3
REMARK    4  A    between atoms: N1_3  and  C3_5
REMARK    5  A    between atoms: C6_12  and  N4_13
ROOT
HETATM    1  C2  UNL     1      87.999  67.343   0.960  1.00  0.00     0.124 C
ENDROOT
BRANCH   1   2
HETATM    2  C1  UNL     1      86.791  68.242   1.245  1.00  0.00     0.050 C
BRANCH   2   3
HETATM    3  C6  UNL     1      85.888  67.492   2.174  1.00  0.00     0.276 C
BRANCH   3   4
HETATM    4  N4  UNL     1      85.005  66.550   1.527  1.00  0.00     0.115 N
HETATM    5  C7  UNL     1      84.344  65.818   2.600  1.00  0.00     0.302 C
HETATM    6  C8  UNL     1      83.170  66.660   2.936  1.00  0.00     0.264 C
HETATM    7  N5  UNL     1      82.729  67.090   1.624  1.00  0.00    -0.047 N
HETATM    8  C9  UNL     1      83.921  67.211   0.834  1.00  0.00     0.502 C
ATOM      9  H52 UNL     1      82.024  66.480   1.209  1.00  0.00     0.279 HD
ATOM     10  H51 UNL     1      82.163  67.937   1.641  1.00  0.00     0.279 HD
ENDBRANCH   3   4
ENDBRANCH   2   3
ENDBRANCH   1   2
BRANCH   1  11
HETATM   11  N1  UNL     1      88.523  66.802   2.206  1.00  0.00    -0.362 N
ATOM     12  H1  UNL     1      88.263  67.244   3.088  1.00  0.00     0.162 HD
BRANCH  11  13
HETATM   13  C3  UNL     1      89.386  65.676   2.226  1.00  0.00     0.171 C
HETATM   14  N2  UNL     1      89.480  64.947   1.131  1.00  0.00    -0.361 N
HETATM   15  C4  UNL     1      90.397  63.853   1.325  1.00  0.00     0.142 C
ATOM     16  H2  UNL     1      88.973  65.133   0.266  1.00  0.00     0.162 HD
HETATM   17  C5  UNL     1      90.463  63.724   2.831  1.00  0.00     0.142 C
HETATM   18  N3  UNL     1      90.217  65.118   3.221  1.00  0.00    -0.361 N
ATOM     19  H3  UNL     1      90.576  65.592   4.050  1.00  0.00     0.162 HD
ENDBRANCH  11  13
ENDBRANCH   1  11
TORSDOF 5
ENDMDL