MODEL 1
REMARK VINA RESULT: -4.655252472      0.000      0.000
REMARK  6 active torsions:
REMARK  status: ('A' for Active; 'I' for Inactive)
REMARK    1  A    between atoms: C5_9  and  C6_10
REMARK    2  A    between atoms: C6_10  and  N3_11
REMARK    3  A    between atoms: N3_11  and  C7_14
REMARK    4  A    between atoms: C7_14  and  C8_15
REMARK    5  A    between atoms: C8_15  and  C9_16
REMARK    6  A    between atoms: C9_16  and  N4_17
ROOT
HETATM    1  C6  UNL     1      89.630  63.809  -0.834  1.00  0.00     0.269 C
ENDROOT
BRANCH   1   2
HETATM    2  C5  UNL     1      89.897  64.315   0.536  1.00  0.00     0.273 C
HETATM    3  N1  UNL     1      90.051  63.289   1.528  1.00  0.00     0.093 N
HETATM    4  C1  UNL     1      88.890  62.441   1.666  1.00  0.00     0.310 C
HETATM    5  C2  UNL     1      90.433  63.870   2.792  1.00  0.00     0.300 C
HETATM    6  C3  UNL     1      89.576  65.042   3.208  1.00  0.00     0.262 C
HETATM    7  N2  UNL     1      89.594  66.018   2.152  1.00  0.00    -0.071 N
HETATM    8  C4  UNL     1      88.943  65.388   1.004  1.00  0.00     0.269 C
ATOM      9  H22 UNL     1      89.176  66.910   2.416  1.00  0.00     0.277 HD
ATOM     10  H21 UNL     1      90.527  66.374   1.944  1.00  0.00     0.277 HD
ENDBRANCH   1   2
BRANCH   1  11
HETATM   11  N3  UNL     1      90.778  63.206  -1.464  1.00  0.00    -0.073 N
ATOM     12  H32 UNL     1      91.645  63.563  -1.063  1.00  0.00     0.277 HD
ATOM     13  H31 UNL     1      90.867  62.225  -1.201  1.00  0.00     0.277 HD
BRANCH  11  14
HETATM   14  C7  UNL     1      90.769  63.360  -2.903  1.00  0.00     0.234 C
BRANCH  14  15
HETATM   15  C8  UNL     1      89.541  62.676  -3.457  1.00  0.00     0.055 C
BRANCH  15  16
HETATM   16  C9  UNL     1      89.935  61.416  -4.218  1.00  0.00     0.231 C
BRANCH  16  17
HETATM   17  N4  UNL     1      91.359  61.363  -4.435  1.00  0.00    -0.079 N
ATOM     18  H43 UNL     1      91.719  62.253  -4.778  1.00  0.00     0.274 HD
ATOM     19  H42 UNL     1      91.871  61.318  -3.554  1.00  0.00     0.274 HD
ATOM     20  H41 UNL     1      91.608  60.594  -5.055  1.00  0.00     0.274 HD
ENDBRANCH  16  17
ENDBRANCH  15  16
ENDBRANCH  14  15
ENDBRANCH  11  14
ENDBRANCH   1  11
TORSDOF 6
ENDMDL