MODEL 1
REMARK VINA RESULT: -5.110763305      0.000      0.000
REMARK  7 active torsions:
REMARK  status: ('A' for Active; 'I' for Inactive)
REMARK    1  A    between atoms: N1_2  and  C2_5
REMARK    2  A    between atoms: C2_5  and  C3_6
REMARK    3  A    between atoms: C3_6  and  C4_7
REMARK    4  A    between atoms: C5_14  and  N5_15
REMARK    5  A    between atoms: N5_15  and  C6_17
REMARK    6  A    between atoms: C6_17  and  C7_18
REMARK    7  A    between atoms: C7_18  and  N6_19
ROOT
HETATM    1  C4  UNL     1      89.298  72.213   3.552  1.00  0.00     0.073 A
HETATM    2  N2  UNL     1      88.322  71.280   3.677  1.00  0.00    -0.287 N
ATOM      3  H2  UNL     1      87.769  71.113   4.518  1.00  0.00     0.188 HD
HETATM    4  N3  UNL     1      88.200  70.620   2.541  1.00  0.00    -0.241 N
ATOM      5  H3  UNL     1      87.539  69.865   2.363  1.00  0.00     0.208 HD
HETATM    6  N4  UNL     1      89.079  71.099   1.664  1.00  0.00    -0.270 N
ATOM      7  H4  UNL     1      89.206  70.776   0.705  1.00  0.00     0.190 HD
HETATM    8  C5  UNL     1      89.770  72.084   2.263  1.00  0.00     0.141 A
ENDROOT
BRANCH   8   9
HETATM    9  N5  UNL     1      90.717  72.827   1.805  1.00  0.00    -0.372 N
ATOM     10  H5  UNL     1      91.536  72.962   2.397  1.00  0.00     0.161 HD
BRANCH   9  11
HETATM   11  C6  UNL     1      90.713  73.476   0.531  1.00  0.00     0.148 C
BRANCH  11  12
HETATM   12  C7  UNL     1      89.721  74.620   0.586  1.00  0.00     0.249 C
BRANCH  12  13
HETATM   13  N6  UNL     1      89.021  74.694  -0.679  1.00  0.00    -0.078 N
ATOM     14  H63 UNL     1      88.969  73.790  -1.148  1.00  0.00     0.274 HD
ATOM     15  H62 UNL     1      88.021  74.852  -0.561  1.00  0.00     0.274 HD
ATOM     16  H61 UNL     1      89.462  75.409  -1.258  1.00  0.00     0.274 HD
ENDBRANCH  12  13
ENDBRANCH  11  12
ENDBRANCH   9  11
ENDBRANCH   8   9
BRANCH   1  17
HETATM   17  C3  UNL     1      89.740  73.173   4.620  1.00  0.00     0.090 C
BRANCH  17  18
HETATM   18  C2  UNL     1      88.862  73.053   5.817  1.00  0.00     0.238 C
BRANCH  18  19
HETATM   19  N1  UNL     1      88.368  74.322   6.296  1.00  0.00    -0.079 N
HETATM   20  C1  UNL     1      88.827  74.647   7.614  1.00  0.00     0.267 C
ATOM     21  H12 UNL     1      87.350  74.357   6.248  1.00  0.00     0.276 HD
ATOM     22  H11 UNL     1      88.593  75.070   5.639  1.00  0.00     0.276 HD
ENDBRANCH  18  19
ENDBRANCH  17  18
ENDBRANCH   1  17
TORSDOF 7
ENDMDL