MODEL 3
REMARK VINA RESULT: -5.044098026      3.134      4.216
REMARK  7 active torsions:
REMARK  status: ('A' for Active; 'I' for Inactive)
REMARK    1  A    between atoms: C2_5  and  N3_6
REMARK    2  A    between atoms: C4_12  and  C5_13
REMARK    3  A    between atoms: C5_13  and  C6_14
REMARK    4  A    between atoms: C6_14  and  C7_15
REMARK    5  A    between atoms: C7_15  and  C8_16
REMARK    6  A    between atoms: C8_16  and  O1_17
REMARK    7  A    between atoms: O1_17  and  N5_18
ROOT
HETATM    1  C1  UNL     1      90.630  64.183   3.140  1.00  0.00     0.178 C
HETATM    2  N1  UNL     1      89.480  63.726   2.399  1.00  0.00    -0.285 N
HETATM    3  N2  UNL     1      89.339  62.427   2.103  1.00  0.00    -0.130 N
ATOM      4  H2  UNL     1      90.058  61.772   2.413  1.00  0.00     0.206 HD
HETATM    5  C2  UNL     1      88.293  61.959   1.420  1.00  0.00     0.690 A
HETATM    6  N4  UNL     1      87.350  62.829   1.015  1.00  0.00    -0.199 N
ATOM      7  H4  UNL     1      86.540  62.499   0.491  1.00  0.00     0.183 HD
HETATM    8  C3  UNL     1      87.481  64.148   1.308  1.00  0.00     0.132 A
HETATM    9  C4  UNL     1      88.564  64.628   2.015  1.00  0.00     0.044 A
ENDROOT
BRANCH   9  10
HETATM   10  C5  UNL     1      88.719  66.061   2.343  1.00  0.00     0.060 C
BRANCH  10  11
HETATM   11  C6  UNL     1      88.036  66.445   3.640  1.00  0.00     0.008 C
BRANCH  11  12
HETATM   12  C7  UNL     1      86.784  67.206   3.273  1.00  0.00     0.029 C
BRANCH  12  13
HETATM   13  C8  UNL     1      87.075  68.567   2.718  1.00  0.00     0.200 C
BRANCH  13  14
HETATM   14  O1  UNL     1      86.925  69.576   3.666  1.00  0.00    -0.287 OA
BRANCH  14  15
HETATM   15  N5  UNL     1      87.914  70.468   3.549  1.00  0.00    -0.311 N
ATOM     16  H52 UNL     1      88.695  70.373   2.900  1.00  0.00     0.184 HD
ATOM     17  H51 UNL     1      87.769  71.242   4.198  1.00  0.00     0.184 HD
ENDBRANCH  14  15
ENDBRANCH  13  14
ENDBRANCH  12  13
ENDBRANCH  11  12
ENDBRANCH  10  11
ENDBRANCH   9  10
BRANCH   5  18
HETATM   18  N3  UNL     1      88.139  60.711   1.124  1.00  0.00    -0.233 N
ATOM     19  H32 UNL     1      87.755  60.091   1.837  1.00  0.00     0.174 HD
ATOM     20  H31 UNL     1      88.382  60.315   0.216  1.00  0.00     0.174 HD
ENDBRANCH   5  18
TORSDOF 7
ENDMDL