MODEL 4
REMARK VINA RESULT: -4.552155873      3.233      5.608
REMARK  7 active torsions:
REMARK  status: ('A' for Active; 'I' for Inactive)
REMARK    1  A    between atoms: N1_1  and  C1_5
REMARK    2  A    between atoms: C1_5  and  C2_6
REMARK    3  A    between atoms: C2_6  and  C3_7
REMARK    4  A    between atoms: C3_7  and  N2_8
REMARK    5  A    between atoms: N2_8  and  C4_10
REMARK    6  A    between atoms: C4_10  and  C5_11
REMARK    7  A    between atoms: C7_13  and  N3_14
ROOT
HETATM    1  C5  UNL     1      88.039  66.243   2.870  1.00  0.00     0.205 C
HETATM    2  C6  UNL     1      88.019  66.242   1.367  1.00  0.00     0.067 C
HETATM    3  C7  UNL     1      87.546  67.569   0.804  1.00  0.00     0.187 C
HETATM    4  C8  UNL     1      86.343  68.113   1.543  1.00  0.00     0.060 C
HETATM    5  C9  UNL     1      86.472  67.946   3.048  1.00  0.00     0.235 C
HETATM    6  N4  UNL     1      87.864  67.608   3.318  1.00  0.00    -0.069 N
ATOM      7  H41 UNL     1      88.530  68.260   2.903  1.00  0.00     0.277 HD
ATOM      8  H42 UNL     1      88.137  67.754   4.290  1.00  0.00     0.277 HD
ENDROOT
BRANCH   1   9
HETATM    9  C4  UNL     1      89.270  65.580   3.459  1.00  0.00     0.146 C
BRANCH   9  10
HETATM   10  N2  UNL     1      89.973  64.939   2.394  1.00  0.00    -0.419 N
ATOM     11  H2  UNL     1      90.069  65.371   1.475  1.00  0.00     0.153 HD
BRANCH  10  12
HETATM   12  C3  UNL     1      90.531  63.663   2.689  1.00  0.00     0.115 C
BRANCH  12  13
HETATM   13  C2  UNL     1      89.508  62.550   2.677  1.00  0.00     0.046 C
BRANCH  13  14
HETATM   14  C1  UNL     1      88.785  62.535   1.330  1.00  0.00     0.231 C
BRANCH  14  15
HETATM   15  N1  UNL     1      88.289  61.224   1.018  1.00  0.00    -0.079 N
ATOM     16  H13 UNL     1      88.886  60.751   0.340  1.00  0.00     0.274 HD
ATOM     17  H12 UNL     1      88.404  60.584   1.803  1.00  0.00     0.274 HD
ATOM     18  H11 UNL     1      87.320  61.259   0.703  1.00  0.00     0.274 HD
ENDBRANCH  14  15
ENDBRANCH  13  14
ENDBRANCH  12  13
ENDBRANCH  10  12
ENDBRANCH   9  10
ENDBRANCH   1   9
BRANCH   3  19
HETATM   19  N3  UNL     1      88.622  68.534   0.763  1.00  0.00    -0.075 N
ATOM     20  H33 UNL     1      88.267  69.489   0.706  1.00  0.00     0.274 HD
ATOM     21  H32 UNL     1      89.102  68.599   1.660  1.00  0.00     0.274 HD
ATOM     22  H31 UNL     1      89.272  68.330   0.003  1.00  0.00     0.274 HD
ENDBRANCH   3  19
TORSDOF 7
ENDMDL