MODEL 3
REMARK VINA RESULT: -4.556914498      8.721     10.116
REMARK  7 active torsions:
REMARK  status: ('A' for Active; 'I' for Inactive)
REMARK    1  A    between atoms: N1_1  and  C1_5
REMARK    2  A    between atoms: C1_5  and  C2_6
REMARK    3  A    between atoms: C2_6  and  N2_7
REMARK    4  A    between atoms: N2_7  and  C3_10
REMARK    5  A    between atoms: C7_14  and  C8_15
REMARK    6  A    between atoms: C8_15  and  C9_16
REMARK    7  A    between atoms: C9_16  and  N3_17
ROOT
HETATM    1  C3  UNL     1      86.887  64.043   0.571  1.00  0.00     0.222 C
HETATM    2  C4  UNL     1      85.888  63.996  -0.606  1.00  0.00     0.217 C
HETATM    3  C5  UNL     1      85.774  65.482  -0.360  1.00  0.00     0.044 C
HETATM    4  C6  UNL     1      85.854  65.053   1.097  1.00  0.00     0.051 C
HETATM    5  C7  UNL     1      84.652  64.213   1.262  1.00  0.00     0.194 C
HETATM    6  N4  UNL     1      84.792  63.355   0.057  1.00  0.00    -0.064 N
ATOM      7  H41 UNL     1      84.912  62.359   0.238  1.00  0.00     0.278 HD
ATOM      8  H42 UNL     1      83.946  63.242  -0.503  1.00  0.00     0.278 HD
ENDROOT
BRANCH   1   9
HETATM    9  N2  UNL     1      88.158  64.613   0.259  1.00  0.00    -0.067 N
ATOM     10  H22 UNL     1      88.109  65.600   0.007  1.00  0.00     0.277 HD
ATOM     11  H21 UNL     1      88.547  64.277  -0.622  1.00  0.00     0.277 HD
BRANCH   9  12
HETATM   12  C2  UNL     1      89.022  64.349   1.416  1.00  0.00     0.260 C
BRANCH  12  13
HETATM   13  C1  UNL     1      89.401  65.669   2.081  1.00  0.00     0.257 C
BRANCH  13  14
HETATM   14  N1  UNL     1      90.482  65.383   3.005  1.00  0.00    -0.078 N
ATOM     15  H13 UNL     1      90.187  65.389   3.981  1.00  0.00     0.274 HD
ATOM     16  H12 UNL     1      90.793  64.412   2.970  1.00  0.00     0.274 HD
ATOM     17  H11 UNL     1      91.228  66.050   2.807  1.00  0.00     0.274 HD
ENDBRANCH  13  14
ENDBRANCH  12  13
ENDBRANCH   9  12
ENDBRANCH   1   9
BRANCH   5  18
HETATM   18  C8  UNL     1      83.334  64.927   1.045  1.00  0.00     0.060 C
BRANCH  18  19
HETATM   19  C9  UNL     1      82.978  65.592   2.381  1.00  0.00     0.231 C
BRANCH  19  20
HETATM   20  N3  UNL     1      82.705  67.005   2.047  1.00  0.00    -0.079 N
ATOM     21  H33 UNL     1      81.801  67.156   1.600  1.00  0.00     0.274 HD
ATOM     22  H32 UNL     1      82.533  67.595   2.861  1.00  0.00     0.274 HD
ATOM     23  H31 UNL     1      83.499  67.304   1.482  1.00  0.00     0.274 HD
ENDBRANCH  19  20
ENDBRANCH  18  19
ENDBRANCH   5  18
TORSDOF 7
ENDMDL