MODEL 5
REMARK VINA RESULT: -5.006549448      6.335      7.995
REMARK  8 active torsions:
REMARK  status: ('A' for Active; 'I' for Inactive)
REMARK    1  A    between atoms: N1_1  and  C1_4
REMARK    2  A    between atoms: C4_9  and  N3_10
REMARK    3  A    between atoms: N3_10  and  C5_12
REMARK    4  A    between atoms: C5_12  and  C6_13
REMARK    5  A    between atoms: C6_13  and  O1_14
REMARK    6  A    between atoms: O1_14  and  C7_15
REMARK    7  A    between atoms: C7_15  and  C8_16
REMARK    8  A    between atoms: C8_16  and  N4_17
ROOT
HETATM    1  C1  UNL     1      90.087  65.326   3.001  1.00  0.00     0.677 A
HETATM    2  N2  UNL     1      89.587  65.685   4.188  1.00  0.00    -0.202 N
ATOM      3  H2  UNL     1      90.069  65.361   5.027  1.00  0.00     0.183 HD
HETATM    4  C2  UNL     1      88.499  66.439   4.343  1.00  0.00     0.110 A
HETATM    5  C3  UNL     1      87.843  66.880   3.193  1.00  0.00     0.066 A
HETATM    6  C4  UNL     1      88.333  66.526   1.973  1.00  0.00     0.118 A
HETATM    7  N5  UNL     1      89.437  65.762   1.914  1.00  0.00    -0.177 N
ATOM      8  H5  UNL     1      89.798  65.501   0.997  1.00  0.00     0.185 HD
ENDROOT
BRANCH   6   9
HETATM    9  N3  UNL     1      87.793  66.887   0.893  1.00  0.00    -0.374 N
ATOM     10  H3  UNL     1      88.084  66.440   0.023  1.00  0.00     0.161 HD
BRANCH   9  11
HETATM   11  C5  UNL     1      86.783  67.907   0.844  1.00  0.00     0.147 C
BRANCH  11  12
HETATM   12  C6  UNL     1      85.729  67.501  -0.142  1.00  0.00     0.187 C
BRANCH  12  13
HETATM   13  O1  UNL     1      84.540  67.271   0.483  1.00  0.00    -0.388 OA
BRANCH  13  14
HETATM   14  C7  UNL     1      84.200  65.956   0.593  1.00  0.00     0.195 C
BRANCH  14  15
HETATM   15  C8  UNL     1      82.883  65.787   1.364  1.00  0.00     0.255 C
BRANCH  15  16
HETATM   16  N4  UNL     1      82.743  67.051   2.110  1.00  0.00    -0.077 N
ATOM     17  H43 UNL     1      82.491  66.934   3.092  1.00  0.00     0.274 HD
ATOM     18  H42 UNL     1      83.622  67.538   2.280  1.00  0.00     0.274 HD
ATOM     19  H41 UNL     1      82.065  67.586   1.566  1.00  0.00     0.274 HD
ENDBRANCH  15  16
ENDBRANCH  14  15
ENDBRANCH  13  14
ENDBRANCH  12  13
ENDBRANCH  11  12
ENDBRANCH   9  11
ENDBRANCH   6   9
BRANCH   1  20
HETATM   20  N1  UNL     1      91.137  64.599   2.952  1.00  0.00    -0.234 N
ATOM     21  H12 UNL     1      92.083  64.977   2.911  1.00  0.00     0.174 HD
ATOM     22  H11 UNL     1      91.047  63.583   2.954  1.00  0.00     0.174 HD
ENDBRANCH   1  20
TORSDOF 8
ENDMDL