MODEL 3
REMARK VINA RESULT: -5.046044165      2.274      3.652
REMARK  5 active torsions:
REMARK  status: ('A' for Active; 'I' for Inactive)
REMARK    1  A    between atoms: N1_2  and  C3_4
REMARK    2  A    between atoms: C3_4  and  C4_5
REMARK    3  A    between atoms: C4_5  and  N2_6
REMARK    4  A    between atoms: N2_6  and  C5_9
REMARK    5  A    between atoms: C5_9  and  C6_10
ROOT
HETATM    1  C6  UNL     1      87.446  62.416  -0.246  1.00  0.00     0.275 C
HETATM    2  N3  UNL     1      88.151  62.379  -1.503  1.00  0.00    -0.061 N
ATOM      3  H31 UNL     1      88.685  61.518  -1.613  1.00  0.00     0.278 HD
ATOM      4  H32 UNL     1      88.925  63.043  -1.523  1.00  0.00     0.278 HD
HETATM    5  C7  UNL     1      87.222  62.590  -2.614  1.00  0.00     0.253 C
HETATM    6  C8  UNL     1      85.785  62.368  -2.207  1.00  0.00     0.148 C
HETATM    7  N4  UNL     1      85.722  61.242  -1.304  1.00  0.00    -0.379 N
ATOM      8  H4  UNL     1      85.052  60.488  -1.457  1.00  0.00     0.160 HD
HETATM    9  C9  UNL     1      86.536  61.210  -0.294  1.00  0.00     0.121 C
HETATM   10  N5  UNL     1      86.602  60.184   0.667  1.00  0.00    -0.086 NA
ENDROOT
BRANCH   1  11
HETATM   11  C5  UNL     1      88.319  62.458   0.942  1.00  0.00     0.272 C
BRANCH  11  12
HETATM   12  N2  UNL     1      89.691  62.613   0.558  1.00  0.00    -0.071 N
ATOM     13  H22 UNL     1      89.809  62.454  -0.442  1.00  0.00     0.277 HD
ATOM     14  H21 UNL     1      90.259  61.846   0.918  1.00  0.00     0.277 HD
BRANCH  12  15
HETATM   15  C4  UNL     1      90.251  63.901   0.949  1.00  0.00     0.251 C
BRANCH  15  16
HETATM   16  C3  UNL     1      89.944  64.225   2.380  1.00  0.00     0.143 C
BRANCH  16  17
HETATM   17  N1  UNL     1      89.672  65.621   2.527  1.00  0.00    -0.419 N
HETATM   18  C1  UNL     1      89.052  66.241   1.399  1.00  0.00     0.142 C
HETATM   19  C2  UNL     1      89.123  65.972   3.807  1.00  0.00     0.142 C
ENDBRANCH  16  17
ENDBRANCH  15  16
ENDBRANCH  12  15
ENDBRANCH  11  12
ENDBRANCH   1  11
TORSDOF 5
ENDMDL