MODEL 1
REMARK VINA RESULT: -4.827949033      0.000      0.000
REMARK  7 active torsions:
REMARK  status: ('A' for Active; 'I' for Inactive)
REMARK    1  A    between atoms: C2_7  and  C3_8
REMARK    2  A    between atoms: C3_8  and  C4_9
REMARK    3  A    between atoms: C4_9  and  C5_10
REMARK    4  A    between atoms: C5_10  and  N3_11
REMARK    5  A    between atoms: N4_16  and  C7_17
REMARK    6  A    between atoms: C7_17  and  C8_18
REMARK    7  A    between atoms: C8_18  and  N5_19
ROOT
HETATM    1  N1  UNL     1      86.383  60.636  -0.082  1.00  0.00    -0.371 N
ATOM      2  H11 UNL     1      85.507  60.599  -0.603  1.00  0.00     0.159 HD
ATOM      3  H12 UNL     1      86.647  59.689   0.191  1.00  0.00     0.159 HD
HETATM    4  C1  UNL     1      87.054  61.730   0.189  1.00  0.00     0.171 C
HETATM    5  N2  UNL     1      88.288  61.783   0.923  1.00  0.00    -0.356 N
ATOM      6  H2  UNL     1      88.819  60.997   1.299  1.00  0.00     0.163 HD
HETATM    7  C2  UNL     1      88.617  63.188   1.012  1.00  0.00     0.102 C
HETATM    8  C6  UNL     1      87.968  63.746  -0.234  1.00  0.00     0.151 C
HETATM    9  N4  UNL     1      86.685  63.052  -0.192  1.00  0.00    -0.350 N
ENDROOT
BRANCH   7  10
HETATM   10  C3  UNL     1      90.096  63.428   1.073  1.00  0.00     0.028 C
BRANCH  10  11
HETATM   11  C4  UNL     1      90.593  63.880   2.407  1.00  0.00     0.029 C
BRANCH  11  12
HETATM   12  C5  UNL     1      89.836  65.169   2.748  1.00  0.00     0.230 C
BRANCH  12  13
HETATM   13  N3  UNL     1      89.831  65.325   4.189  1.00  0.00    -0.079 N
ATOM     14  H33 UNL     1      88.892  65.435   4.570  1.00  0.00     0.274 HD
ATOM     15  H32 UNL     1      90.080  64.465   4.678  1.00  0.00     0.274 HD
ATOM     16  H31 UNL     1      90.445  66.105   4.427  1.00  0.00     0.274 HD
ENDBRANCH  12  13
ENDBRANCH  11  12
ENDBRANCH  10  11
ENDBRANCH   7  10
BRANCH   9  17
HETATM   17  C7  UNL     1      85.360  63.498  -0.451  1.00  0.00     0.153 C
BRANCH  17  18
HETATM   18  C8  UNL     1      84.737  64.299   0.672  1.00  0.00     0.249 C
BRANCH  18  19
HETATM   19  N5  UNL     1      84.137  63.479   1.694  1.00  0.00    -0.078 N
ATOM     20  H53 UNL     1      83.131  63.640   1.742  1.00  0.00     0.274 HD
ATOM     21  H52 UNL     1      84.137  62.497   1.417  1.00  0.00     0.274 HD
ATOM     22  H51 UNL     1      84.566  63.598   2.612  1.00  0.00     0.274 HD
ENDBRANCH  18  19
ENDBRANCH  17  18
ENDBRANCH   9  17
TORSDOF 7
ENDMDL