MODEL 1
REMARK VINA RESULT: -5.364778163      0.000      0.000
REMARK  6 active torsions:
REMARK  status: ('A' for Active; 'I' for Inactive)
REMARK    1  A    between atoms: N1_2  and  C2_5
REMARK    2  A    between atoms: C2_5  and  C3_6
REMARK    3  A    between atoms: C3_6  and  N2_7
REMARK    4  A    between atoms: C6_11  and  C7_12
REMARK    5  A    between atoms: C7_12  and  C8_13
REMARK    6  A    between atoms: C8_13  and  N3_14
ROOT
HETATM    1  N2  UNL     1      89.596  72.209   2.556  1.00  0.00    -0.375 N
ATOM      2  H2  UNL     1      88.751  71.661   2.719  1.00  0.00     0.161 HD
HETATM    3  C4  UNL     1      90.133  72.224   1.387  1.00  0.00     0.103 A
HETATM    4  C5  UNL     1      89.522  71.482   0.406  1.00  0.00     0.073 A
HETATM    5  C6  UNL     1      90.037  71.450  -0.877  1.00  0.00     0.015 A
HETATM    6  N4  UNL     1      91.146  72.163  -1.125  1.00  0.00    -0.356 N
ATOM      7  H4  UNL     1      91.548  72.158  -2.062  1.00  0.00     0.166 HD
HETATM    8  C9  UNL     1      91.734  72.884  -0.157  1.00  0.00     0.182 A
HETATM    9  N5  UNL     1      91.240  72.923   1.097  1.00  0.00    -0.339 N
ATOM     10  H5  UNL     1      91.704  73.478   1.817  1.00  0.00     0.168 HD
ENDROOT
BRANCH   1  11
HETATM   11  C3  UNL     1      90.180  72.961   3.629  1.00  0.00     0.148 C
BRANCH  11  12
HETATM   12  C2  UNL     1      89.241  74.139   3.930  1.00  0.00     0.251 C
BRANCH  12  13
HETATM   13  N1  UNL     1      88.204  73.637   4.801  1.00  0.00    -0.077 N
HETATM   14  C1  UNL     1      88.619  73.680   6.173  1.00  0.00     0.267 C
ATOM     15  H12 UNL     1      87.905  72.701   4.528  1.00  0.00     0.276 HD
ATOM     16  H11 UNL     1      87.322  74.129   4.659  1.00  0.00     0.276 HD
ENDBRANCH  12  13
ENDBRANCH  11  12
ENDBRANCH   1  11
BRANCH   5  17
HETATM   17  C7  UNL     1      89.332  70.628  -1.895  1.00  0.00     0.084 C
BRANCH  17  18
HETATM   18  C8  UNL     1      88.042  70.150  -1.273  1.00  0.00     0.235 C
BRANCH  18  19
HETATM   19  N3  UNL     1      86.919  70.923  -1.769  1.00  0.00    -0.079 N
ATOM     20  H33 UNL     1      87.219  71.657  -2.410  1.00  0.00     0.274 HD
ATOM     21  H32 UNL     1      86.343  70.383  -2.414  1.00  0.00     0.274 HD
ATOM     22  H31 UNL     1      86.371  71.298  -0.994  1.00  0.00     0.274 HD
ENDBRANCH  18  19
ENDBRANCH  17  18
ENDBRANCH   5  17
TORSDOF 6
ENDMDL