MODEL 1
REMARK VINA RESULT: -5.018179331      0.000      0.000
REMARK  9 active torsions:
REMARK  status: ('A' for Active; 'I' for Inactive)
REMARK    1  A    between atoms: N1_1  and  C1_4
REMARK    2  A    between atoms: C3_8  and  C4_9
REMARK    3  A    between atoms: C4_9  and  C5_10
REMARK    4  A    between atoms: C5_10  and  C6_11
REMARK    5  A    between atoms: C6_11  and  N3_12
REMARK    6  A    between atoms: N4_16  and  C7_17
REMARK    7  A    between atoms: C7_17  and  C8_18
REMARK    8  A    between atoms: C8_18  and  N5_19
REMARK    9  A    between atoms: N5_19  and  N6_21
ROOT
HETATM    1  C1  UNL     1      90.039  65.291   3.111  1.00  0.00     0.682 A
HETATM    2  N2  UNL     1      89.616  65.716   4.292  1.00  0.00    -0.200 N
ATOM      3  H2  UNL     1      90.056  65.533   5.195  1.00  0.00     0.183 HD
HETATM    4  C2  UNL     1      88.503  66.431   4.078  1.00  0.00     0.132 A
HETATM    5  C3  UNL     1      88.240  66.444   2.749  1.00  0.00     0.050 A
HETATM    6  N4  UNL     1      89.205  65.730   2.156  1.00  0.00    -0.152 N
ENDROOT
BRANCH   5   7
HETATM    7  C4  UNL     1      87.091  67.130   2.108  1.00  0.00     0.061 C
BRANCH   7   8
HETATM    8  C5  UNL     1      85.795  66.373   2.350  1.00  0.00     0.033 C
BRANCH   8   9
HETATM    9  C6  UNL     1      84.913  67.123   3.337  1.00  0.00     0.230 C
BRANCH   9  10
HETATM   10  N3  UNL     1      83.598  67.351   2.814  1.00  0.00    -0.079 N
ATOM     11  H33 UNL     1      83.289  68.307   2.990  1.00  0.00     0.274 HD
ATOM     12  H32 UNL     1      83.603  67.369   1.794  1.00  0.00     0.274 HD
ATOM     13  H31 UNL     1      82.924  66.672   3.169  1.00  0.00     0.274 HD
ENDBRANCH   9  10
ENDBRANCH   8   9
ENDBRANCH   7   8
ENDBRANCH   5   7
BRANCH   6  14
HETATM   14  C7  UNL     1      89.372  65.453   0.792  1.00  0.00     0.191 C
BRANCH  14  15
HETATM   15  C8  UNL     1      89.093  64.214   0.408  1.00  0.00    -0.008 C
BRANCH  15  16
HETATM   16  N5  UNL     1      89.032  62.986   0.079  1.00  0.00    -0.271 N
ATOM     17  H5  UNL     1      88.958  62.692  -0.895  1.00  0.00     0.196 HD
BRANCH  16  18
HETATM   18  N6  UNL     1      89.071  62.052   1.144  1.00  0.00    -0.338 N
ATOM     19  H62 UNL     1      88.281  61.948   1.782  1.00  0.00     0.177 HD
ATOM     20  H61 UNL     1      89.926  61.503   1.228  1.00  0.00     0.177 HD
ENDBRANCH  16  18
ENDBRANCH  15  16
ENDBRANCH  14  15
ENDBRANCH   6  14
BRANCH   1  21
HETATM   21  N1  UNL     1      91.115  64.556   2.957  1.00  0.00    -0.234 N
ATOM     22  H12 UNL     1      91.170  63.540   2.903  1.00  0.00     0.174 HD
ATOM     23  H11 UNL     1      92.051  64.952   2.871  1.00  0.00     0.174 HD
ENDBRANCH   1  21
TORSDOF 9
ENDMDL