MODEL 1
REMARK VINA RESULT: -4.713836683      0.000      0.000
REMARK  7 active torsions:
REMARK  status: ('A' for Active; 'I' for Inactive)
REMARK    1  A    between atoms: N1_2  and  C2_3
REMARK    2  A    between atoms: N1_2  and  C4_9
REMARK    3  A    between atoms: C2_3  and  C3_4
REMARK    4  A    between atoms: C3_4  and  N2_5
REMARK    5  A    between atoms: C4_9  and  C5_10
REMARK    6  A    between atoms: C5_10  and  N3_11
REMARK    7  A    between atoms: N3_11  and  C6_13
ROOT
HETATM    1  C5  UNL     1      90.419  63.737   1.169  1.00  0.00     0.152 C
ENDROOT
BRANCH   1   2
HETATM    2  C4  UNL     1      89.317  62.771   1.517  1.00  0.00     0.291 C
BRANCH   2   3
HETATM    3  N1  UNL     1      88.111  62.989   0.778  1.00  0.00     0.087 N
HETATM    4  C1  UNL     1      88.295  63.880  -0.352  1.00  0.00     0.310 C
BRANCH   3   5
HETATM    5  C2  UNL     1      87.504  61.750   0.390  1.00  0.00     0.299 C
BRANCH   5   6
HETATM    6  C3  UNL     1      86.999  61.700  -1.002  1.00  0.00     0.259 C
BRANCH   6   7
HETATM    7  N2  UNL     1      85.705  61.038  -1.057  1.00  0.00    -0.078 N
ATOM      8  H23 UNL     1      85.800  60.042  -1.251  1.00  0.00     0.274 HD
ATOM      9  H22 UNL     1      85.274  60.975  -0.134  1.00  0.00     0.274 HD
ATOM     10  H21 UNL     1      85.092  61.498  -1.730  1.00  0.00     0.274 HD
ENDBRANCH   6   7
ENDBRANCH   5   6
ENDBRANCH   3   5
ENDBRANCH   2   3
ENDBRANCH   1   2
BRANCH   1  11
HETATM   11  N3  UNL     1      90.851  64.514   2.312  1.00  0.00    -0.361 N
ATOM     12  H3  UNL     1      91.801  64.438   2.674  1.00  0.00     0.162 HD
BRANCH  11  13
HETATM   13  C6  UNL     1      89.891  65.399   2.919  1.00  0.00     0.171 C
HETATM   14  N4  UNL     1      89.630  65.496   4.166  1.00  0.00    -0.361 N
HETATM   15  C7  UNL     1      88.611  66.486   4.437  1.00  0.00     0.142 C
ATOM     16  H4  UNL     1      90.087  64.938   4.887  1.00  0.00     0.162 HD
HETATM   17  C8  UNL     1      88.086  66.878   3.094  1.00  0.00     0.142 C
HETATM   18  N5  UNL     1      89.086  66.304   2.196  1.00  0.00    -0.361 N
ATOM     19  H5  UNL     1      89.185  66.522   1.205  1.00  0.00     0.162 HD
ENDBRANCH  11  13
ENDBRANCH   1  11
TORSDOF 7
ENDMDL