MODEL 1
REMARK VINA RESULT: -4.810278732      0.000      0.000
REMARK  8 active torsions:
REMARK  status: ('A' for Active; 'I' for Inactive)
REMARK    1  A    between atoms: N1_1  and  C1_5
REMARK    2  A    between atoms: C1_5  and  C2_6
REMARK    3  A    between atoms: C2_6  and  C3_7
REMARK    4  A    between atoms: C3_7  and  N2_8
REMARK    5  A    between atoms: N2_8  and  C4_10
REMARK    6  A    between atoms: C4_10  and  C5_11
REMARK    7  A    between atoms: C5_11  and  N3_12
REMARK    8  A    between atoms: C8_15  and  N4_16
ROOT
HETATM    1  C4  UNL     1      87.672  69.972   0.499  1.00  0.00     0.098 C
ENDROOT
BRANCH   1   2
HETATM    2  N2  UNL     1      88.589  70.885   1.028  1.00  0.00    -0.378 N
ATOM      3  H2  UNL     1      88.500  71.209   1.992  1.00  0.00     0.164 HD
BRANCH   2   4
HETATM    4  C3  UNL     1      89.638  71.349   0.210  1.00  0.00     0.062 C
BRANCH   4   5
HETATM    5  C2  UNL     1      90.503  72.430   0.802  1.00  0.00     0.072 C
BRANCH   5   6
HETATM    6  C1  UNL     1      90.270  72.574   2.293  1.00  0.00     0.234 C
BRANCH   6   7
HETATM    7  N1  UNL     1      91.474  72.264   3.035  1.00  0.00    -0.079 N
ATOM      8  H13 UNL     1      92.300  72.281   2.438  1.00  0.00     0.274 HD
ATOM      9  H12 UNL     1      91.728  73.018   3.673  1.00  0.00     0.274 HD
ATOM     10  H11 UNL     1      91.380  71.373   3.524  1.00  0.00     0.274 HD
ENDBRANCH   6   7
ENDBRANCH   5   6
ENDBRANCH   4   5
ENDBRANCH   2   4
ENDBRANCH   1   2
BRANCH   1  11
HETATM   11  C5  UNL     1      87.453  68.691   1.208  1.00  0.00     0.076 C
BRANCH  11  12
HETATM   12  N3  UNL     1      86.174  68.231   1.484  1.00  0.00    -0.289 NA
HETATM   13  C6  UNL     1      85.410  67.434   0.657  1.00  0.00     0.097 C
HETATM   14  C7  UNL     1      85.111  66.126   1.402  1.00  0.00     0.049 C
HETATM   15  C8  UNL     1      85.066  66.618   2.830  1.00  0.00     0.198 C
HETATM   16  C9  UNL     1      86.146  67.671   2.842  1.00  0.00     0.127 C
BRANCH  15  17
HETATM   17  N4  UNL     1      83.755  67.169   3.161  1.00  0.00    -0.074 N
ATOM     18  H43 UNL     1      83.538  67.986   2.590  1.00  0.00     0.274 HD
ATOM     19  H42 UNL     1      83.003  66.555   2.850  1.00  0.00     0.274 HD
ATOM     20  H41 UNL     1      83.681  67.378   4.156  1.00  0.00     0.274 HD
ENDBRANCH  15  17
ENDBRANCH  11  12
ENDBRANCH   1  11
TORSDOF 8
ENDMDL