MODEL 1
REMARK VINA RESULT: -5.694202736      0.000      0.000
REMARK  7 active torsions:
REMARK  status: ('A' for Active; 'I' for Inactive)
REMARK    1  A    between atoms: C2_2  and  C3_3
REMARK    2  A    between atoms: C3_3  and  N1_4
REMARK    3  A    between atoms: C4_7  and  N3_8
REMARK    4  A    between atoms: N3_8  and  C5_10
REMARK    5  A    between atoms: C5_10  and  C6_11
REMARK    6  A    between atoms: C6_11  and  C7_12
REMARK    7  A    between atoms: C7_12  and  N4_13
ROOT
HETATM    1  N1  UNL     1      89.832  71.941   1.279  1.00  0.00    -0.106 N
HETATM    2  N2  UNL     1      89.346  71.924   2.527  1.00  0.00    -0.115 N
ATOM      3  H2  UNL     1      88.567  71.349   2.849  1.00  0.00     0.206 HD
HETATM    4  C4  UNL     1      90.043  72.779   3.287  1.00  0.00     0.707 A
HETATM    5  N5  UNL     1      90.966  73.315   2.462  1.00  0.00    -0.020 N
ATOM      6  H5  UNL     1      91.660  74.010   2.741  1.00  0.00     0.203 HD
HETATM    7  C8  UNL     1      90.847  72.807   1.222  1.00  0.00     0.708 A
HETATM    8  N6  UNL     1      91.533  73.059   0.159  1.00  0.00    -0.233 N
ATOM      9  H61 UNL     1      92.308  73.721   0.116  1.00  0.00     0.174 HD
ATOM     10  H62 UNL     1      91.442  72.674  -0.781  1.00  0.00     0.174 HD
ENDROOT
BRANCH   4  11
HETATM   11  N3  UNL     1      89.846  73.013   4.538  1.00  0.00    -0.224 N
ATOM     12  H3  UNL     1      90.577  72.817   5.221  1.00  0.00     0.177 HD
BRANCH  11  13
HETATM   13  C5  UNL     1      88.583  73.553   4.957  1.00  0.00     0.140 C
BRANCH  13  14
HETATM   14  C6  UNL     1      88.613  74.025   6.396  1.00  0.00     0.047 C
BRANCH  14  15
HETATM   15  C7  UNL     1      89.409  73.082   7.253  1.00  0.00     0.231 C
BRANCH  15  16
HETATM   16  N4  UNL     1      89.694  73.778   8.506  1.00  0.00    -0.079 N
ATOM     17  H43 UNL     1      90.469  73.365   9.026  1.00  0.00     0.274 HD
ATOM     18  H42 UNL     1      90.108  74.700   8.367  1.00  0.00     0.274 HD
ATOM     19  H41 UNL     1      88.825  73.805   9.038  1.00  0.00     0.274 HD
ENDBRANCH  15  16
ENDBRANCH  14  15
ENDBRANCH  13  14
ENDBRANCH  11  13
ENDBRANCH   4  11
BRANCH   1  20
HETATM   20  C3  UNL     1      89.307  71.126   0.180  1.00  0.00     0.195 C
BRANCH  20  21
HETATM   21  C2  UNL     1      88.177  70.347   0.734  1.00  0.00    -0.015 C
HETATM   22  C1  UNL     1      87.488  69.568  -0.080  1.00  0.00     0.008 C
ENDBRANCH  20  21
ENDBRANCH   1  20
TORSDOF 7
ENDMDL