MODEL 5
REMARK VINA RESULT: -7.419972325      1.417      2.343
REMARK  4 active torsions:
REMARK  status: ('A' for Active; 'I' for Inactive)
REMARK    1  A    between atoms: C3_3  and  C4_4
REMARK    2  A    between atoms: C4_4  and  C5_5
REMARK    3  A    between atoms: C6_6  and  O1_7
REMARK    4  A    between atoms: O1_7  and  C7_8
ROOT
HETATM    1  C5  UNL     1      -1.779  -0.260   6.465  1.00  0.00     0.001 C
HETATM    2  C6  UNL     1      -1.326  -1.076   5.551  1.00  0.00     0.131 C
ENDROOT
BRANCH   2   3
HETATM    3  O1  UNL     1      -0.362  -0.648   4.640  1.00  0.00    -0.358 OA
BRANCH   3   4
HETATM    4  C7  UNL     1      -0.630  -0.288   3.319  1.00  0.00     0.127 C
HETATM    5  C8  UNL     1      -1.950  -0.941   2.928  1.00  0.00     0.032 C
HETATM    6  C9  UNL     1      -2.727   0.177   2.245  1.00  0.00     0.002 C
HETATM    7  C10 UNL     1      -2.313   1.368   3.119  1.00  0.00     0.002 C
HETATM    8  C11 UNL     1      -0.809   1.190   3.134  1.00  0.00     0.032 C
ENDBRANCH   3   4
ENDBRANCH   2   3
BRANCH   1   9
HETATM    9  C4  UNL     1      -2.793  -0.687   7.435  1.00  0.00     0.056 C
BRANCH   9  10
HETATM   10  C3  UNL     1      -3.067   0.311   8.482  1.00  0.00    -0.027 C
HETATM   11  C2  UNL     1      -2.107   1.073   8.954  1.00  0.00    -0.035 C
HETATM   12  C1  UNL     1      -2.396   2.075  10.009  1.00  0.00     0.036 C
ENDBRANCH   9  10
ENDBRANCH   1   9
TORSDOF 4
ENDMDL