MODEL 1
REMARK VINA RESULT: -7.154003873      0.000      0.000
REMARK  5 active torsions:
REMARK  status: ('A' for Active; 'I' for Inactive)
REMARK    1  A    between atoms: C2_2  and  C3_3
REMARK    2  A    between atoms: C3_3  and  C4_4
REMARK    3  A    between atoms: C4_4  and  C5_5
REMARK    4  A    between atoms: C5_5  and  C6_7
REMARK    5  A    between atoms: C6_7  and  C7_8
ROOT
HETATM    1  C5  UNL     1      -2.621   0.730   2.908  1.00  0.00     0.131 C
HETATM    2  O1  UNL     1      -2.887   0.288   1.835  1.00  0.00    -0.298 OA
ENDROOT
BRANCH   1   3
HETATM    3  C4  UNL     1      -3.327   0.371   4.134  1.00  0.00     0.078 C
BRANCH   3   4
HETATM    4  C3  UNL     1      -3.006  -0.972   4.686  1.00  0.00     0.007 C
BRANCH   4   5
HETATM    5  C2  UNL     1      -2.230  -0.950   5.976  1.00  0.00    -0.004 C
HETATM    6  C1  UNL     1      -2.416   0.406   6.678  1.00  0.00     0.005 C
ENDBRANCH   4   5
ENDBRANCH   3   4
ENDBRANCH   1   3
BRANCH   1   7
HETATM    7  C6  UNL     1      -1.486   1.715   2.979  1.00  0.00     0.116 C
BRANCH   7   8
HETATM    8  C7  UNL     1      -0.267   1.078   3.600  1.00  0.00    -0.055 A
HETATM    9  C8  UNL     1       0.399   1.561   4.629  1.00  0.00    -0.015 A
HETATM   10  C9  UNL     1       1.514   0.632   4.909  1.00  0.00     0.054 A
HETATM   11  C10 UNL     1       1.359  -0.421   3.887  1.00  0.00    -0.022 A
HETATM   12  C11 UNL     1       0.317  -0.164   3.119  1.00  0.00     0.003 A
ENDBRANCH   7   8
ENDBRANCH   1   7
TORSDOF 5
ENDMDL