MODEL 1
REMARK VINA RESULT: -7.272178872      0.000      0.000
REMARK  5 active torsions:
REMARK  status: ('A' for Active; 'I' for Inactive)
REMARK    1  A    between atoms: C2_2  and  C3_3
REMARK    2  A    between atoms: C3_3  and  C4_4
REMARK    3  A    between atoms: C4_4  and  O1_5
REMARK    4  A    between atoms: C4_4  and  C7_8
REMARK    5  A    between atoms: O1_5  and  C5_6
ROOT
HETATM    1  C4  UNL     1      -2.045  -0.084   6.471  1.00  0.00     0.120 C
ENDROOT
BRANCH   1   2
HETATM    2  C3  UNL     1      -2.631   0.383   7.560  1.00  0.00    -0.092 C
BRANCH   2   3
HETATM    3  C2  UNL     1      -3.230   0.863   8.676  1.00  0.00     0.048 C
HETATM    4  C1  UNL     1      -2.439   1.549   9.562  1.00  0.00     0.020 C
ENDBRANCH   2   3
ENDBRANCH   1   2
BRANCH   1   5
HETATM    5  O1  UNL     1      -1.558  -1.354   6.572  1.00  0.00    -0.343 OA
BRANCH   5   6
HETATM    6  C5  UNL     1      -0.583  -2.211   6.771  1.00  0.00     0.172 C
HETATM    7  C6  UNL     1       0.644  -1.545   7.452  1.00  0.00     0.034 C
ENDBRANCH   5   6
ENDBRANCH   1   5
BRANCH   1   8
HETATM    8  C7  UNL     1      -1.900   0.664   5.222  1.00  0.00    -0.020 C
HETATM    9  C8  UNL     1      -0.701   1.125   4.807  1.00  0.00    -0.016 C
HETATM   10  C9  UNL     1      -0.846   1.859   3.522  1.00  0.00     0.028 C
HETATM   11  C10 UNL     1      -2.020   1.125   2.926  1.00  0.00     0.009 C
HETATM   12  C11 UNL     1      -2.891   1.042   4.191  1.00  0.00     0.042 C
ENDBRANCH   1   8
TORSDOF 5
ENDMDL