MODEL 3
REMARK VINA RESULT: -6.986452380      0.785      1.254
REMARK  5 active torsions:
REMARK  status: ('A' for Active; 'I' for Inactive)
REMARK    1  A    between atoms: C2_2  and  C4_4
REMARK    2  A    between atoms: C4_4  and  O1_7
REMARK    3  A    between atoms: O1_7  and  C7_8
REMARK    4  A    between atoms: C7_8  and  C8_9
REMARK    5  A    between atoms: C8_9  and  C9_10
ROOT
HETATM    1  C4  UNL     1      -1.020  -0.291   3.613  1.00  0.00     0.069 C
HETATM    2  C5  UNL     1      -1.716   0.297   2.662  1.00  0.00     0.006 C
HETATM    3  C6  UNL     1      -3.036  -0.157   2.177  1.00  0.00     0.039 C
ENDROOT
BRANCH   1   4
HETATM    4  C2  UNL     1       0.279   0.262   4.001  1.00  0.00    -0.038 C
HETATM    5  C1  UNL     1       1.383  -0.405   3.764  1.00  0.00     0.021 C
HETATM    6  C3  UNL     1       0.376   1.597   4.673  1.00  0.00     0.050 C
ENDBRANCH   1   4
BRANCH   1   7
HETATM    7  O1  UNL     1      -1.472  -1.423   4.264  1.00  0.00    -0.351 OA
BRANCH   7   8
HETATM    8  C7  UNL     1      -1.513  -1.407   5.676  1.00  0.00     0.176 C
BRANCH   8   9
HETATM    9  C8  UNL     1      -2.664  -0.577   6.198  1.00  0.00     0.030 C
BRANCH   9  10
HETATM   10  C9  UNL     1      -2.126   0.392   7.234  1.00  0.00    -0.021 C
HETATM   11  C10 UNL     1      -3.089   0.532   8.399  1.00  0.00     0.009 C
HETATM   12  C11 UNL     1      -0.821  -0.132   7.814  1.00  0.00     0.009 C
ENDBRANCH   9  10
ENDBRANCH   8   9
ENDBRANCH   7   8
ENDBRANCH   1   7
TORSDOF 5
ENDMDL