MODEL 4
REMARK VINA RESULT: -7.222682815      1.856      4.167
REMARK  5 active torsions:
REMARK  status: ('A' for Active; 'I' for Inactive)
REMARK    1  A    between atoms: C2_2  and  C4_4
REMARK    2  A    between atoms: C4_4  and  C7_7
REMARK    3  A    between atoms: C7_7  and  C8_9
REMARK    4  A    between atoms: C8_9  and  C9_10
REMARK    5  A    between atoms: C9_10  and  C10_11
ROOT
HETATM    1  C4  UNL     1      -1.326  -0.491   6.986  1.00  0.00     0.011 C
HETATM    2  C5  UNL     1      -1.858  -0.084   8.164  1.00  0.00    -0.015 C
HETATM    3  C6  UNL     1      -3.056   0.709   8.354  1.00  0.00     0.037 C
ENDROOT
BRANCH   1   4
HETATM    4  C2  UNL     1      -0.099  -1.291   7.064  1.00  0.00    -0.058 C
HETATM    5  C1  UNL     1       1.078  -0.892   7.353  1.00  0.00     0.019 C
HETATM    6  C3  UNL     1      -0.223  -2.785   6.770  1.00  0.00     0.048 C
ENDBRANCH   1   4
BRANCH   1   7
HETATM    7  C7  UNL     1      -2.012  -0.108   5.779  1.00  0.00     0.159 C
HETATM    8  O1  UNL     1      -2.908  -0.931   5.328  1.00  0.00    -0.292 OA
BRANCH   7   9
HETATM    9  C8  UNL     1      -1.866   1.087   4.950  1.00  0.00     0.084 C
BRANCH   9  10
HETATM   10  C9  UNL     1      -0.453   1.324   4.430  1.00  0.00     0.007 C
BRANCH  10  11
HETATM   11  C10 UNL     1      -0.037   0.367   3.365  1.00  0.00    -0.004 C
HETATM   12  C11 UNL     1       1.259  -0.349   3.702  1.00  0.00     0.005 C
ENDBRANCH  10  11
ENDBRANCH   9  10
ENDBRANCH   7   9
ENDBRANCH   1   7
TORSDOF 5
ENDMDL