MODEL 5
REMARK VINA RESULT: -5.442127973      0.416      2.020
REMARK  0 active torsions:
REMARK  status: ('A' for Active; 'I' for Inactive)
ROOT
HETATM    1  C1  UNL     1       0.235   1.678   4.769  1.00  0.00    -0.030 C
HETATM    2  C2  UNL     1       1.124   0.717   4.580  1.00  0.00    -0.030 C
HETATM    3  C3  UNL     1       0.863  -0.486   3.751  1.00  0.00     0.026 C
HETATM    4  C4  UNL     1      -0.377  -0.424   2.917  1.00  0.00     0.004 C
HETATM    5  C5  UNL     1      -0.734   1.031   2.699  1.00  0.00     0.004 C
HETATM    6  C6  UNL     1      -1.088   1.527   4.109  1.00  0.00     0.026 C
ENDROOT
TORSDOF 0
ENDMDL