MODEL 3
REMARK VINA RESULT: -7.297986545      2.121      3.219
REMARK  6 active torsions:
REMARK  status: ('A' for Active; 'I' for Inactive)
REMARK    1  A    between atoms: C2_2  and  C3_3
REMARK    2  A    between atoms: C3_3  and  C5_5
REMARK    3  A    between atoms: C5_5  and  C6_6
REMARK    4  A    between atoms: C6_6  and  C8_8
REMARK    5  A    between atoms: C8_8  and  C9_9
REMARK    6  A    between atoms: C9_9  and  C10_10
ROOT
HETATM    1  C6  UNL     1      -0.426   0.968   4.290  1.00  0.00    -0.083 C
HETATM    2  C7  UNL     1       0.739   0.105   3.684  1.00  0.00     0.043 C
ENDROOT
BRANCH   1   3
HETATM    3  C5  UNL     1      -0.461   0.968   5.534  1.00  0.00     0.009 C
BRANCH   3   4
HETATM    4  C3  UNL     1      -1.149   0.443   6.662  1.00  0.00    -0.063 C
HETATM    5  C4  UNL     1      -0.328  -0.371   7.500  1.00  0.00     0.048 C
BRANCH   4   6
HETATM    6  C2  UNL     1      -2.463   0.484   7.181  1.00  0.00    -0.004 C
HETATM    7  C1  UNL     1      -2.980   0.483   8.362  1.00  0.00     0.012 C
ENDBRANCH   4   6
ENDBRANCH   3   4
ENDBRANCH   1   3
BRANCH   1   8
HETATM    8  C8  UNL     1      -1.168   1.637   3.256  1.00  0.00     0.041 C
BRANCH   8   9
HETATM    9  C9  UNL     1      -2.671   1.453   3.345  1.00  0.00     0.082 C
BRANCH   9  10
HETATM   10  C10 UNL     1      -3.076   0.076   2.965  1.00  0.00     0.123 C
HETATM   11  C11 UNL     1      -3.437  -0.939   3.983  1.00  0.00     0.091 C
HETATM   12  O1  UNL     1      -3.115  -0.243   1.795  1.00  0.00    -0.298 OA
ENDBRANCH   9  10
ENDBRANCH   8   9
ENDBRANCH   1   8
TORSDOF 6
ENDMDL