MODEL 4
REMARK VINA RESULT: -6.771518479      2.123      4.246
REMARK  5 active torsions:
REMARK  status: ('A' for Active; 'I' for Inactive)
REMARK    1  A    between atoms: C2_2  and  C4_4
REMARK    2  A    between atoms: C4_4  and  C7_7
REMARK    3  A    between atoms: C7_7  and  C8_8
REMARK    4  A    between atoms: C8_8  and  C9_9
REMARK    5  A    between atoms: C9_9  and  C10_11
ROOT
HETATM    1  C4  UNL     1      -1.060   0.259   6.338  1.00  0.00    -0.057 C
HETATM    2  C5  UNL     1      -2.138   0.581   6.954  1.00  0.00    -0.023 C
HETATM    3  C6  UNL     1      -2.839  -0.051   8.076  1.00  0.00     0.036 C
ENDROOT
BRANCH   1   4
HETATM    4  C2  UNL     1      -0.236  -0.880   6.628  1.00  0.00    -0.065 C
HETATM    5  C1  UNL     1      -0.585  -2.079   6.111  1.00  0.00     0.019 C
HETATM    6  C3  UNL     1       0.981  -0.888   7.465  1.00  0.00     0.048 C
ENDBRANCH   1   4
BRANCH   1   7
HETATM    7  C7  UNL     1      -0.568   1.138   5.213  1.00  0.00     0.046 C
BRANCH   7   8
HETATM    8  C8  UNL     1      -1.606   1.409   4.179  1.00  0.00     0.082 C
BRANCH   8   9
HETATM    9  C9  UNL     1      -1.325   0.512   3.024  1.00  0.00     0.126 C
HETATM   10  O1  UNL     1      -0.494   0.819   2.196  1.00  0.00    -0.298 OA
BRANCH   9  11
HETATM   11  C10 UNL     1      -2.043  -0.784   2.838  1.00  0.00     0.074 C
HETATM   12  C11 UNL     1      -3.286  -0.852   3.687  1.00  0.00     0.013 C
ENDBRANCH   9  11
ENDBRANCH   8   9
ENDBRANCH   7   8
ENDBRANCH   1   7
TORSDOF 5
ENDMDL