MODEL 2
REMARK VINA RESULT: -8.265984361      2.044      3.182
REMARK  10 active torsions:
REMARK  status: ('A' for Active; 'I' for Inactive)
REMARK    1  A    between atoms: C8_15  and  C9_16
REMARK    2  A    between atoms: C9_16  and  N4_17
REMARK    3  A    between atoms: N4_17  and  C10_19
REMARK    4  A    between atoms: C10_19  and  C11_20
REMARK    5  A    between atoms: C11_20  and  C12_21
REMARK    6  A    between atoms: C12_21  and  C13_22
REMARK    7  A    between atoms: C13_22  and  N5_23
REMARK    8  A    between atoms: C19_38  and  N9_39
REMARK    9  A    between atoms: N9_39  and  N10_41
REMARK       I    between atoms: N10_41  and  C20_43
REMARK   10  A    between atoms: N12_45  and  O4_47
ROOT
HETATM    1  C1  UNL     1      -9.230  32.185  22.633  1.00  0.00     0.164 C
HETATM    2  N1  UNL     1      -8.199  31.836  23.602  1.00  0.00    -0.270 N
HETATM    3  C2  UNL     1      -7.435  32.775  24.182  1.00  0.00     0.330 A
HETATM    4  O1  UNL     1      -7.652  33.993  23.864  1.00  0.00    -0.246 OA
HETATM    5  N2  UNL     1      -6.479  32.478  25.062  1.00  0.00    -0.293 N
ATOM      6  H2  UNL     1      -5.923  33.224  25.481  1.00  0.00     0.172 HD
HETATM    7  C3  UNL     1      -6.243  31.193  25.398  1.00  0.00     0.126 A
HETATM    8  N3  UNL     1      -5.388  30.624  26.268  1.00  0.00    -0.340 N
ATOM      9  H3  UNL     1      -4.708  31.117  26.846  1.00  0.00     0.167 HD
HETATM   10  C4  UNL     1      -5.584  29.311  26.243  1.00  0.00     0.067 A
HETATM   11  C5  UNL     1      -6.607  29.034  25.305  1.00  0.00     0.037 A
HETATM   12  C6  UNL     1      -7.047  30.214  24.777  1.00  0.00     0.091 A
HETATM   13  C7  UNL     1      -8.028  30.504  23.890  1.00  0.00     0.266 A
HETATM   14  O2  UNL     1      -8.825  29.796  23.292  1.00  0.00    -0.267 OA
HETATM   15  C8  UNL     1      -6.988  27.727  24.812  1.00  0.00     0.056 C
HETATM   16  N6  UNL     1      -6.982  26.623  25.536  1.00  0.00    -0.301 N
ATOM     17  H6  UNL     1      -7.287  25.783  25.045  1.00  0.00     0.186 HD
HETATM   18  N7  UNL     1      -6.617  26.427  26.886  1.00  0.00    -0.283 N
ATOM     19  H7  UNL     1      -7.187  25.807  27.461  1.00  0.00     0.188 HD
HETATM   20  C14 UNL     1      -5.473  27.070  27.486  1.00  0.00     0.160 A
HETATM   21  C15 UNL     1      -5.003  28.338  27.154  1.00  0.00     0.109 A
HETATM   22  C16 UNL     1      -3.907  28.551  27.951  1.00  0.00     0.283 A
HETATM   23  O3  UNL     1      -3.230  29.593  27.915  1.00  0.00    -0.265 OA
HETATM   24  N8  UNL     1      -3.748  27.445  28.721  1.00  0.00    -0.223 N
HETATM   25  C17 UNL     1      -2.862  27.136  29.675  1.00  0.00     0.123 A
HETATM   26  C18 UNL     1      -2.884  25.947  30.371  1.00  0.00     0.052 A
HETATM   27  C19 UNL     1      -3.855  25.017  30.087  1.00  0.00     0.067 A
HETATM   28  C21 UNL     1      -4.765  25.362  29.091  1.00  0.00     0.150 A
HETATM   29  N13 UNL     1      -4.695  26.542  28.444  1.00  0.00    -0.237 N
ENDROOT
BRANCH  15  30
HETATM   30  C9  UNL     1      -7.236  27.618  23.379  1.00  0.00     0.173 C
BRANCH  30  31
HETATM   31  N4  UNL     1      -6.155  27.774  22.461  1.00  0.00    -0.416 N
ATOM     32  H4  UNL     1      -5.440  28.473  22.655  1.00  0.00     0.153 HD
BRANCH  31  33
HETATM   33  C10 UNL     1      -6.046  27.002  21.308  1.00  0.00     0.114 C
BRANCH  33  34
HETATM   34  C11 UNL     1      -4.623  26.409  21.291  1.00  0.00     0.021 C
BRANCH  34  35
HETATM   35  C12 UNL     1      -4.396  25.412  22.385  1.00  0.00     0.029 C
BRANCH  35  36
HETATM   36  C13 UNL     1      -3.180  25.861  23.193  1.00  0.00     0.229 C
BRANCH  36  37
HETATM   37  N5  UNL     1      -3.630  26.389  24.442  1.00  0.00    -0.079 N
ATOM     38  H53 UNL     1      -3.381  27.371  24.563  1.00  0.00     0.274 HD
ATOM     39  H52 UNL     1      -4.644  26.496  24.478  1.00  0.00     0.274 HD
ATOM     40  H51 UNL     1      -3.271  25.800  25.193  1.00  0.00     0.274 HD
ENDBRANCH  36  37
ENDBRANCH  35  36
ENDBRANCH  34  35
ENDBRANCH  33  34
ENDBRANCH  31  33
ENDBRANCH  30  31
ENDBRANCH  15  30
BRANCH  27  41
HETATM   41  N9  UNL     1      -3.974  23.757  30.770  1.00  0.00    -0.297 N
ATOM     42  H9  UNL     1      -4.591  23.045  30.379  1.00  0.00     0.187 HD
BRANCH  41  43
HETATM   43  N10 UNL     1      -3.280  23.467  31.949  1.00  0.00    -0.272 N
HETATM   44  C20 UNL     1      -3.654  22.474  32.888  1.00  0.00     0.227 C
HETATM   45  N11 UNL     1      -3.933  21.155  32.438  1.00  0.00    -0.060 NA
HETATM   46  N12 UNL     1      -3.745  22.720  34.144  1.00  0.00    -0.240 N
ATOM     47  H12 UNL     1      -3.543  23.661  34.479  1.00  0.00     0.197 HD
ATOM     48  H10 UNL     1      -2.440  24.011  32.149  1.00  0.00     0.189 HD
BRANCH  46  49
HETATM   49  O4  UNL     1      -4.102  21.761  35.041  1.00  0.00    -0.287 OA
ATOM     50  H4  UNL     1      -3.645  20.931  35.098  1.00  0.00     0.244 HD
ENDBRANCH  46  49
ENDBRANCH  41  43
ENDBRANCH  27  41
TORSDOF 10
ENDMDL