MODEL 2
REMARK VINA RESULT: -9.840200581      3.031      9.577
REMARK  12 active torsions:
REMARK  status: ('A' for Active; 'I' for Inactive)
REMARK    1  A    between atoms: C1_4  and  O1_5
REMARK    2  A    between atoms: C1_4  and  C2_7
REMARK    3  A    between atoms: C4_11  and  N2_12
REMARK       I    between atoms: N2_12  and  C5_14
REMARK    4  A    between atoms: C5_14  and  C6_16
REMARK    5  A    between atoms: C7_18  and  N3_19
REMARK    6  A    between atoms: C8_24  and  N5_25
REMARK    7  A    between atoms: N6_27  and  C9_29
REMARK    8  A    between atoms: C10_30  and  N7_31
REMARK    9  A    between atoms: N7_31  and  C11_33
REMARK   10  A    between atoms: C11_33  and  C12_34
REMARK   11  A    between atoms: C11_33  and  C13_37
REMARK   12  A    between atoms: C12_34  and  O5_35
REMARK       I    between atoms: C13_37  and  N8_39
ROOT
HETATM    1  N5  UNL     1      -6.586  27.216  27.238  1.00  0.00    -0.284 N
ATOM      2  H5  UNL     1      -7.065  26.956  28.101  1.00  0.00     0.188 HD
HETATM    3  N6  UNL     1      -6.732  26.503  26.206  1.00  0.00    -0.293 N
ATOM      4  H6  UNL     1      -7.331  25.680  26.269  1.00  0.00     0.187 HD
ENDROOT
BRANCH   1   5
HETATM    5  C8  UNL     1      -5.738  28.413  27.215  1.00  0.00     0.145 A
HETATM    6  C6  UNL     1      -4.445  28.358  27.626  1.00  0.00     0.121 A
HETATM    7  S1  UNL     1      -3.965  30.024  27.382  1.00  0.00    -0.045 SA
HETATM    8  C7  UNL     1      -5.437  30.620  26.789  1.00  0.00     0.144 A
HETATM    9  N4  UNL     1      -6.224  29.551  26.798  1.00  0.00    -0.321 N
ATOM     10  H4  UNL     1      -7.191  29.618  26.484  1.00  0.00     0.169 HD
BRANCH   6  11
HETATM   11  C5  UNL     1      -3.585  27.297  28.143  1.00  0.00     0.264 C
HETATM   12  N2  UNL     1      -2.303  27.560  28.634  1.00  0.00    -0.327 N
ATOM     13  H2  UNL     1      -1.917  28.504  28.651  1.00  0.00     0.165 HD
HETATM   14  O4  UNL     1      -4.055  26.114  28.127  1.00  0.00    -0.267 OA
BRANCH  12  15
HETATM   15  C4  UNL     1      -1.533  26.390  29.129  1.00  0.00     0.263 C
HETATM   16  C2  UNL     1      -1.381  26.555  30.606  1.00  0.00     0.246 C
HETATM   17  O2  UNL     1      -0.056  26.320  30.856  1.00  0.00    -0.349 OA
HETATM   18  C3  UNL     1       0.611  26.171  29.672  1.00  0.00     0.341 C
HETATM   19  O3  UNL     1      -0.240  26.535  28.632  1.00  0.00    -0.340 OA
BRANCH  16  20
HETATM   20  C1  UNL     1      -2.238  25.587  31.336  1.00  0.00     0.143 C
HETATM   21  N1  UNL     1      -3.480  25.435  31.060  1.00  0.00    -0.381 N
ATOM     22  H12 UNL     1      -4.069  24.771  31.561  1.00  0.00     0.158 HD
ATOM     23  H11 UNL     1      -3.905  25.991  30.317  1.00  0.00     0.158 HD
BRANCH  20  24
HETATM   24  O1  UNL     1      -1.664  24.836  32.340  1.00  0.00    -0.348 OA
ATOM     25  H1  UNL     1      -1.452  25.244  33.171  1.00  0.00     0.219 HD
ENDBRANCH  20  24
ENDBRANCH  16  20
ENDBRANCH  12  15
ENDBRANCH   6  11
BRANCH   8  26
HETATM   26  N3  UNL     1      -5.732  31.842  26.411  1.00  0.00    -0.380 N
ATOM     27  H32 UNL     1      -6.340  32.137  25.647  1.00  0.00     0.158 HD
ATOM     28  H31 UNL     1      -5.411  32.726  26.807  1.00  0.00     0.158 HD
ENDBRANCH   8  26
ENDBRANCH   1   5
BRANCH   3  29
HETATM   29  C9  UNL     1      -6.103  26.787  24.955  1.00  0.00     0.133 A
HETATM   30  C10 UNL     1      -6.482  27.408  23.785  1.00  0.00     0.116 A
HETATM   31  C17 UNL     1      -5.242  27.190  23.210  1.00  0.00     0.252 A
HETATM   32  O7  UNL     1      -4.664  27.427  22.118  1.00  0.00    -0.281 OA
HETATM   33  C18 UNL     1      -4.860  26.568  24.378  1.00  0.00     0.254 A
HETATM   34  O8  UNL     1      -3.841  26.004  24.838  1.00  0.00    -0.281 OA
BRANCH  30  35
HETATM   35  N7  UNL     1      -7.683  28.037  23.333  1.00  0.00    -0.370 N
ATOM     36  H7  UNL     1      -8.574  27.610  23.586  1.00  0.00     0.160 HD
BRANCH  35  37
HETATM   37  C11 UNL     1      -7.706  29.231  22.546  1.00  0.00     0.199 C
BRANCH  37  38
HETATM   38  C12 UNL     1      -9.103  29.563  22.056  1.00  0.00     0.198 C
BRANCH  38  39
HETATM   39  O5  UNL     1      -9.267  30.927  21.823  1.00  0.00    -0.398 OA
ATOM     40  H5  UNL     1     -10.059  31.114  21.334  1.00  0.00     0.209 HD
ENDBRANCH  38  39
ENDBRANCH  37  38
BRANCH  37  41
HETATM   41  C13 UNL     1      -7.125  30.341  23.331  1.00  0.00     0.260 C
HETATM   42  O6  UNL     1      -7.740  30.801  24.345  1.00  0.00    -0.270 OA
HETATM   43  N8  UNL     1      -5.863  30.894  22.940  1.00  0.00    -0.158 N
HETATM   44  C14 UNL     1      -5.831  32.151  22.662  1.00  0.00     0.684 A
ATOM     45  H8  UNL     1      -5.024  30.316  22.882  1.00  0.00     0.187 HD
HETATM   46  N9  UNL     1      -6.824  33.052  22.683  1.00  0.00    -0.200 N
HETATM   47  N10 UNL     1      -4.706  32.804  22.281  1.00  0.00    -0.200 N
HETATM   48  C15 UNL     1      -6.374  34.274  22.323  1.00  0.00     0.123 A
ATOM     49  H9  UNL     1      -7.790  32.843  22.936  1.00  0.00     0.183 HD
HETATM   50  C16 UNL     1      -5.040  34.089  22.076  1.00  0.00     0.123 A
ATOM     51  H10 UNL     1      -3.779  32.394  22.169  1.00  0.00     0.183 HD
ENDBRANCH  37  41
ENDBRANCH  35  37
ENDBRANCH  30  35
ENDBRANCH   3  29
TORSDOF 12
ENDMDL