MODEL 5
REMARK VINA RESULT: -7.443366255      1.524      3.529
REMARK  17 active torsions:
REMARK  status: ('A' for Active; 'I' for Inactive)
REMARK    1  A    between atoms: O1_2  and  C2_3
REMARK    2  A    between atoms: C3_4  and  C4_5
REMARK    3  A    between atoms: C4_5  and  O2_6
REMARK    4  A    between atoms: C4_5  and  O3_8
REMARK    5  A    between atoms: O3_8  and  C5_9
REMARK    6  A    between atoms: C6_10  and  O4_11
REMARK    7  A    between atoms: C7_14  and  C8_15
REMARK    8  A    between atoms: C8_15  and  O6_16
REMARK    9  A    between atoms: C8_15  and  C9_18
REMARK   10  A    between atoms: C9_18  and  O7_19
REMARK   11  A    between atoms: C9_18  and  C10_21
REMARK   12  A    between atoms: C10_21  and  O8_22
REMARK   13  A    between atoms: C11_24  and  C12_25
REMARK   14  A    between atoms: C12_25  and  O9_27
REMARK   15  A    between atoms: C12_25  and  C14_29
REMARK   16  A    between atoms: C20_37  and  O12_38
REMARK   17  A    between atoms: C21_40  and  O13_41
ROOT
HETATM    1  C5  UNL     1      -7.036  28.498  24.684  1.00  0.00     0.189 C
HETATM    2  C6  UNL     1      -8.226  29.402  24.969  1.00  0.00     0.286 C
HETATM    3  O5  UNL     1      -8.214  30.404  24.057  1.00  0.00    -0.350 OA
HETATM    4  C7  UNL     1      -6.885  30.630  23.645  1.00  0.00     0.166 C
HETATM    5  C11 UNL     1      -6.383  29.229  23.538  1.00  0.00     0.096 C
ENDROOT
BRANCH   1   6
HETATM    6  O3  UNL     1      -6.168  28.479  25.763  1.00  0.00    -0.350 OA
BRANCH   6   7
HETATM    7  C4  UNL     1      -6.375  27.488  26.685  1.00  0.00     0.264 C
BRANCH   7   8
HETATM    8  C3  UNL     1      -5.128  26.728  27.088  1.00  0.00     0.070 C
HETATM    9  C2  UNL     1      -4.131  27.503  27.846  1.00  0.00     0.134 C
HETATM   10  C23 UNL     1      -3.525  26.878  29.028  1.00  0.00     0.026 C
HETATM   11  C17 UNL     1      -3.400  25.397  29.077  1.00  0.00    -0.035 C
HETATM   12  C22 UNL     1      -2.193  27.574  29.270  1.00  0.00     0.042 C
HETATM   13  C16 UNL     1      -4.330  24.693  28.120  1.00  0.00     0.010 C
HETATM   14  C18 UNL     1      -3.726  24.852  30.447  1.00  0.00     0.016 C
HETATM   15  C19 UNL     1      -1.990  25.002  28.754  1.00  0.00     0.044 C
HETATM   16  C15 UNL     1      -5.575  25.542  27.900  1.00  0.00     0.013 C
HETATM   17  C20 UNL     1      -1.015  25.464  29.812  1.00  0.00     0.147 C
HETATM   18  C21 UNL     1      -1.352  26.837  30.289  1.00  0.00     0.147 C
BRANCH   9  19
HETATM   19  O1  UNL     1      -3.095  27.975  26.992  1.00  0.00    -0.390 OA
HETATM   20  C1  UNL     1      -3.056  27.293  25.787  1.00  0.00     0.202 C
ENDBRANCH   9  19
BRANCH  17  21
HETATM   21  O12 UNL     1       0.245  25.496  29.186  1.00  0.00    -0.393 OA
ATOM     22  H12 UNL     1       0.417  26.410  28.994  1.00  0.00     0.210 HD
ENDBRANCH  17  21
BRANCH  18  23
HETATM   23  O13 UNL     1      -0.156  27.599  30.418  1.00  0.00    -0.393 OA
ATOM     24  H13 UNL     1      -0.354  28.519  30.293  1.00  0.00     0.210 HD
ENDBRANCH  18  23
ENDBRANCH   7   8
BRANCH   7  25
HETATM   25  O2  UNL     1      -6.713  28.202  27.890  1.00  0.00    -0.371 OA
ATOM     26  H2  UNL     1      -7.050  27.515  28.451  1.00  0.00     0.212 HD
ENDBRANCH   7  25
ENDBRANCH   6   7
ENDBRANCH   1   6
BRANCH   2  27
HETATM   27  O4  UNL     1      -9.433  28.709  24.930  1.00  0.00    -0.369 OA
ATOM     28  H4  UNL     1     -10.182  29.293  24.933  1.00  0.00     0.212 HD
ENDBRANCH   2  27
BRANCH   5  29
HETATM   29  C12 UNL     1      -6.626  28.567  22.197  1.00  0.00     0.150 C
HETATM   30  C13 UNL     1      -7.771  27.592  22.307  1.00  0.00     0.058 C
BRANCH  29  31
HETATM   31  O9  UNL     1      -7.105  29.609  21.348  1.00  0.00    -0.379 OA
ATOM     32  H9  UNL     1      -6.325  30.017  20.992  1.00  0.00     0.211 HD
ENDBRANCH  29  31
BRANCH  29  33
HETATM   33  C14 UNL     1      -5.447  27.964  21.571  1.00  0.00     0.209 C
HETATM   34  O10 UNL     1      -5.233  28.097  20.350  1.00  0.00    -0.646 OA
HETATM   35  O11 UNL     1      -4.542  27.230  22.320  1.00  0.00    -0.646 OA
ENDBRANCH  29  33
ENDBRANCH   5  29
BRANCH   4  36
HETATM   36  C8  UNL     1      -6.161  31.436  24.695  1.00  0.00     0.178 C
BRANCH  36  37
HETATM   37  O6  UNL     1      -7.117  32.139  25.487  1.00  0.00    -0.390 OA
ATOM     38  H6  UNL     1      -7.985  31.804  25.299  1.00  0.00     0.210 HD
ENDBRANCH  36  37
BRANCH  36  39
HETATM   39  C9  UNL     1      -5.288  32.543  24.159  1.00  0.00     0.172 C
BRANCH  39  40
HETATM   40  O7  UNL     1      -4.167  32.850  24.856  1.00  0.00    -0.391 OA
ATOM     41  H7  UNL     1      -3.340  32.520  24.524  1.00  0.00     0.210 HD
ENDBRANCH  39  40
BRANCH  39  42
HETATM   42  C10 UNL     1      -5.082  32.442  22.651  1.00  0.00     0.198 C
BRANCH  42  43
HETATM   43  O8  UNL     1      -3.836  32.863  22.262  1.00  0.00    -0.398 OA
ATOM     44  H8  UNL     1      -3.523  32.409  21.488  1.00  0.00     0.209 HD
ENDBRANCH  42  43
ENDBRANCH  39  42
ENDBRANCH  36  39
ENDBRANCH   4  36
TORSDOF 17
ENDMDL