MODEL 3
REMARK VINA RESULT: -9.270539719      2.327      5.151
REMARK  14 active torsions:
REMARK  status: ('A' for Active; 'I' for Inactive)
REMARK    1  A    between atoms: C2_3  and  C3_4
REMARK    2  A    between atoms: C4_7  and  N3_8
REMARK    3  A    between atoms: N3_8  and  C5_10
REMARK    4  A    between atoms: C5_10  and  C6_11
REMARK    5  A    between atoms: C6_11  and  N4_12
REMARK    6  A    between atoms: N4_12  and  C7_14
REMARK    7  A    between atoms: C10_22  and  N8_23
REMARK    8  A    between atoms: N8_23  and  O1_24
REMARK    9  A    between atoms: N8_23  and  O2_26
REMARK   10  A    between atoms: C11_30  and  N10_31
REMARK   11  A    between atoms: N10_31  and  C12_33
REMARK   12  A    between atoms: C12_33  and  C13_34
REMARK   13  A    between atoms: C15_38  and  N12_39
REMARK   14  A    between atoms: C16_44  and  N14_45
ROOT
HETATM    1  C3  UNL     1      -5.246  26.544  25.145  1.00  0.00     0.164 A
HETATM    2  N2  UNL     1      -4.717  25.605  26.005  1.00  0.00    -0.173 N
ATOM      3  H2  UNL     1      -4.189  24.835  25.594  1.00  0.00     0.186 HD
HETATM    4  C4  UNL     1      -4.842  25.625  27.306  1.00  0.00     0.694 A
HETATM    5  N9  UNL     1      -5.529  26.645  27.857  1.00  0.00    -0.022 N
ATOM      6  H9  UNL     1      -5.632  26.684  28.871  1.00  0.00     0.203 HD
HETATM    7  C11 UNL     1      -6.079  27.605  27.108  1.00  0.00     0.694 A
HETATM    8  N15 UNL     1      -5.919  27.521  25.757  1.00  0.00    -0.173 N
ATOM      9  H15 UNL     1      -6.340  28.249  25.179  1.00  0.00     0.186 HD
ENDROOT
BRANCH   4  10
HETATM   10  N3  UNL     1      -4.335  24.647  28.040  1.00  0.00    -0.221 N
ATOM     11  H3  UNL     1      -3.704  23.960  27.626  1.00  0.00     0.178 HD
BRANCH  10  12
HETATM   12  C5  UNL     1      -4.689  24.570  29.433  1.00  0.00     0.182 C
BRANCH  12  13
HETATM   13  C6  UNL     1      -3.684  24.984  30.433  1.00  0.00     0.082 C
BRANCH  13  14
HETATM   14  N4  UNL     1      -3.053  26.221  30.421  1.00  0.00    -0.353 N
ATOM     15  H4  UNL     1      -3.616  27.016  30.118  1.00  0.00     0.166 HD
BRANCH  14  16
HETATM   16  C7  UNL     1      -1.859  26.468  30.744  1.00  0.00     0.135 A
HETATM   17  N5  UNL     1      -1.383  26.835  31.948  1.00  0.00    -0.337 N
HETATM   18  C8  UNL     1      -0.102  27.178  32.147  1.00  0.00     0.183 A
ATOM     19  H5  UNL     1      -2.024  26.854  32.742  1.00  0.00     0.168 HD
HETATM   20  N6  UNL     1       0.792  27.172  31.151  1.00  0.00    -0.339 N
HETATM   21  C9  UNL     1       0.394  26.816  29.919  1.00  0.00     0.147 A
ATOM     22  H6  UNL     1       1.762  27.433  31.326  1.00  0.00     0.167 HD
HETATM   23  N7  UNL     1       1.311  26.819  28.814  1.00  0.00    -0.080 NA
HETATM   24  C10 UNL     1      -0.902  26.469  29.705  1.00  0.00     0.150 A
BRANCH  24  25
HETATM   25  N8  UNL     1      -1.287  26.139  28.388  1.00  0.00    -0.029 NA
BRANCH  25  26
HETATM   26  O1  UNL     1      -2.288  26.954  27.948  1.00  0.00    -0.284 OA
ATOM     27  H1  UNL     1      -2.568  26.712  27.073  1.00  0.00     0.240 HD
ENDBRANCH  25  26
BRANCH  25  28
HETATM   28  O2  UNL     1      -1.542  24.850  28.187  1.00  0.00    -0.284 OA
ATOM     29  H2  UNL     1      -1.732  24.616  27.287  1.00  0.00     0.240 HD
ENDBRANCH  25  28
ENDBRANCH  24  25
ENDBRANCH  14  16
ENDBRANCH  13  14
ENDBRANCH  12  13
ENDBRANCH  10  12
ENDBRANCH   4  10
BRANCH   1  30
HETATM   30  C2  UNL     1      -4.966  26.462  23.683  1.00  0.00     0.089 A
HETATM   31  N1  UNL     1      -5.319  27.292  22.722  1.00  0.00    -0.309 N
HETATM   32  C1  UNL     1      -6.126  28.535  22.926  1.00  0.00     0.160 C
HETATM   33  C18 UNL     1      -4.905  27.030  21.473  1.00  0.00     0.290 A
HETATM   34  S1  UNL     1      -4.000  25.608  21.617  1.00  0.00    -0.038 SA
HETATM   35  O3  UNL     1      -5.139  27.704  20.398  1.00  0.00    -0.260 OA
HETATM   36  C17 UNL     1      -4.173  25.372  23.286  1.00  0.00     0.088 A
ENDBRANCH   1  30
BRANCH   7  37
HETATM   37  N10 UNL     1      -6.676  28.637  27.629  1.00  0.00    -0.221 N
ATOM     38  H10 UNL     1      -7.087  28.586  28.562  1.00  0.00     0.178 HD
BRANCH  37  39
HETATM   39  C12 UNL     1      -6.742  29.846  26.865  1.00  0.00     0.182 C
BRANCH  39  40
HETATM   40  C13 UNL     1      -5.625  30.797  27.007  1.00  0.00     0.020 A
HETATM   41  C14 UNL     1      -4.356  30.334  27.295  1.00  0.00     0.118 A
HETATM   42  N11 UNL     1      -3.324  31.195  27.250  1.00  0.00    -0.201 N
HETATM   43  C15 UNL     1      -3.509  32.485  26.936  1.00  0.00     0.677 A
ATOM     44  H11 UNL     1      -2.383  30.860  27.459  1.00  0.00     0.183 HD
HETATM   45  N13 UNL     1      -4.734  32.934  26.657  1.00  0.00    -0.177 N
HETATM   46  C16 UNL     1      -5.796  32.117  26.688  1.00  0.00     0.124 A
ATOM     47  H13 UNL     1      -4.865  33.916  26.416  1.00  0.00     0.185 HD
BRANCH  43  48
HETATM   48  N12 UNL     1      -2.490  33.305  26.912  1.00  0.00    -0.234 N
ATOM     49 2H12 UNL     1      -1.943  33.461  27.758  1.00  0.00     0.174 HD
ATOM     50 1H12 UNL     1      -2.239  33.782  26.046  1.00  0.00     0.174 HD
ENDBRANCH  43  48
BRANCH  46  51
HETATM   51  N14 UNL     1      -7.010  32.528  26.457  1.00  0.00    -0.385 N
ATOM     52 2H14 UNL     1      -7.725  32.580  27.184  1.00  0.00     0.157 HD
ATOM     53 1H14 UNL     1      -7.247  32.782  25.498  1.00  0.00     0.157 HD
ENDBRANCH  46  51
ENDBRANCH  39  40
ENDBRANCH  37  39
ENDBRANCH   7  37
TORSDOF 14
ENDMDL