MODEL 2
REMARK VINA RESULT: -8.702856935      2.626      5.330
REMARK  16 active torsions:
REMARK  status: ('A' for Active; 'I' for Inactive)
REMARK    1  A    between atoms: C1_4  and  N2_5
REMARK    2  A    between atoms: C1_4  and  C21_51
REMARK    3  A    between atoms: N2_5  and  C2_7
REMARK    4  A    between atoms: C4_9  and  N3_10
REMARK    5  A    between atoms: C5_14  and  O1_15
REMARK    6  A    between atoms: O1_15  and  C6_16
REMARK    7  A    between atoms: C8_18  and  N4_19
REMARK    8  A    between atoms: C10_24  and  N5_25
REMARK    9  A    between atoms: C11_29  and  O2_30
REMARK   10  A    between atoms: O2_30  and  C12_31
REMARK   11  A    between atoms: C14_33  and  C15_34
REMARK   12  A    between atoms: C15_34  and  N6_35
REMARK   13  A    between atoms: C18_41  and  N7_42
REMARK   14  A    between atoms: C19_47  and  C20_48
REMARK   15  A    between atoms: C20_48  and  O4_49
REMARK   16  A    between atoms: C24_54  and  O5_55
ROOT
HETATM    1  C6  UNL     1      -6.525  28.010  22.737  1.00  0.00     0.157 C
HETATM    2  C7  UNL     1      -6.454  26.910  21.685  1.00  0.00     0.067 C
HETATM    3  C8  UNL     1      -6.478  27.445  20.290  1.00  0.00     0.188 C
HETATM    4  C9  UNL     1      -7.499  28.533  20.060  1.00  0.00     0.068 C
HETATM    5  C10 UNL     1      -7.509  29.544  21.170  1.00  0.00     0.216 C
HETATM    6  C11 UNL     1      -7.709  28.922  22.536  1.00  0.00     0.181 C
ENDROOT
BRANCH   1   7
HETATM    7  O1  UNL     1      -6.379  27.467  23.981  1.00  0.00    -0.351 OA
BRANCH   7   8
HETATM    8  C5  UNL     1      -5.058  27.573  24.498  1.00  0.00     0.291 C
HETATM    9  C4  UNL     1      -4.695  26.331  25.246  1.00  0.00     0.240 C
HETATM   10  C3  UNL     1      -3.752  26.706  26.375  1.00  0.00     0.065 C
HETATM   11  C2  UNL     1      -4.533  27.632  27.317  1.00  0.00     0.116 C
HETATM   12  C19 UNL     1      -5.170  28.731  26.545  1.00  0.00     0.170 C
HETATM   13  O3  UNL     1      -4.949  28.698  25.203  1.00  0.00    -0.350 OA
BRANCH   9  14
HETATM   14  N3  UNL     1      -5.887  25.736  25.822  1.00  0.00    -0.070 N
ATOM     15  H33 UNL     1      -5.691  24.864  26.313  1.00  0.00     0.274 HD
ATOM     16  H32 UNL     1      -6.244  26.266  26.617  1.00  0.00     0.274 HD
ATOM     17  H31 UNL     1      -6.581  25.623  25.083  1.00  0.00     0.274 HD
ENDBRANCH   9  14
BRANCH  11  18
HETATM   18  N2  UNL     1      -3.669  28.003  28.372  1.00  0.00    -0.367 N
ATOM     19  H2  UNL     1      -3.388  28.977  28.482  1.00  0.00     0.161 HD
BRANCH  18  20
HETATM   20  C1  UNL     1      -3.192  27.022  29.280  1.00  0.00     0.129 C
HETATM   21  N1  UNL     1      -3.994  26.226  29.914  1.00  0.00    -0.383 N
ATOM     22  H12 UNL     1      -4.999  26.308  29.755  1.00  0.00     0.157 HD
ATOM     23  H11 UNL     1      -3.652  25.521  30.567  1.00  0.00     0.157 HD
BRANCH  20  24
HETATM   24  C21 UNL     1      -1.754  26.905  29.507  1.00  0.00     0.121 A
HETATM   25  C22 UNL     1      -1.173  26.888  30.753  1.00  0.00     0.046 A
HETATM   26  C23 UNL     1       0.183  26.767  30.549  1.00  0.00     0.067 A
HETATM   27  C24 UNL     1       0.318  26.719  29.176  1.00  0.00     0.183 A
HETATM   28  O6  UNL     1      -0.828  26.801  28.571  1.00  0.00    -0.284 OA
BRANCH  27  29
HETATM   29  O5  UNL     1       1.526  26.598  28.489  1.00  0.00    -0.341 OA
ATOM     30  H5  UNL     1       1.714  25.951  27.819  1.00  0.00     0.220 HD
ENDBRANCH  27  29
ENDBRANCH  20  24
ENDBRANCH  18  20
ENDBRANCH  11  18
BRANCH  12  31
HETATM   31  C20 UNL     1      -4.995  30.120  27.132  1.00  0.00     0.198 C
BRANCH  31  32
HETATM   32  O4  UNL     1      -3.738  30.656  26.950  1.00  0.00    -0.398 OA
ATOM     33  H4  UNL     1      -3.535  30.874  26.048  1.00  0.00     0.209 HD
ENDBRANCH  31  32
ENDBRANCH  12  31
ENDBRANCH   7   8
ENDBRANCH   1   7
BRANCH   6  34
HETATM   34  O2  UNL     1      -8.908  28.446  22.852  1.00  0.00    -0.374 OA
BRANCH  34  35
HETATM   35  C12 UNL     1      -9.580  28.778  23.959  1.00  0.00     0.152 C
HETATM   36  C13 UNL     1     -10.534  29.925  23.629  1.00  0.00     0.040 C
HETATM   37  C14 UNL     1     -11.486  29.559  22.521  1.00  0.00     0.013 C
HETATM   38  C16 UNL     1     -12.210  28.267  22.774  1.00  0.00     0.008 C
HETATM   39  C17 UNL     1     -11.256  27.169  23.213  1.00  0.00     0.036 C
HETATM   40  C18 UNL     1     -10.551  27.667  24.426  1.00  0.00     0.212 C
BRANCH  37  41
HETATM   41  C15 UNL     1     -12.528  30.657  22.448  1.00  0.00     0.234 C
BRANCH  41  42
HETATM   42  N6  UNL     1     -13.611  30.491  23.376  1.00  0.00    -0.079 N
ATOM     43  H63 UNL     1     -14.367  29.952  22.952  1.00  0.00     0.274 HD
ATOM     44  H62 UNL     1     -13.346  29.854  24.127  1.00  0.00     0.274 HD
ATOM     45  H61 UNL     1     -13.965  31.368  23.757  1.00  0.00     0.274 HD
ENDBRANCH  41  42
ENDBRANCH  37  41
BRANCH  40  46
HETATM   46  N7  UNL     1     -11.496  28.322  25.310  1.00  0.00    -0.073 N
ATOM     47  H73 UNL     1     -11.097  29.106  25.826  1.00  0.00     0.274 HD
ATOM     48  H72 UNL     1     -12.215  28.853  24.819  1.00  0.00     0.274 HD
ATOM     49  H71 UNL     1     -11.868  27.584  25.908  1.00  0.00     0.274 HD
ENDBRANCH  40  46
ENDBRANCH  34  35
ENDBRANCH   6  34
BRANCH   3  50
HETATM   50  N4  UNL     1      -5.157  27.944  19.931  1.00  0.00    -0.075 N
ATOM     51  H43 UNL     1      -4.884  28.746  20.499  1.00  0.00     0.274 HD
ATOM     52  H42 UNL     1      -4.416  27.303  20.214  1.00  0.00     0.274 HD
ATOM     53  H41 UNL     1      -5.127  28.151  18.933  1.00  0.00     0.274 HD
ENDBRANCH   3  50
BRANCH   5  54
HETATM   54  N5  UNL     1      -8.312  30.667  20.873  1.00  0.00    -0.072 N
ATOM     55  H53 UNL     1      -9.102  30.407  20.283  1.00  0.00     0.274 HD
ATOM     56  H52 UNL     1      -8.821  30.983  21.698  1.00  0.00     0.274 HD
ATOM     57  H51 UNL     1      -7.778  31.431  20.456  1.00  0.00     0.274 HD
ENDBRANCH   5  54
TORSDOF 16
ENDMDL