MODEL 1
REMARK VINA RESULT: -8.160641821      0.000      0.000
REMARK  14 active torsions:
REMARK  status: ('A' for Active; 'I' for Inactive)
REMARK    1  A    between atoms: C3_4  and  O2_5
REMARK    2  A    between atoms: O2_5  and  C4_6
REMARK    3  A    between atoms: C4_6  and  C5_7
REMARK    4  A    between atoms: C8_10  and  N1_11
REMARK    5  A    between atoms: C9_15  and  O3_16
REMARK    6  A    between atoms: O3_16  and  C10_17
REMARK    7  A    between atoms: C13_21  and  O4_22
REMARK    8  A    between atoms: O4_22  and  C14_23
REMARK    9  A    between atoms: C16_25  and  O5_26
REMARK   10  A    between atoms: C16_25  and  C17_28
REMARK   11  A    between atoms: C17_28  and  O6_32
REMARK   12  A    between atoms: C19_36  and  N4_37
REMARK   13  A    between atoms: C21_42  and  N5_43
REMARK   14  A    between atoms: C23_48  and  N6_49
ROOT
HETATM    1  C5  UNL     1      -6.899  29.779  21.990  1.00  0.00     0.012 C
HETATM    2  C6  UNL     1      -7.897  28.824  22.665  1.00  0.00     0.009 C
HETATM    3  C7  UNL     1      -8.019  27.624  21.773  1.00  0.00     0.036 C
HETATM    4  C8  UNL     1      -6.724  27.182  21.190  1.00  0.00     0.212 C
HETATM    5  C9  UNL     1      -5.595  27.626  22.145  1.00  0.00     0.153 C
HETATM    6  C20 UNL     1      -5.536  29.129  22.153  1.00  0.00     0.041 C
ENDROOT
BRANCH   5   7
HETATM    7  O3  UNL     1      -5.843  27.032  23.346  1.00  0.00    -0.371 OA
BRANCH   7   8
HETATM    8  C10 UNL     1      -5.173  27.491  24.445  1.00  0.00     0.199 C
HETATM    9  C11 UNL     1      -3.948  26.693  24.681  1.00  0.00     0.053 C
HETATM   10  N2  UNL     1      -3.167  26.165  23.575  1.00  0.00    -0.104 NA
HETATM   11  C12 UNL     1      -3.485  26.402  25.886  1.00  0.00     0.029 C
HETATM   12  C13 UNL     1      -4.100  26.815  27.165  1.00  0.00     0.151 C
HETATM   13  C18 UNL     1      -5.346  27.584  26.936  1.00  0.00     0.072 C
HETATM   14  C19 UNL     1      -6.082  27.212  25.661  1.00  0.00     0.220 C
BRANCH  12  15
HETATM   15  O4  UNL     1      -4.350  25.719  27.993  1.00  0.00    -0.352 OA
BRANCH  15  16
HETATM   16  C14 UNL     1      -3.876  25.923  29.295  1.00  0.00     0.270 C
HETATM   17  C15 UNL     1      -2.631  26.818  29.335  1.00  0.00     0.138 C
HETATM   18  C16 UNL     1      -1.955  25.673  30.003  1.00  0.00     0.235 C
HETATM   19  O7  UNL     1      -3.092  24.893  29.777  1.00  0.00    -0.317 OA
BRANCH  18  20
HETATM   20  O5  UNL     1      -0.816  25.205  29.333  1.00  0.00    -0.359 OA
ATOM     21  H5  UNL     1      -0.033  25.720  29.485  1.00  0.00     0.213 HD
ENDBRANCH  18  20
BRANCH  18  22
HETATM   22  C17 UNL     1      -1.665  25.777  31.444  1.00  0.00     0.173 C
HETATM   23  N3  UNL     1      -1.267  26.819  32.069  1.00  0.00    -0.379 N
ATOM     24  H32 UNL     1      -1.139  27.660  31.506  1.00  0.00     0.158 HD
ATOM     25  H31 UNL     1      -1.066  26.891  33.067  1.00  0.00     0.158 HD
BRANCH  22  26
HETATM   26  O6  UNL     1      -1.843  24.620  32.217  1.00  0.00    -0.346 OA
ATOM     27  H6  UNL     1      -1.536  23.801  31.847  1.00  0.00     0.219 HD
ENDBRANCH  22  26
ENDBRANCH  18  22
ENDBRANCH  15  16
ENDBRANCH  12  15
BRANCH  14  28
HETATM   28  N4  UNL     1      -7.296  27.966  25.630  1.00  0.00    -0.072 N
ATOM     29  H43 UNL     1      -7.263  28.739  26.296  1.00  0.00     0.274 HD
ATOM     30  H42 UNL     1      -7.374  28.497  24.763  1.00  0.00     0.274 HD
ATOM     31  H41 UNL     1      -8.124  27.390  25.781  1.00  0.00     0.274 HD
ENDBRANCH  14  28
ENDBRANCH   7   8
ENDBRANCH   5   7
BRANCH   4  32
HETATM   32  N1  UNL     1      -6.474  27.683  19.853  1.00  0.00    -0.073 N
ATOM     33  H13 UNL     1      -6.896  27.069  19.156  1.00  0.00     0.274 HD
ATOM     34  H12 UNL     1      -7.012  28.533  19.683  1.00  0.00     0.274 HD
ATOM     35  H11 UNL     1      -5.488  27.836  19.643  1.00  0.00     0.274 HD
ENDBRANCH   4  32
BRANCH   1  36
HETATM   36  C4  UNL     1      -6.931  31.123  22.642  1.00  0.00     0.175 C
BRANCH  36  37
HETATM   37  O2  UNL     1      -5.704  31.573  23.079  1.00  0.00    -0.359 OA
BRANCH  37  38
HETATM   38  C3  UNL     1      -5.695  32.135  24.341  1.00  0.00     0.290 C
HETATM   39  O1  UNL     1      -5.120  31.165  25.204  1.00  0.00    -0.352 OA
HETATM   40  C2  UNL     1      -5.395  31.511  26.525  1.00  0.00     0.151 C
HETATM   41  C1  UNL     1      -6.847  31.180  26.855  1.00  0.00     0.042 C
HETATM   42  C23 UNL     1      -5.045  32.930  26.844  1.00  0.00     0.214 C
HETATM   43  C22 UNL     1      -4.236  33.588  25.770  1.00  0.00     0.073 C
HETATM   44  C21 UNL     1      -4.888  33.413  24.434  1.00  0.00     0.240 C
BRANCH  42  45
HETATM   45  N6  UNL     1      -6.226  33.747  27.151  1.00  0.00    -0.072 N
ATOM     46  H63 UNL     1      -7.084  33.271  26.869  1.00  0.00     0.274 HD
ATOM     47  H62 UNL     1      -6.389  33.794  28.156  1.00  0.00     0.274 HD
ATOM     48  H61 UNL     1      -6.173  34.680  26.744  1.00  0.00     0.274 HD
ENDBRANCH  42  45
BRANCH  44  49
HETATM   49  N5  UNL     1      -3.912  33.405  23.359  1.00  0.00    -0.070 N
ATOM     50  H53 UNL     1      -3.842  32.499  22.895  1.00  0.00     0.274 HD
ATOM     51  H52 UNL     1      -4.212  33.949  22.549  1.00  0.00     0.274 HD
ATOM     52  H51 UNL     1      -3.021  33.723  23.740  1.00  0.00     0.274 HD
ENDBRANCH  44  49
ENDBRANCH  37  38
ENDBRANCH  36  37
ENDBRANCH   1  36
TORSDOF 14
ENDMDL