MODEL 1
REMARK VINA RESULT: -7.429402716      0.000      0.000
REMARK  15 active torsions:
REMARK  status: ('A' for Active; 'I' for Inactive)
REMARK    1  A    between atoms: C2_2  and  N1_3
REMARK    2  A    between atoms: N1_3  and  C3_6
REMARK    3  A    between atoms: C5_8  and  N2_9
REMARK    4  A    between atoms: C6_13  and  O1_14
REMARK    5  A    between atoms: O1_14  and  C7_15
REMARK    6  A    between atoms: C7_15  and  C8_16
REMARK    7  A    between atoms: C9_18  and  S1_19
REMARK    8  A    between atoms: S1_19  and  C10_20
REMARK    9  A    between atoms: C12_22  and  N3_23
REMARK   10  A    between atoms: C14_28  and  N4_29
REMARK       I    between atoms: N4_29  and  C15_31
REMARK   11  A    between atoms: C17_34  and  O4_35
REMARK   12  A    between atoms: C18_37  and  N5_38
REMARK   13  A    between atoms: C20_43  and  N6_44
REMARK   14  A    between atoms: C21_49  and  C22_50
REMARK   15  A    between atoms: C22_50  and  O6_51
ROOT
HETATM    1  C8  UNL     1      -4.870  26.646  23.630  1.00  0.00     0.177 C
HETATM    2  O2  UNL     1      -5.265  27.960  23.550  1.00  0.00    -0.364 OA
HETATM    3  C9  UNL     1      -5.331  28.487  22.288  1.00  0.00     0.214 C
HETATM    4  C18 UNL     1      -5.995  27.679  21.265  1.00  0.00     0.224 C
HETATM    5  C19 UNL     1      -5.867  26.182  21.469  1.00  0.00     0.072 C
HETATM    6  C20 UNL     1      -4.704  25.907  22.360  1.00  0.00     0.216 C
ENDROOT
BRANCH   1   7
HETATM    7  C7  UNL     1      -3.712  26.443  24.585  1.00  0.00     0.205 C
BRANCH   7   8
HETATM    8  O1  UNL     1      -4.052  25.702  25.711  1.00  0.00    -0.357 OA
BRANCH   8   9
HETATM    9  C6  UNL     1      -3.407  26.166  26.853  1.00  0.00     0.290 C
HETATM   10  C5  UNL     1      -4.434  26.866  27.695  1.00  0.00     0.240 C
HETATM   11  C4  UNL     1      -3.948  27.126  29.108  1.00  0.00     0.073 C
HETATM   12  C3  UNL     1      -3.500  25.820  29.666  1.00  0.00     0.219 C
HETATM   13  C21 UNL     1      -2.424  25.267  28.751  1.00  0.00     0.178 C
HETATM   14  O5  UNL     1      -2.837  25.072  27.472  1.00  0.00    -0.350 OA
BRANCH  10  15
HETATM   15  N2  UNL     1      -5.679  26.122  27.720  1.00  0.00    -0.070 N
ATOM     16  H23 UNL     1      -6.262  26.383  28.516  1.00  0.00     0.274 HD
ATOM     17  H22 UNL     1      -6.308  26.409  26.970  1.00  0.00     0.274 HD
ATOM     18  H21 UNL     1      -5.493  25.120  27.698  1.00  0.00     0.274 HD
ENDBRANCH  10  15
BRANCH  12  19
HETATM   19  N1  UNL     1      -3.062  25.834  31.026  1.00  0.00    -0.069 N
ATOM     20  H12 UNL     1      -3.578  26.511  31.588  1.00  0.00     0.277 HD
ATOM     21  H11 UNL     1      -2.131  26.240  31.125  1.00  0.00     0.277 HD
BRANCH  19  22
HETATM   22  C2  UNL     1      -3.135  24.499  31.578  1.00  0.00     0.228 C
HETATM   23  C1  UNL     1      -4.521  23.913  31.506  1.00  0.00     0.034 C
ENDBRANCH  19  22
ENDBRANCH  12  19
BRANCH  13  24
HETATM   24  C22 UNL     1      -1.100  25.946  28.900  1.00  0.00     0.198 C
BRANCH  24  25
HETATM   25  O6  UNL     1      -0.114  25.211  29.499  1.00  0.00    -0.398 OA
ATOM     26  H6  UNL     1       0.633  25.702  29.821  1.00  0.00     0.209 HD
ENDBRANCH  24  25
ENDBRANCH  13  24
ENDBRANCH   8   9
ENDBRANCH   7   8
ENDBRANCH   1   7
BRANCH   6  27
HETATM   27  N6  UNL     1      -3.456  26.042  21.682  1.00  0.00    -0.072 N
ATOM     28  H63 UNL     1      -3.049  26.952  21.899  1.00  0.00     0.274 HD
ATOM     29  H62 UNL     1      -2.771  25.419  22.109  1.00  0.00     0.274 HD
ATOM     30  H61 UNL     1      -3.455  25.903  20.671  1.00  0.00     0.274 HD
ENDBRANCH   6  27
BRANCH   3  31
HETATM   31  S1  UNL     1      -5.976  30.160  22.374  1.00  0.00    -0.128 SA
BRANCH  31  32
HETATM   32  C10 UNL     1      -7.043  30.515  23.754  1.00  0.00     0.082 C
HETATM   33  C11 UNL     1      -6.503  30.143  25.105  1.00  0.00     0.050 C
HETATM   34  C12 UNL     1      -7.607  29.539  25.985  1.00  0.00     0.186 C
HETATM   35  C13 UNL     1      -7.886  28.177  25.337  1.00  0.00     0.060 C
HETATM   36  C14 UNL     1      -8.516  28.468  23.995  1.00  0.00     0.116 C
HETATM   37  C17 UNL     1      -8.398  29.887  23.558  1.00  0.00     0.154 C
BRANCH  34  38
HETATM   38  N3  UNL     1      -7.111  29.338  27.312  1.00  0.00    -0.075 N
ATOM     39  H33 UNL     1      -7.178  28.362  27.603  1.00  0.00     0.274 HD
ATOM     40  H32 UNL     1      -6.096  29.436  27.361  1.00  0.00     0.274 HD
ATOM     41  H31 UNL     1      -7.590  29.966  27.957  1.00  0.00     0.274 HD
ENDBRANCH  34  38
BRANCH  36  42
HETATM   42  N4  UNL     1      -9.940  28.130  24.170  1.00  0.00    -0.354 N
HETATM   43  C15 UNL     1     -10.657  27.500  23.125  1.00  0.00     0.214 C
HETATM   44  C16 UNL     1     -12.086  27.150  23.279  1.00  0.00     0.117 C
HETATM   45  O3  UNL     1     -10.080  27.230  22.048  1.00  0.00    -0.274 OA
ATOM     46  H4  UNL     1     -10.412  28.351  25.048  1.00  0.00     0.162 HD
ENDBRANCH  36  42
BRANCH  37  47
HETATM   47  O4  UNL     1      -8.772  29.933  22.197  1.00  0.00    -0.392 OA
ATOM     48  H4  UNL     1      -9.629  30.333  22.101  1.00  0.00     0.210 HD
ENDBRANCH  37  47
ENDBRANCH  31  32
ENDBRANCH   3  31
BRANCH   4  49
HETATM   49  N5  UNL     1      -5.452  27.967  19.947  1.00  0.00    -0.072 N
ATOM     50  H53 UNL     1      -6.084  28.549  19.397  1.00  0.00     0.274 HD
ATOM     51  H52 UNL     1      -4.658  28.606  19.997  1.00  0.00     0.274 HD
ATOM     52  H51 UNL     1      -5.211  27.105  19.457  1.00  0.00     0.274 HD
ENDBRANCH   4  49
TORSDOF 15
ENDMDL