MODEL 1
REMARK VINA RESULT: -6.492705623      0.000      0.000
REMARK  15 active torsions:
REMARK  status: ('A' for Active; 'I' for Inactive)
REMARK    1  A    between atoms: C2_2  and  S1_3
REMARK    2  A    between atoms: S1_3  and  C3_4
REMARK    3  A    between atoms: C3_4  and  C4_5
REMARK    4  A    between atoms: C5_7  and  C6_8
REMARK    5  A    between atoms: C7_10  and  O2_11
REMARK    6  A    between atoms: O2_11  and  C8_12
REMARK    7  A    between atoms: C9_14  and  O4_15
REMARK    8  A    between atoms: O4_15  and  C10_16
REMARK    9  A    between atoms: C11_17  and  N1_18
REMARK   10  A    between atoms: C13_23  and  N2_24
REMARK   11  A    between atoms: C15_29  and  N3_30
REMARK   12  A    between atoms: C16_34  and  N4_35
REMARK   13  A    between atoms: C18_40  and  N5_41
REMARK   14  A    between atoms: C19_45  and  N6_46
REMARK   15  A    between atoms: C21_51  and  N7_52
ROOT
HETATM    1  C8  UNL     1      -5.936  27.971  24.115  1.00  0.00     0.294 C
HETATM    2  O3  UNL     1      -4.758  27.977  24.924  1.00  0.00    -0.327 OA
HETATM    3  C9  UNL     1      -3.903  26.924  24.617  1.00  0.00     0.293 C
HETATM    4  C16 UNL     1      -4.446  26.000  23.562  1.00  0.00     0.240 C
HETATM    5  C17 UNL     1      -4.756  26.783  22.335  1.00  0.00     0.075 C
HETATM    6  C18 UNL     1      -5.341  28.121  22.735  1.00  0.00     0.240 C
ENDROOT
BRANCH   1   7
HETATM    7  O2  UNL     1      -6.653  29.035  24.522  1.00  0.00    -0.349 OA
BRANCH   7   8
HETATM    8  C7  UNL     1      -6.276  29.774  25.614  1.00  0.00     0.184 C
HETATM    9  C5  UNL     1      -5.707  31.048  25.001  1.00  0.00     0.163 C
HETATM   10  O1  UNL     1      -5.138  31.950  25.772  1.00  0.00    -0.374 OA
HETATM   11  C4  UNL     1      -5.678  32.736  26.666  1.00  0.00     0.161 C
HETATM   12  C21 UNL     1      -7.085  32.464  27.117  1.00  0.00     0.215 C
HETATM   13  C20 UNL     1      -7.130  31.083  27.608  1.00  0.00     0.070 C
HETATM   14  C19 UNL     1      -7.254  29.948  26.694  1.00  0.00     0.217 C
BRANCH   9  15
HETATM   15  C6  UNL     1      -6.595  31.563  23.860  1.00  0.00     0.120 C
HETATM   16  S2  UNL     1      -5.586  32.514  22.697  1.00  0.00    -0.095 SA
ENDBRANCH   9  15
BRANCH  11  17
HETATM   17  C3  UNL     1      -5.632  34.186  26.233  1.00  0.00     0.108 C
BRANCH  17  18
HETATM   18  S1  UNL     1      -3.974  34.705  25.732  1.00  0.00    -0.167 SA
BRANCH  18  19
HETATM   19  C2  UNL     1      -2.858  34.491  27.139  1.00  0.00     0.069 C
HETATM   20  C1  UNL     1      -2.022  33.236  27.001  1.00  0.00     0.016 C
ENDBRANCH  18  19
ENDBRANCH  17  18
ENDBRANCH  11  17
BRANCH  12  21
HETATM   21  N7  UNL     1      -7.275  33.316  28.314  1.00  0.00    -0.072 N
ATOM     22  H73 UNL     1      -7.110  32.831  29.196  1.00  0.00     0.274 HD
ATOM     23  H72 UNL     1      -6.553  34.027  28.433  1.00  0.00     0.274 HD
ATOM     24  H71 UNL     1      -8.217  33.695  28.220  1.00  0.00     0.274 HD
ENDBRANCH  12  21
BRANCH  14  25
HETATM   25  N6  UNL     1      -7.094  28.801  27.629  1.00  0.00    -0.072 N
ATOM     26  H63 UNL     1      -7.939  28.236  27.715  1.00  0.00     0.274 HD
ATOM     27  H62 UNL     1      -6.484  28.071  27.263  1.00  0.00     0.274 HD
ATOM     28  H61 UNL     1      -6.775  29.177  28.522  1.00  0.00     0.274 HD
ENDBRANCH  14  25
ENDBRANCH   7   8
ENDBRANCH   1   7
BRANCH   6  29
HETATM   29  N5  UNL     1      -6.237  28.509  21.705  1.00  0.00    -0.070 N
ATOM     30  H53 UNL     1      -7.061  27.908  21.720  1.00  0.00     0.274 HD
ATOM     31  H52 UNL     1      -6.660  29.408  21.935  1.00  0.00     0.274 HD
ATOM     32  H51 UNL     1      -5.852  28.541  20.760  1.00  0.00     0.274 HD
ENDBRANCH   6  29
BRANCH   3  33
HETATM   33  O4  UNL     1      -3.720  26.218  25.766  1.00  0.00    -0.350 OA
BRANCH  33  34
HETATM   34  C10 UNL     1      -3.900  26.836  26.977  1.00  0.00     0.185 C
HETATM   35  C11 UNL     1      -2.851  27.770  27.399  1.00  0.00     0.216 C
HETATM   36  C12 UNL     1      -2.283  27.587  28.770  1.00  0.00     0.068 C
HETATM   37  C13 UNL     1      -2.424  26.225  29.365  1.00  0.00     0.187 C
HETATM   38  C14 UNL     1      -3.942  25.964  29.355  1.00  0.00     0.068 C
HETATM   39  C15 UNL     1      -4.250  25.707  27.919  1.00  0.00     0.216 C
BRANCH  35  40
HETATM   40  N1  UNL     1      -3.442  29.133  27.465  1.00  0.00    -0.072 N
ATOM     41  H13 UNL     1      -4.166  29.282  26.763  1.00  0.00     0.274 HD
ATOM     42  H12 UNL     1      -4.022  29.270  28.292  1.00  0.00     0.274 HD
ATOM     43  H11 UNL     1      -2.684  29.812  27.399  1.00  0.00     0.274 HD
ENDBRANCH  35  40
BRANCH  37  44
HETATM   44  N2  UNL     1      -2.013  26.259  30.734  1.00  0.00    -0.075 N
ATOM     45  H23 UNL     1      -1.069  25.895  30.863  1.00  0.00     0.274 HD
ATOM     46  H22 UNL     1      -1.847  27.210  31.064  1.00  0.00     0.274 HD
ATOM     47  H21 UNL     1      -2.699  25.766  31.307  1.00  0.00     0.274 HD
ENDBRANCH  37  44
BRANCH  39  48
HETATM   48  N3  UNL     1      -5.651  25.347  27.733  1.00  0.00    -0.072 N
ATOM     49  H33 UNL     1      -6.238  26.159  27.539  1.00  0.00     0.274 HD
ATOM     50  H32 UNL     1      -5.809  24.843  26.861  1.00  0.00     0.274 HD
ATOM     51  H31 UNL     1      -5.973  24.823  28.547  1.00  0.00     0.274 HD
ENDBRANCH  39  48
ENDBRANCH  33  34
ENDBRANCH   3  33
BRANCH   4  52
HETATM   52  N4  UNL     1      -3.386  25.053  23.204  1.00  0.00    -0.070 N
ATOM     53  H43 UNL     1      -3.349  24.862  22.203  1.00  0.00     0.274 HD
ATOM     54  H42 UNL     1      -2.452  25.451  23.300  1.00  0.00     0.274 HD
ATOM     55  H41 UNL     1      -3.516  24.211  23.763  1.00  0.00     0.274 HD
ENDBRANCH   4  52
TORSDOF 15
ENDMDL