MODEL 3
REMARK VINA RESULT: -7.560100723      0.970      1.221
REMARK  17 active torsions:
REMARK  status: ('A' for Active; 'I' for Inactive)
REMARK    1  A    between atoms: O1_2  and  C2_3
REMARK    2  A    between atoms: C2_3  and  C3_4
REMARK    3  A    between atoms: C3_4  and  C4_5
REMARK    4  A    between atoms: C5_6  and  C6_7
REMARK    5  A    between atoms: C5_6  and  C7_9
REMARK    6  A    between atoms: C7_9  and  O3_10
REMARK    7  A    between atoms: C7_9  and  O4_12
REMARK    8  A    between atoms: O4_12  and  C8_13
REMARK    9  A    between atoms: C8_13  and  C9_14
REMARK   10  A    between atoms: C13_18  and  O5_19
REMARK   11  A    between atoms: C14_21  and  O6_22
REMARK   12  A    between atoms: C15_24  and  O7_25
REMARK   13  A    between atoms: C16_27  and  O8_28
REMARK   14  A    between atoms: C17_30  and  C18_31
REMARK   15  A    between atoms: C18_31  and  O9_32
REMARK   16  A    between atoms: C19_35  and  O11_36
REMARK   17  A    between atoms: C24_42  and  O12_43
ROOT
HETATM    1  C9  UNL     1      -7.237  28.241  24.142  1.00  0.00     0.043 C
HETATM    2  C10 UNL     1      -7.363  27.041  25.036  1.00  0.00     0.024 C
HETATM    3  C11 UNL     1      -8.513  28.570  23.454  1.00  0.00     0.029 C
HETATM    4  C12 UNL     1      -9.754  28.186  24.245  1.00  0.00     0.014 C
HETATM    5  C13 UNL     1      -8.580  27.821  22.136  1.00  0.00     0.154 C
HETATM    6  C14 UNL     1      -7.546  28.367  21.209  1.00  0.00     0.190 C
HETATM    7  C15 UNL     1      -6.249  28.705  21.848  1.00  0.00     0.171 C
HETATM    8  C16 UNL     1      -5.141  27.984  21.056  1.00  0.00     0.192 C
HETATM    9  C17 UNL     1      -4.996  26.710  21.845  1.00  0.00     0.180 C
HETATM   10  O10 UNL     1      -6.027  26.654  22.766  1.00  0.00    -0.341 OA
HETATM   11  C19 UNL     1      -6.085  27.990  23.200  1.00  0.00     0.209 C
ENDROOT
BRANCH   1  12
HETATM   12  C8  UNL     1      -6.772  29.422  25.019  1.00  0.00     0.186 C
BRANCH  12  13
HETATM   13  O4  UNL     1      -6.591  29.069  26.334  1.00  0.00    -0.356 OA
BRANCH  13  14
HETATM   14  C7  UNL     1      -6.211  30.179  27.071  1.00  0.00     0.294 C
BRANCH  14  15
HETATM   15  C5  UNL     1      -4.702  30.236  27.230  1.00  0.00     0.030 C
HETATM   16  C4  UNL     1      -4.096  29.128  27.642  1.00  0.00    -0.009 C
BRANCH  16  17
HETATM   17  C3  UNL     1      -4.706  27.873  28.001  1.00  0.00     0.068 C
BRANCH  17  18
HETATM   18  C2  UNL     1      -3.716  26.725  28.245  1.00  0.00     0.089 C
HETATM   19  C20 UNL     1      -4.488  25.612  28.879  1.00  0.00     0.041 C
HETATM   20  C21 UNL     1      -3.589  24.506  29.314  1.00  0.00     0.003 C
HETATM   21  C22 UNL     1      -2.738  25.008  30.462  1.00  0.00     0.003 C
HETATM   22  C23 UNL     1      -2.420  26.457  30.421  1.00  0.00     0.035 C
HETATM   23  C24 UNL     1      -2.587  27.173  29.147  1.00  0.00     0.153 C
BRANCH  18  24
HETATM   24  O1  UNL     1      -3.115  26.314  27.084  1.00  0.00    -0.382 OA
HETATM   25  C1  UNL     1      -3.886  26.104  25.982  1.00  0.00     0.202 C
ENDBRANCH  18  24
BRANCH  23  26
HETATM   26  O12 UNL     1      -1.358  27.024  28.399  1.00  0.00    -0.393 OA
ATOM     27  H12 UNL     1      -0.736  26.583  28.966  1.00  0.00     0.210 HD
ENDBRANCH  23  26
ENDBRANCH  17  18
ENDBRANCH  16  17
BRANCH  15  28
HETATM   28  C6  UNL     1      -4.006  31.420  26.901  1.00  0.00     0.270 C
HETATM   29  O2  UNL     1      -4.047  32.259  25.909  1.00  0.00    -0.302 OA
ENDBRANCH  15  28
ENDBRANCH  14  15
BRANCH  14  30
HETATM   30  O3  UNL     1      -6.652  31.330  26.386  1.00  0.00    -0.367 OA
ATOM     31  H3  UNL     1      -6.984  31.961  27.013  1.00  0.00     0.213 HD
ENDBRANCH  14  30
ENDBRANCH  13  14
ENDBRANCH  12  13
ENDBRANCH   1  12
BRANCH  11  32
HETATM   32  O11 UNL     1      -4.858  28.332  23.702  1.00  0.00    -0.362 OA
ATOM     33  H11 UNL     1      -4.235  27.616  23.738  1.00  0.00     0.213 HD
ENDBRANCH  11  32
BRANCH   5  34
HETATM   34  O5  UNL     1      -9.871  28.027  21.578  1.00  0.00    -0.392 OA
ATOM     35  H5  UNL     1     -10.013  27.366  20.910  1.00  0.00     0.210 HD
ENDBRANCH   5  34
BRANCH   7  36
HETATM   36  O7  UNL     1      -5.987  30.043  21.983  1.00  0.00    -0.379 OA
ATOM     37  H7  UNL     1      -5.194  30.260  22.459  1.00  0.00     0.211 HD
ENDBRANCH   7  36
BRANCH   6  38
HETATM   38  O6  UNL     1      -8.044  29.500  20.545  1.00  0.00    -0.390 OA
ATOM     39  H6  UNL     1      -7.328  30.075  20.300  1.00  0.00     0.210 HD
ENDBRANCH   6  38
BRANCH   8  40
HETATM   40  O8  UNL     1      -5.481  27.832  19.746  1.00  0.00    -0.390 OA
ATOM     41  H8  UNL     1      -4.730  27.590  19.217  1.00  0.00     0.210 HD
ENDBRANCH   8  40
BRANCH   9  42
HETATM   42  C18 UNL     1      -4.788  25.500  21.022  1.00  0.00     0.199 C
BRANCH  42  43
HETATM   43  O9  UNL     1      -3.739  25.543  20.124  1.00  0.00    -0.398 OA
ATOM     44  H9  UNL     1      -3.969  25.488  19.204  1.00  0.00     0.209 HD
ENDBRANCH  42  43
ENDBRANCH   9  42
TORSDOF 17
ENDMDL