MODEL 2
REMARK VINA RESULT: -10.421971933      0.386      1.423
REMARK  13 active torsions:
REMARK  status: ('A' for Active; 'I' for Inactive)
REMARK    1  A    between atoms: N1_1  and  C1_4
REMARK    2  A    between atoms: C2_7  and  N3_8
REMARK    3  A    between atoms: C3_13  and  N5_14
REMARK       I    between atoms: N5_14  and  C4_16
REMARK    4  A    between atoms: C4_16  and  C5_18
REMARK    5  A    between atoms: N6_20  and  C7_21
REMARK    6  A    between atoms: C7_21  and  C8_22
REMARK    7  A    between atoms: C7_21  and  C17_39
REMARK    8  A    between atoms: C8_22  and  C9_24
REMARK    9  A    between atoms: C9_24  and  N7_25
REMARK   10  A    between atoms: C11_27  and  N8_28
REMARK   11  A    between atoms: C17_39  and  O3_40
REMARK   12  A    between atoms: C17_39  and  O4_42
REMARK   13  A    between atoms: C18_44  and  N11_45
ROOT
HETATM    1  C5  UNL     1      -3.068  24.270  31.743  1.00  0.00     0.120 A
HETATM    2  C6  UNL     1      -3.775  24.854  30.751  1.00  0.00     0.130 A
HETATM    3  N6  UNL     1      -3.049  25.927  30.256  1.00  0.00    -0.305 N
HETATM    4  C18 UNL     1      -1.921  25.987  30.943  1.00  0.00     0.253 A
HETATM    5  N12 UNL     1      -1.951  24.954  31.861  1.00  0.00    -0.317 N
ATOM      6  H12 UNL     1      -1.212  24.752  32.533  1.00  0.00     0.169 HD
ENDROOT
BRANCH   3   7
HETATM    7  C7  UNL     1      -3.632  26.654  29.191  1.00  0.00     0.218 C
BRANCH   7   8
HETATM    8  C8  UNL     1      -3.752  25.625  28.057  1.00  0.00     0.173 C
HETATM    9  O2  UNL     1      -2.762  25.037  27.708  1.00  0.00    -0.294 OA
BRANCH   8  10
HETATM   10  C9  UNL     1      -5.044  25.372  27.419  1.00  0.00     0.227 C
BRANCH  10  11
HETATM   11  N7  UNL     1      -5.250  26.198  26.250  1.00  0.00    -0.183 N
HETATM   12  C10 UNL     1      -4.783  26.058  24.994  1.00  0.00     0.158 A
HETATM   13  C11 UNL     1      -5.268  27.076  24.181  1.00  0.00     0.135 A
HETATM   14  N9  UNL     1      -6.029  27.828  24.970  1.00  0.00    -0.175 N
HETATM   15  C16 UNL     1      -6.033  27.326  26.194  1.00  0.00     0.679 A
ATOM     16  H9  UNL     1      -6.534  28.664  24.676  1.00  0.00     0.186 HD
HETATM   17  N10 UNL     1      -6.648  27.772  27.240  1.00  0.00    -0.234 N
ATOM     18 2H10 UNL     1      -6.650  27.386  28.184  1.00  0.00     0.174 HD
ATOM     19 1H10 UNL     1      -7.229  28.610  27.199  1.00  0.00     0.174 HD
BRANCH  13  20
HETATM   20  N8  UNL     1      -4.982  27.217  22.808  1.00  0.00    -0.366 N
HETATM   21  C12 UNL     1      -4.086  26.369  22.045  1.00  0.00     0.124 C
HETATM   22  C13 UNL     1      -4.892  26.126  20.796  1.00  0.00     0.021 C
HETATM   23  C14 UNL     1      -5.814  27.332  20.653  1.00  0.00     0.021 C
HETATM   24  C15 UNL     1      -5.475  28.197  21.863  1.00  0.00     0.124 C
ENDBRANCH  13  20
ENDBRANCH  10  11
ENDBRANCH   8  10
ENDBRANCH   7   8
BRANCH   7  25
HETATM   25  C17 UNL     1      -3.062  27.885  28.644  1.00  0.00     0.284 C
BRANCH  25  26
HETATM   26  O3  UNL     1      -2.196  27.507  27.521  1.00  0.00    -0.369 OA
ATOM     27  H3  UNL     1      -1.454  28.100  27.521  1.00  0.00     0.212 HD
ENDBRANCH  25  26
BRANCH  25  28
HETATM   28  O4  UNL     1      -3.947  28.777  28.060  1.00  0.00    -0.369 OA
ATOM     29  H4  UNL     1      -3.739  29.700  28.141  1.00  0.00     0.212 HD
ENDBRANCH  25  28
ENDBRANCH   7  25
ENDBRANCH   3   7
BRANCH   4  30
HETATM   30  N11 UNL     1      -0.792  26.857  30.876  1.00  0.00    -0.079 N
HETATM   31  O5  UNL     1      -0.123  27.177  29.939  1.00  0.00    -0.529 OA
HETATM   32  O6  UNL     1      -0.380  27.424  32.097  1.00  0.00    -0.529 OA
ENDBRANCH   4  30
BRANCH   1  33
HETATM   33  C4  UNL     1      -3.458  23.055  32.535  1.00  0.00     0.287 C
HETATM   34  N5  UNL     1      -2.678  22.676  33.631  1.00  0.00    -0.153 N
ATOM     35  H5  UNL     1      -1.688  22.901  33.532  1.00  0.00     0.187 HD
HETATM   36  O1  UNL     1      -4.474  22.430  32.166  1.00  0.00    -0.265 OA
BRANCH  34  37
HETATM   37  C3  UNL     1      -2.968  22.113  34.715  1.00  0.00     0.714 A
HETATM   38  N4  UNL     1      -3.311  22.720  35.861  1.00  0.00    -0.021 N
HETATM   39  C2  UNL     1      -3.621  22.047  36.989  1.00  0.00     0.705 A
ATOM     40  H4  UNL     1      -3.338  23.740  35.880  1.00  0.00     0.203 HD
HETATM   41  N2  UNL     1      -3.597  20.699  37.010  1.00  0.00    -0.022 N
HETATM   42  C1  UNL     1      -3.253  20.081  35.861  1.00  0.00     0.705 A
ATOM     43  H2  UNL     1      -3.829  20.173  37.852  1.00  0.00     0.203 HD
HETATM   44  N13 UNL     1      -2.946  20.754  34.745  1.00  0.00    -0.021 N
ATOM     45  H13 UNL     1      -2.693  20.238  33.903  1.00  0.00     0.203 HD
BRANCH  39  46
HETATM   46  N3  UNL     1      -3.955  22.678  38.093  1.00  0.00    -0.234 N
ATOM     47  H32 UNL     1      -4.878  23.096  38.208  1.00  0.00     0.174 HD
ATOM     48  H31 UNL     1      -3.263  22.740  38.840  1.00  0.00     0.174 HD
ENDBRANCH  39  46
BRANCH  42  49
HETATM   49  N1  UNL     1      -3.244  18.771  35.872  1.00  0.00    -0.234 N
ATOM     50  H12 UNL     1      -3.818  18.255  36.539  1.00  0.00     0.174 HD
ATOM     51  H11 UNL     1      -2.634  18.307  35.199  1.00  0.00     0.174 HD
ENDBRANCH  42  49
ENDBRANCH  34  37
ENDBRANCH   1  33
TORSDOF 13
ENDMDL