MODEL 2
REMARK VINA RESULT: -7.879411477      1.104      1.447
REMARK  6 active torsions:
REMARK  status: ('A' for Active; 'I' for Inactive)
REMARK    1  A    between atoms: N3_4  and  N4_6
REMARK    2  A    between atoms: C2_8  and  C3_9
REMARK    3  A    between atoms: C4_10  and  S1_11
REMARK    4  A    between atoms: N6_17  and  N7_18
REMARK    5  A    between atoms: N8_21  and  C5_22
REMARK    6  A    between atoms: C6_25  and  O4_26
ROOT
HETATM    1  C3  UNL     1       5.982  10.332  51.872  1.00  0.00     0.112 C
HETATM    2  C4  UNL     1       6.441   9.306  52.567  1.00  0.00     0.193 C
HETATM    3  N5  UNL     1       5.352   8.451  52.941  1.00  0.00    -0.268 N
ATOM      4  H5  UNL     1       5.431   7.489  53.272  1.00  0.00     0.185 HD
HETATM    5  N6  UNL     1       4.183   9.155  52.776  1.00  0.00    -0.039 NA
HETATM    6  N8  UNL     1       4.542  10.157  51.841  1.00  0.00    -0.226 N
ENDROOT
BRANCH   1   7
HETATM    7  C2  UNL     1       6.633  11.444  51.228  1.00  0.00     0.141 C
HETATM    8  N4  UNL     1       6.474  11.754  50.010  1.00  0.00    -0.307 N
ATOM      9  H4  UNL     1       5.841  11.168  49.466  1.00  0.00     0.186 HD
BRANCH   8  10
HETATM   10  N3  UNL     1       7.070  12.801  49.348  1.00  0.00    -0.276 N
HETATM   11  C1  UNL     1       6.469  13.404  48.397  1.00  0.00     0.215 C
HETATM   12  N1  UNL     1       5.174  13.049  47.961  1.00  0.00    -0.065 NA
HETATM   13  N2  UNL     1       7.146  14.481  47.756  1.00  0.00    -0.065 NA
ATOM     14  H3  UNL     1       8.006  13.101  49.622  1.00  0.00     0.189 HD
ENDBRANCH   8  10
ENDBRANCH   1   7
BRANCH   2  15
HETATM   15  S1  UNL     1       8.090   8.973  52.940  1.00  0.00     0.158 S
HETATM   16  O1  UNL     1       8.925   9.054  51.648  1.00  0.00    -0.590 OA
HETATM   17  O2  UNL     1       8.312   7.591  53.431  1.00  0.00    -0.590 OA
HETATM   18  O3  UNL     1       8.781  10.147  53.940  1.00  0.00    -0.590 OA
ENDBRANCH   2  15
BRANCH   6  19
HETATM   19  C5  UNL     1       3.561  10.835  51.033  1.00  0.00     0.361 C
HETATM   20  N9  UNL     1       2.361  11.068  51.805  1.00  0.00    -0.089 NA
HETATM   21  N10 UNL     1       1.375  11.150  50.842  1.00  0.00    -0.085 NA
HETATM   22  C6  UNL     1       1.986  10.844  49.563  1.00  0.00     0.377 C
HETATM   23  O5  UNL     1       3.083  10.055  49.980  1.00  0.00    -0.304 OA
BRANCH  22  24
HETATM   24  O4  UNL     1       2.459  12.021  49.009  1.00  0.00    -0.357 OA
ATOM     25  H4  UNL     1       2.601  11.881  48.080  1.00  0.00     0.214 HD
ENDBRANCH  22  24
ENDBRANCH   6  19
BRANCH   5  26
HETATM   26  N7  UNL     1       3.136   8.398  52.255  1.00  0.00    -0.327 NA
ATOM     27  H72 UNL     1       2.266   8.670  52.713  1.00  0.00     0.174 HD
ATOM     28  H71 UNL     1       2.945   8.581  51.270  1.00  0.00     0.174 HD
ENDBRANCH   5  26
TORSDOF 6
ENDMDL