MODEL 1
REMARK VINA RESULT: -8.316840859      0.000      0.000
REMARK  9 active torsions:
REMARK  status: ('A' for Active; 'I' for Inactive)
REMARK    1  A    between atoms: N1_1  and  N2_4
REMARK    2  A    between atoms: C1_5  and  N3_6
REMARK       I    between atoms: N3_6  and  C2_8
REMARK    3  A    between atoms: C2_8  and  C3_10
REMARK    4  A    between atoms: C3_10  and  O2_11
REMARK    5  A    between atoms: C3_10  and  C4_13
REMARK    6  A    between atoms: C4_13  and  O3_14
REMARK    7  A    between atoms: C5_16  and  O4_17
REMARK    8  A    between atoms: C5_16  and  O5_19
REMARK    9  A    between atoms: C6_21  and  N4_22
ROOT
HETATM    1  N2  UNL     1       6.587   8.056  53.357  1.00  0.00    -0.179 NA
HETATM    2  C1  UNL     1       6.386   9.117  54.321  1.00  0.00     0.247 A
HETATM    3  C5  UNL     1       7.129  10.061  53.447  1.00  0.00     0.232 A
HETATM    4  C6  UNL     1       7.219   8.939  52.417  1.00  0.00     0.254 A
ENDROOT
BRANCH   4   5
HETATM    5  N4  UNL     1       6.460   9.182  51.208  1.00  0.00    -0.302 N
HETATM    6  C7  UNL     1       6.939   9.739  50.085  1.00  0.00     0.187 A
HETATM    7  N5  UNL     1       5.942   9.804  49.171  1.00  0.00    -0.345 N
HETATM    8  C8  UNL     1       4.842   9.286  49.728  1.00  0.00     0.146 A
ATOM      9  H5  UNL     1       6.017  10.180  48.226  1.00  0.00     0.167 HD
HETATM   10  C9  UNL     1       3.542   9.100  49.253  1.00  0.00     0.277 A
HETATM   11  C11 UNL     1       5.162   8.888  51.023  1.00  0.00     0.143 A
HETATM   12  O6  UNL     1       3.236   9.456  48.079  1.00  0.00    -0.266 OA
HETATM   13  N6  UNL     1       2.604   8.546  50.027  1.00  0.00    -0.318 N
HETATM   14  C10 UNL     1       2.933   8.167  51.282  1.00  0.00     0.185 A
ATOM     15  H6  UNL     1       1.656   8.412  49.676  1.00  0.00     0.169 HD
HETATM   16  N7  UNL     1       4.180   8.337  51.758  1.00  0.00    -0.336 N
ATOM     17  H7  UNL     1       4.389   8.037  52.711  1.00  0.00     0.168 HD
ENDBRANCH   4   5
BRANCH   1  18
HETATM   18  N1  UNL     1       7.378   7.050  53.888  1.00  0.00    -0.359 NA
ATOM     19  H12 UNL     1       7.941   6.517  53.226  1.00  0.00     0.171 HD
ATOM     20  H11 UNL     1       8.200   7.438  54.349  1.00  0.00     0.171 HD
ENDBRANCH   1  18
BRANCH   3  21
HETATM   21  O4  UNL     1       6.420  11.182  53.001  1.00  0.00    -0.360 OA
ATOM     22  H4  UNL     1       6.929  11.969  52.851  1.00  0.00     0.213 HD
ENDBRANCH   3  21
BRANCH   3  23
HETATM   23  O5  UNL     1       8.387  10.456  53.877  1.00  0.00    -0.360 OA
ATOM     24  H5  UNL     1       8.858  11.068  53.323  1.00  0.00     0.213 HD
ENDBRANCH   3  23
BRANCH   2  25
HETATM   25  N3  UNL     1       6.919   8.873  55.629  1.00  0.00    -0.335 N
HETATM   26  C2  UNL     1       6.272   8.009  56.564  1.00  0.00     0.250 C
HETATM   27  O1  UNL     1       5.202   7.464  56.187  1.00  0.00    -0.271 OA
ATOM     28  H3  UNL     1       7.788   9.331  55.901  1.00  0.00     0.164 HD
BRANCH  26  29
HETATM   29  C3  UNL     1       6.799   7.746  57.905  1.00  0.00     0.233 C
BRANCH  29  30
HETATM   30  O2  UNL     1       7.142   6.405  58.007  1.00  0.00    -0.384 OA
ATOM     31  H2  UNL     1       6.974   6.106  58.892  1.00  0.00     0.210 HD
ENDBRANCH  29  30
BRANCH  29  32
HETATM   32  C4  UNL     1       8.036   8.573  58.161  1.00  0.00     0.205 C
BRANCH  32  33
HETATM   33  O3  UNL     1       9.196   7.863  57.914  1.00  0.00    -0.398 OA
ATOM     34  H3  UNL     1       9.563   8.064  57.061  1.00  0.00     0.209 HD
ENDBRANCH  32  33
ENDBRANCH  29  32
ENDBRANCH  26  29
ENDBRANCH   2  25
TORSDOF 9
ENDMDL