MODEL 3
REMARK VINA RESULT: -7.386785598      2.661      6.662
REMARK  9 active torsions:
REMARK  status: ('A' for Active; 'I' for Inactive)
REMARK    1  A    between atoms: N1_1  and  C1_4
REMARK    2  A    between atoms: C2_7  and  C3_8
REMARK    3  A    between atoms: C3_8  and  O1_9
REMARK    4  A    between atoms: C3_8  and  O2_11
REMARK    5  A    between atoms: N4_20  and  N5_21
REMARK       I    between atoms: N5_21  and  C7_23
REMARK    6  A    between atoms: C7_23  and  C8_25
REMARK    7  A    between atoms: C8_25  and  N6_26
REMARK    8  A    between atoms: C8_25  and  C9_30
REMARK    9  A    between atoms: C9_30  and  N7_31
ROOT
HETATM    1  C1  UNL     1       4.107   8.827  52.621  1.00  0.00     0.677 A
HETATM    2  N2  UNL     1       3.212   8.612  51.682  1.00  0.00    -0.190 N
ATOM      3  H2  UNL     1       2.505   7.893  51.836  1.00  0.00     0.184 HD
HETATM    4  C2  UNL     1       3.190   9.323  50.493  1.00  0.00     0.100 A
HETATM    5  C4  UNL     1       4.177  10.276  50.361  1.00  0.00     0.107 A
HETATM    6  C5  UNL     1       4.225  11.008  49.208  1.00  0.00     0.265 A
HETATM    7  O3  UNL     1       3.419  10.849  48.296  1.00  0.00    -0.267 OA
HETATM    8  N3  UNL     1       5.170  11.936  49.034  1.00  0.00    -0.273 N
ATOM      9  H3  UNL     1       5.198  12.480  48.172  1.00  0.00     0.173 HD
HETATM   10  C6  UNL     1       6.090  12.157  50.005  1.00  0.00     0.350 A
HETATM   11  O4  UNL     1       6.952  13.054  49.766  1.00  0.00    -0.244 OA
HETATM   12  N4  UNL     1       6.098  11.471  51.158  1.00  0.00    -0.184 N
HETATM   13  C10 UNL     1       5.119  10.496  51.358  1.00  0.00     0.165 A
HETATM   14  N8  UNL     1       5.060   9.764  52.467  1.00  0.00    -0.174 N
ATOM     15  H8  UNL     1       5.745   9.914  53.209  1.00  0.00     0.186 HD
ENDROOT
BRANCH  12  16
HETATM   16  N5  UNL     1       7.009  11.642  52.178  1.00  0.00    -0.256 N
HETATM   17  C7  UNL     1       7.950  10.792  52.741  1.00  0.00     0.269 C
HETATM   18  O5  UNL     1       8.176   9.628  52.423  1.00  0.00    -0.269 OA
ATOM     19  H5  UNL     1       6.988  12.570  52.599  1.00  0.00     0.191 HD
BRANCH  17  20
HETATM   20  C8  UNL     1       8.834  11.294  53.887  1.00  0.00     0.301 C
BRANCH  20  21
HETATM   21  N6  UNL     1       8.428  12.617  54.234  1.00  0.00    -0.065 N
ATOM     22  H63 UNL     1       8.054  13.131  53.436  1.00  0.00     0.275 HD
ATOM     23  H62 UNL     1       7.590  12.628  54.815  1.00  0.00     0.275 HD
ATOM     24  H61 UNL     1       9.214  13.097  54.673  1.00  0.00     0.275 HD
ENDBRANCH  20  21
BRANCH  20  25
HETATM   25  C9  UNL     1       8.728  10.359  55.058  1.00  0.00     0.272 C
BRANCH  25  26
HETATM   26  N7  UNL     1       7.374   9.946  55.326  1.00  0.00    -0.077 N
ATOM     27  H73 UNL     1       7.160  10.023  56.320  1.00  0.00     0.274 HD
ATOM     28  H72 UNL     1       6.707  10.623  54.958  1.00  0.00     0.274 HD
ATOM     29  H71 UNL     1       7.169   9.007  54.982  1.00  0.00     0.274 HD
ENDBRANCH  25  26
ENDBRANCH  20  25
ENDBRANCH  17  20
ENDBRANCH  12  16
BRANCH   4  30
HETATM   30  C3  UNL     1       2.132   9.012  49.554  1.00  0.00     0.306 C
BRANCH  30  31
HETATM   31  O1  UNL     1       2.573   8.157  48.509  1.00  0.00    -0.366 OA
ATOM     32  H1  UNL     1       2.033   8.231  47.731  1.00  0.00     0.213 HD
ENDBRANCH  30  31
BRANCH  30  33
HETATM   33  O2  UNL     1       1.383   7.996  50.307  1.00  0.00    -0.366 OA
ATOM     34  H2  UNL     1       0.599   7.922  49.777  1.00  0.00     0.213 HD
ENDBRANCH  30  33
ENDBRANCH   4  30
BRANCH   1  35
HETATM   35  N1  UNL     1       4.048   8.105  53.712  1.00  0.00    -0.234 N
ATOM     36  H12 UNL     1       3.444   7.284  53.761  1.00  0.00     0.174 HD
ATOM     37  H11 UNL     1       4.620   8.385  54.509  1.00  0.00     0.174 HD
ENDBRANCH   1  35
TORSDOF 9
ENDMDL