MODEL 4
REMARK VINA RESULT: -8.523862137      2.325      3.221
REMARK  7 active torsions:
REMARK  status: ('A' for Active; 'I' for Inactive)
REMARK    1  A    between atoms: C3_5  and  C4_6
REMARK       I    between atoms: C4_6  and  N3_8
REMARK    2  A    between atoms: N3_8  and  N4_10
REMARK    3  A    between atoms: N4_10  and  N5_11
REMARK    4  A    between atoms: N5_11  and  C5_12
REMARK    5  A    between atoms: C7_15  and  O3_16
REMARK    6  A    between atoms: C8_18  and  O4_19
REMARK    7  A    between atoms: C9_21  and  O5_22
ROOT
HETATM    1  C4  UNL     1       6.817  11.070  51.928  1.00  0.00     0.277 C
HETATM    2  O1  UNL     1       7.336  10.944  50.769  1.00  0.00    -0.266 OA
HETATM    3  N3  UNL     1       5.614  11.773  52.001  1.00  0.00    -0.253 N
ATOM      4  H3  UNL     1       5.160  11.902  52.905  1.00  0.00     0.187 HD
ENDROOT
BRANCH   3   5
HETATM    5  N4  UNL     1       5.015  12.311  50.831  1.00  0.00    -0.028 NA
BRANCH   5   6
HETATM    6  N5  UNL     1       3.647  12.076  50.820  1.00  0.00    -0.111 NA
BRANCH   6   7
HETATM    7  C5  UNL     1       3.286  11.238  49.719  1.00  0.00     0.200 C
HETATM    8  C6  UNL     1       2.051  10.480  50.068  1.00  0.00     0.181 C
HETATM    9  O2  UNL     1       1.020  11.009  50.428  1.00  0.00    -0.293 OA
HETATM   10  C7  UNL     1       2.376   9.034  49.876  1.00  0.00     0.220 C
HETATM   11  C8  UNL     1       3.856   9.030  50.268  1.00  0.00     0.185 C
HETATM   12  C9  UNL     1       4.352  10.223  49.467  1.00  0.00     0.177 C
BRANCH  10  13
HETATM   13  O3  UNL     1       2.212   8.691  48.537  1.00  0.00    -0.385 OA
ATOM     14  H3  UNL     1       2.029   7.762  48.466  1.00  0.00     0.210 HD
ENDBRANCH  10  13
BRANCH  11  15
HETATM   15  O4  UNL     1       3.915   9.321  51.625  1.00  0.00    -0.390 OA
ATOM     16  H4  UNL     1       4.453   8.649  52.028  1.00  0.00     0.210 HD
ENDBRANCH  11  15
BRANCH  12  17
HETATM   17  O5  UNL     1       4.276   9.882  48.098  1.00  0.00    -0.391 OA
ATOM     18  H5  UNL     1       4.442   8.948  48.038  1.00  0.00     0.210 HD
ENDBRANCH  12  17
ENDBRANCH   6   7
ENDBRANCH   5   6
ENDBRANCH   3   5
BRANCH   1  19
HETATM   19  C3  UNL     1       7.531  10.473  53.022  1.00  0.00     0.142 A
HETATM   20  C2  UNL     1       8.133  11.274  54.013  1.00  0.00     0.143 A
HETATM   21  N1  UNL     1       8.806  10.796  55.051  1.00  0.00    -0.291 N
HETATM   22  N2  UNL     1       8.009  12.684  53.885  1.00  0.00    -0.081 NA
HETATM   23  C1  UNL     1       9.407  11.698  56.049  1.00  0.00     0.162 C
HETATM   24  C11 UNL     1       8.934   9.463  55.186  1.00  0.00     0.330 A
HETATM   25  N6  UNL     1       8.389   8.629  54.283  1.00  0.00    -0.274 N
HETATM   26  O7  UNL     1       9.581   9.030  56.186  1.00  0.00    -0.246 OA
HETATM   27  C10 UNL     1       7.697   9.126  53.214  1.00  0.00     0.268 A
ATOM     28  H6  UNL     1       8.491   7.621  54.397  1.00  0.00     0.173 HD
HETATM   29  O6  UNL     1       7.228   8.270  52.430  1.00  0.00    -0.267 OA
ENDBRANCH   1  19
TORSDOF 7
ENDMDL