MODEL 1
REMARK VINA RESULT: -9.147010981      0.000      0.000
REMARK  9 active torsions:
REMARK  status: ('A' for Active; 'I' for Inactive)
REMARK    1  A    between atoms: N1_1  and  C1_5
REMARK    2  A    between atoms: C2_9  and  O1_10
REMARK    3  A    between atoms: O1_10  and  N3_11
REMARK       I    between atoms: N3_11  and  C3_13
REMARK    4  A    between atoms: C3_13  and  C4_15
REMARK    5  A    between atoms: C4_15  and  O3_16
REMARK    6  A    between atoms: C5_19  and  C6_20
REMARK    7  A    between atoms: C8_24  and  O7_25
REMARK    8  A    between atoms: C8_24  and  C9_27
REMARK    9  A    between atoms: C10_30  and  O10_31
ROOT
HETATM    1  C4  UNL     1       5.839  10.437  50.128  1.00  0.00     0.283 C
HETATM    2  O4  UNL     1       4.488  10.269  50.503  1.00  0.00    -0.296 OA
HETATM    3  C5  UNL     1       3.450  11.075  50.073  1.00  0.00     0.149 C
HETATM    4  C7  UNL     1       3.670  11.864  49.039  1.00  0.00     0.068 C
HETATM    5  C8  UNL     1       4.987  11.882  48.363  1.00  0.00     0.198 C
HETATM    6  C10 UNL     1       6.035  11.777  49.451  1.00  0.00     0.240 C
ENDROOT
BRANCH   1   7
HETATM    7  C3  UNL     1       6.748  10.354  51.307  1.00  0.00     0.307 C
HETATM    8  N3  UNL     1       7.019   9.091  51.873  1.00  0.00    -0.225 N
ATOM      9  H3  UNL     1       6.598   8.250  51.480  1.00  0.00     0.197 HD
HETATM   10  O2  UNL     1       7.235  11.426  51.747  1.00  0.00    -0.265 OA
BRANCH   8  11
HETATM   11  O1  UNL     1       7.841   9.006  52.940  1.00  0.00    -0.215 OA
BRANCH  11  12
HETATM   12  C2  UNL     1       7.272   8.097  53.829  1.00  0.00     0.500 C
HETATM   13  N2  UNL     1       5.877   8.337  54.127  1.00  0.00     0.029 N
HETATM   14  C1  UNL     1       6.303   8.436  55.497  1.00  0.00     0.530 C
ATOM     15  H22 UNL     1       5.143   7.691  53.835  1.00  0.00     0.288 HD
ATOM     16  H21 UNL     1       5.347   9.080  53.672  1.00  0.00     0.288 HD
HETATM   17  O11 UNL     1       7.629   8.491  55.139  1.00  0.00    -0.282 OA
BRANCH  14  18
HETATM   18  N1  UNL     1       6.045   7.267  56.313  1.00  0.00    -0.027 N
ATOM     19  H13 UNL     1       5.252   7.440  56.932  1.00  0.00     0.279 HD
ATOM     20  H12 UNL     1       5.665   6.515  55.738  1.00  0.00     0.279 HD
ATOM     21  H11 UNL     1       6.841   6.926  56.852  1.00  0.00     0.279 HD
ENDBRANCH  14  18
ENDBRANCH  11  12
ENDBRANCH   8  11
ENDBRANCH   1   7
BRANCH   1  22
HETATM   22  O3  UNL     1       6.190   9.473  49.166  1.00  0.00    -0.356 OA
ATOM     23  H3  UNL     1       6.258   8.614  49.566  1.00  0.00     0.213 HD
ENDBRANCH   1  22
BRANCH   6  24
HETATM   24  O10 UNL     1       7.317  11.932  48.999  1.00  0.00    -0.386 OA
ATOM     25  H10 UNL     1       7.418  11.605  48.113  1.00  0.00     0.210 HD
ENDBRANCH   6  24
BRANCH   3  26
HETATM   26  C6  UNL     1       2.137  11.052  50.753  1.00  0.00     0.233 C
HETATM   27  O5  UNL     1       1.103  11.106  50.052  1.00  0.00    -0.642 OA
HETATM   28  O6  UNL     1       2.135  10.971  52.137  1.00  0.00    -0.642 OA
ENDBRANCH   3  26
BRANCH   5  29
HETATM   29  O7  UNL     1       5.169  10.827  47.503  1.00  0.00    -0.373 OA
ATOM     30  H7  UNL     1       4.357  10.508  47.126  1.00  0.00     0.211 HD
ENDBRANCH   5  29
BRANCH   5  31
HETATM   31  C9  UNL     1       5.155  13.153  47.627  1.00  0.00     0.216 C
HETATM   32  O8  UNL     1       4.523  13.330  46.558  1.00  0.00    -0.645 OA
HETATM   33  O9  UNL     1       6.001  14.121  48.126  1.00  0.00    -0.645 OA
ENDBRANCH   5  31
TORSDOF 9
ENDMDL