MODEL 1
REMARK VINA RESULT: -8.522039464      0.000      0.000
REMARK  9 active torsions:
REMARK  status: ('A' for Active; 'I' for Inactive)
REMARK    1  A    between atoms: C2_2  and  N1_3
REMARK    2  A    between atoms: C2_2  and  C9_28
REMARK    3  A    between atoms: C3_5  and  O1_6
REMARK    4  A    between atoms: C3_5  and  C4_8
REMARK    5  A    between atoms: C4_8  and  N2_9
REMARK    6  A    between atoms: C4_8  and  C5_13
REMARK    7  A    between atoms: N2_9  and  N3_10
REMARK    8  A    between atoms: C6_16  and  N5_17
REMARK    9  A    between atoms: C10_31  and  O4_32
ROOT
HETATM    1  C4  UNL     1       3.347   9.396  49.655  1.00  0.00     0.228 C
ENDROOT
BRANCH   1   2
HETATM    2  C3  UNL     1       3.856   9.419  48.278  1.00  0.00     0.143 C
HETATM    3  N1  UNL     1       4.456  10.411  47.559  1.00  0.00    -0.343 N
ATOM      4  H1  UNL     1       5.208   9.973  47.028  1.00  0.00     0.167 HD
BRANCH   3   5
HETATM    5  C2  UNL     1       4.475  11.597  47.281  1.00  0.00     0.030 C
HETATM    6  C1  UNL     1       3.871  12.231  46.095  1.00  0.00     0.068 C
BRANCH   5   7
HETATM    7  C9  UNL     1       5.173  12.535  48.217  1.00  0.00     0.280 C
HETATM    8  N8  UNL     1       6.348  11.902  48.799  1.00  0.00    -0.105 NA
HETATM    9  N9  UNL     1       6.969  13.010  49.398  1.00  0.00    -0.086 NA
HETATM   10  C10 UNL     1       6.699  14.087  48.464  1.00  0.00     0.376 C
HETATM   11  O5  UNL     1       5.730  13.615  47.577  1.00  0.00    -0.318 OA
BRANCH  10  12
HETATM   12  O4  UNL     1       7.900  14.378  47.825  1.00  0.00    -0.357 OA
ATOM     13  H4  UNL     1       7.683  14.876  47.045  1.00  0.00     0.214 HD
ENDBRANCH  10  12
ENDBRANCH   5   7
ENDBRANCH   3   5
BRANCH   2  14
HETATM   14  O1  UNL     1       3.703   8.290  47.645  1.00  0.00    -0.348 OA
ATOM     15  H1  UNL     1       4.276   7.587  47.930  1.00  0.00     0.219 HD
ENDBRANCH   2  14
ENDBRANCH   1   2
BRANCH   1  16
HETATM   16  N2  UNL     1       2.378  10.486  49.882  1.00  0.00    -0.129 NA
BRANCH  16  17
HETATM   17  N3  UNL     1       1.130   9.953  50.148  1.00  0.00    -0.347 N
ATOM     18  H32 UNL     1       0.394  10.441  50.659  1.00  0.00     0.172 HD
ATOM     19  H31 UNL     1       1.067   9.013  49.758  1.00  0.00     0.172 HD
ENDBRANCH  16  17
ENDBRANCH   1  16
BRANCH   1  20
HETATM   20  C5  UNL     1       4.386   9.643  50.693  1.00  0.00     0.123 C
HETATM   21  N4  UNL     1       4.438  10.872  51.259  1.00  0.00    -0.188 N
HETATM   22  C6  UNL     1       5.250  11.255  52.252  1.00  0.00     0.680 C
ATOM     23  H4  UNL     1       3.796  11.575  50.893  1.00  0.00     0.184 HD
HETATM   24  N6  UNL     1       5.860  10.439  53.133  1.00  0.00    -0.141 N
HETATM   25  C7  UNL     1       6.117   9.128  53.088  1.00  0.00     0.341 C
ATOM     26  H6  UNL     1       6.180  10.902  53.984  1.00  0.00     0.189 HD
HETATM   27  O2  UNL     1       6.586   8.573  54.120  1.00  0.00    -0.246 OA
HETATM   28  N7  UNL     1       5.938   8.279  52.050  1.00  0.00    -0.273 N
HETATM   29  C8  UNL     1       5.174   8.547  50.966  1.00  0.00     0.274 C
ATOM     30  H7  UNL     1       6.411   7.377  52.087  1.00  0.00     0.173 HD
HETATM   31  O3  UNL     1       5.202   7.647  50.090  1.00  0.00    -0.266 OA
BRANCH  22  32
HETATM   32  N5  UNL     1       5.477  12.539  52.385  1.00  0.00    -0.234 N
ATOM     33  H52 UNL     1       4.677  13.121  52.633  1.00  0.00     0.174 HD
ATOM     34  H51 UNL     1       6.431  12.865  52.233  1.00  0.00     0.174 HD
ENDBRANCH  22  32
ENDBRANCH   1  20
TORSDOF 9
ENDMDL