MODEL 4
REMARK VINA RESULT: -7.293460388      2.520      3.433
REMARK  9 active torsions:
REMARK  status: ('A' for Active; 'I' for Inactive)
REMARK    1  A    between atoms: C3_7  and  N3_8
REMARK    2  A    between atoms: C6_15  and  N5_16
REMARK    3  A    between atoms: N6_19  and  C7_20
REMARK    4  A    between atoms: C8_22  and  C9_23
REMARK    5  A    between atoms: C9_23  and  O3_24
REMARK    6  A    between atoms: C9_23  and  C10_26
REMARK    7  A    between atoms: C10_26  and  O4_27
REMARK    8  A    between atoms: C11_29  and  N7_30
REMARK    9  A    between atoms: C12_34  and  N8_35
ROOT
HETATM    1  C1  UNL     1       8.474  11.350  55.725  1.00  0.00     0.163 C
HETATM    2  N1  UNL     1       7.899  10.556  54.687  1.00  0.00    -0.287 N
HETATM    3  C2  UNL     1       8.315   9.311  54.468  1.00  0.00     0.329 A
HETATM    4  O1  UNL     1       9.244   8.848  55.206  1.00  0.00    -0.246 OA
HETATM    5  N2  UNL     1       7.742   8.620  53.495  1.00  0.00    -0.293 N
ATOM      6  H2  UNL     1       8.059   7.666  53.326  1.00  0.00     0.172 HD
HETATM    7  C3  UNL     1       6.764   9.115  52.719  1.00  0.00     0.134 A
HETATM    8  C4  UNL     1       6.306  10.429  52.931  1.00  0.00     0.142 A
HETATM    9  C5  UNL     1       6.905  11.118  53.931  1.00  0.00     0.158 A
HETATM   10  N4  UNL     1       6.288  12.215  53.852  1.00  0.00    -0.174 N
ATOM     11  H4  UNL     1       6.589  12.909  54.537  1.00  0.00     0.186 HD
HETATM   12  C6  UNL     1       5.380  12.610  53.095  1.00  0.00     0.682 A
HETATM   13  N6  UNL     1       5.404  11.120  52.339  1.00  0.00    -0.147 N
ENDROOT
BRANCH  13  14
HETATM   14  C7  UNL     1       4.515  10.898  51.326  1.00  0.00     0.279 C
HETATM   15  O2  UNL     1       5.112  10.862  50.038  1.00  0.00    -0.353 OA
HETATM   16  C8  UNL     1       3.956  10.635  49.257  1.00  0.00     0.187 C
HETATM   17  C11 UNL     1       3.317   9.460  49.917  1.00  0.00     0.249 C
HETATM   18  C12 UNL     1       3.637   9.692  51.411  1.00  0.00     0.265 C
BRANCH  16  19
HETATM   19  C9  UNL     1       4.420  10.389  47.858  1.00  0.00     0.172 C
BRANCH  19  20
HETATM   20  O3  UNL     1       3.595   9.588  47.100  1.00  0.00    -0.391 OA
ATOM     21  H3  UNL     1       3.706   9.671  46.160  1.00  0.00     0.210 HD
ENDBRANCH  19  20
BRANCH  19  22
HETATM   22  C10 UNL     1       4.764  11.644  47.088  1.00  0.00     0.198 C
BRANCH  22  23
HETATM   23  O4  UNL     1       5.913  11.474  46.352  1.00  0.00    -0.398 OA
ATOM     24  H4  UNL     1       6.678  11.443  46.916  1.00  0.00     0.209 HD
ENDBRANCH  22  23
ENDBRANCH  19  22
ENDBRANCH  16  19
BRANCH  17  25
HETATM   25  N7  UNL     1       1.905   9.323  49.682  1.00  0.00    -0.070 N
ATOM     26  H73 UNL     1       1.409  10.144  50.031  1.00  0.00     0.274 HD
ATOM     27  H72 UNL     1       1.705   9.405  48.685  1.00  0.00     0.274 HD
ATOM     28  H71 UNL     1       1.485   8.472  50.057  1.00  0.00     0.274 HD
ENDBRANCH  17  25
BRANCH  18  29
HETATM   29  N8  UNL     1       2.344   9.989  52.080  1.00  0.00    -0.069 N
ATOM     30  H83 UNL     1       1.922   9.141  52.460  1.00  0.00     0.275 HD
ATOM     31  H82 UNL     1       2.488  10.502  52.950  1.00  0.00     0.275 HD
ATOM     32  H81 UNL     1       1.697  10.480  51.463  1.00  0.00     0.275 HD
ENDBRANCH  18  29
ENDBRANCH  13  14
BRANCH  12  33
HETATM   33  N5  UNL     1       4.492  12.998  52.354  1.00  0.00    -0.234 N
ATOM     34  H52 UNL     1       4.612  13.957  52.680  1.00  0.00     0.174 HD
ATOM     35  H51 UNL     1       3.749  13.322  51.735  1.00  0.00     0.174 HD
ENDBRANCH  12  33
BRANCH   7  36
HETATM   36  N3  UNL     1       6.272   8.416  51.815  1.00  0.00    -0.383 N
ATOM     37  H32 UNL     1       6.684   8.416  50.882  1.00  0.00     0.157 HD
ATOM     38  H31 UNL     1       5.457   7.835  52.006  1.00  0.00     0.157 HD
ENDBRANCH   7  36
TORSDOF 9
ENDMDL