MODEL 4
REMARK VINA RESULT: -8.161677712      2.068      4.836
REMARK  10 active torsions:
REMARK  status: ('A' for Active; 'I' for Inactive)
REMARK    1  A    between atoms: C2_2  and  N1_3
REMARK    2  A    between atoms: C2_2  and  C3_7
REMARK    3  A    between atoms: C3_7  and  C4_9
REMARK    4  A    between atoms: C4_9  and  O2_10
REMARK    5  A    between atoms: C4_9  and  O3_12
REMARK    6  A    between atoms: O3_12  and  N2_13
REMARK    7  A    between atoms: N2_13  and  C5_15
REMARK    8  A    between atoms: N6_24  and  C7_25
REMARK    9  A    between atoms: C9_31  and  O5_32
REMARK   10  A    between atoms: C10_34  and  O6_35
ROOT
HETATM    1  C5  UNL     1       5.500  11.604  49.509  1.00  0.00     0.736 A
HETATM    2  N3  UNL     1       5.588  12.405  48.379  1.00  0.00    -0.018 N
ATOM      3  H3  UNL     1       6.449  12.738  47.947  1.00  0.00     0.203 HD
HETATM    4  C6  UNL     1       4.349  12.663  47.958  1.00  0.00     0.705 A
HETATM    5  N4  UNL     1       4.031  13.385  46.922  1.00  0.00    -0.233 N
ATOM      6  H41 UNL     1       3.083  13.582  46.600  1.00  0.00     0.174 HD
ATOM      7  H42 UNL     1       4.706  13.840  46.308  1.00  0.00     0.174 HD
HETATM    8  N5  UNL     1       3.467  12.068  48.761  1.00  0.00    -0.113 N
ATOM      9  H5  UNL     1       2.450  12.092  48.682  1.00  0.00     0.206 HD
HETATM   10  N6  UNL     1       4.187  11.432  49.693  1.00  0.00    -0.074 N
ENDROOT
BRANCH   1  11
HETATM   11  N2  UNL     1       6.526  11.194  50.137  1.00  0.00    -0.091 N
ATOM     12  H2  UNL     1       6.901  10.318  49.773  1.00  0.00     0.213 HD
BRANCH  11  13
HETATM   13  O3  UNL     1       7.213  11.672  51.168  1.00  0.00    -0.225 OA
BRANCH  13  14
HETATM   14  C4  UNL     1       7.347  10.969  52.417  1.00  0.00     0.359 C
BRANCH  14  15
HETATM   15  C3  UNL     1       7.928   9.650  52.155  1.00  0.00     0.213 C
HETATM   16  O1  UNL     1       8.485   9.439  51.095  1.00  0.00    -0.290 OA
BRANCH  15  17
HETATM   17  C2  UNL     1       7.846   8.575  53.167  1.00  0.00     0.253 C
HETATM   18  C1  UNL     1       8.124   9.045  54.580  1.00  0.00     0.048 C
BRANCH  17  19
HETATM   19  N1  UNL     1       6.479   8.046  53.175  1.00  0.00    -0.069 N
ATOM     20  H13 UNL     1       6.144   7.772  52.252  1.00  0.00     0.275 HD
ATOM     21  H12 UNL     1       6.401   7.127  53.613  1.00  0.00     0.275 HD
ATOM     22  H11 UNL     1       5.901   8.759  53.622  1.00  0.00     0.275 HD
ENDBRANCH  17  19
ENDBRANCH  15  17
ENDBRANCH  14  15
BRANCH  14  23
HETATM   23  O2  UNL     1       6.063  10.820  52.990  1.00  0.00    -0.363 OA
ATOM     24  H2  UNL     1       6.093  11.061  53.909  1.00  0.00     0.213 HD
ENDBRANCH  14  23
ENDBRANCH  13  14
ENDBRANCH  11  13
ENDBRANCH   1  11
BRANCH  10  25
HETATM   25  C7  UNL     1       3.566  10.648  50.759  1.00  0.00     0.305 C
HETATM   26  O4  UNL     1       4.513   9.635  51.120  1.00  0.00    -0.293 OA
HETATM   27  C8  UNL     1       4.534   8.409  50.448  1.00  0.00     0.231 C
HETATM   28  N7  UNL     1       5.692   7.767  49.979  1.00  0.00    -0.056 NA
HETATM   29  N8  UNL     1       3.370   7.854  50.266  1.00  0.00    -0.330 N
HETATM   30  C9  UNL     1       2.224   8.574  50.776  1.00  0.00     0.253 C
ATOM     31  H8  UNL     1       3.271   6.959  49.788  1.00  0.00     0.165 HD
HETATM   32  C10 UNL     1       2.272  10.013  50.284  1.00  0.00     0.218 C
BRANCH  30  33
HETATM   33  O5  UNL     1       1.080   7.906  50.446  1.00  0.00    -0.374 OA
ATOM     34  H5  UNL     1       0.330   8.359  50.810  1.00  0.00     0.212 HD
ENDBRANCH  30  33
BRANCH  32  35
HETATM   35  O6  UNL     1       1.144  10.647  50.796  1.00  0.00    -0.387 OA
ATOM     36  H6  UNL     1       0.594  10.063  51.305  1.00  0.00     0.210 HD
ENDBRANCH  32  35
ENDBRANCH  10  25
TORSDOF 10
ENDMDL