MODEL 3
REMARK VINA RESULT: -7.687114620      1.884      2.821
REMARK  9 active torsions:
REMARK  status: ('A' for Active; 'I' for Inactive)
REMARK    1  A    between atoms: N1_1  and  C1_5
REMARK    2  A    between atoms: C1_5  and  O1_6
REMARK    3  A    between atoms: C1_5  and  C2_8
REMARK    4  A    between atoms: C2_8  and  O2_9
REMARK    5  A    between atoms: C3_11  and  N2_12
REMARK    6  A    between atoms: C8_22  and  C9_23
REMARK    7  A    between atoms: C9_23  and  O6_24
REMARK    8  A    between atoms: C10_26  and  O7_27
REMARK    9  A    between atoms: C10_26  and  C11_29
ROOT
HETATM    1  C2  UNL     1       3.894   9.449  50.783  1.00  0.00     0.197 C
HETATM    2  C3  UNL     1       5.131  10.243  50.923  1.00  0.00     0.275 C
HETATM    3  O5  UNL     1       4.693  11.517  51.377  1.00  0.00    -0.352 OA
HETATM    4  C8  UNL     1       3.578  11.245  52.162  1.00  0.00     0.196 C
HETATM    5  C10 UNL     1       2.780  10.399  51.234  1.00  0.00     0.213 C
ENDROOT
BRANCH   1   6
HETATM    6  C1  UNL     1       3.604   8.821  49.472  1.00  0.00     0.359 C
BRANCH   6   7
HETATM    7  N1  UNL     1       4.751   8.074  48.981  1.00  0.00    -0.050 N
ATOM      8  H13 UNL     1       4.662   7.072  49.151  1.00  0.00     0.277 HD
ATOM      9  H12 UNL     1       4.787   8.045  47.963  1.00  0.00     0.277 HD
ATOM     10  H11 UNL     1       5.602   8.463  49.389  1.00  0.00     0.277 HD
ENDBRANCH   6   7
BRANCH   6  11
HETATM   11  O1  UNL     1       2.488   8.060  49.340  1.00  0.00    -0.367 OA
ATOM     12  H1  UNL     1       1.948   8.417  48.644  1.00  0.00     0.212 HD
ENDBRANCH   6  11
ENDBRANCH   1   6
BRANCH   1  13
HETATM   13  O2  UNL     1       3.937   8.416  51.739  1.00  0.00    -0.378 OA
ATOM     14  H2  UNL     1       4.450   8.734  52.472  1.00  0.00     0.211 HD
ENDBRANCH   1  13
BRANCH   2  15
HETATM   15  N2  UNL     1       6.111   9.833  51.895  1.00  0.00    -0.279 N
HETATM   16  C4  UNL     1       5.987  10.086  53.229  1.00  0.00     0.104 A
HETATM   17  C5  UNL     1       6.892   9.720  54.176  1.00  0.00     0.092 A
HETATM   18  C6  UNL     1       8.017   9.048  53.791  1.00  0.00     0.250 A
HETATM   19  O3  UNL     1       8.873   8.696  54.653  1.00  0.00    -0.268 OA
HETATM   20  N3  UNL     1       8.153   8.793  52.488  1.00  0.00    -0.275 N
HETATM   21  C7  UNL     1       7.230   9.171  51.557  1.00  0.00     0.331 A
ATOM     22  H3  UNL     1       8.984   8.293  52.173  1.00  0.00     0.173 HD
HETATM   23  O4  UNL     1       7.524   8.850  50.379  1.00  0.00    -0.246 OA
ENDBRANCH   2  15
BRANCH   5  24
HETATM   24  O7  UNL     1       1.884   9.637  51.982  1.00  0.00    -0.374 OA
ATOM     25  H7  UNL     1       2.214   9.626  52.873  1.00  0.00     0.211 HD
ENDBRANCH   5  24
BRANCH   5  26
HETATM   26  C11 UNL     1       2.115  11.132  50.168  1.00  0.00     0.215 C
HETATM   27  O8  UNL     1       2.690  11.779  49.258  1.00  0.00    -0.646 OA
HETATM   28  O9  UNL     1       0.716  11.136  50.131  1.00  0.00    -0.646 OA
ENDBRANCH   5  26
BRANCH   4  29
HETATM   29  C9  UNL     1       2.918  12.500  52.614  1.00  0.00     0.199 C
BRANCH  29  30
HETATM   30  O6  UNL     1       3.868  13.505  52.758  1.00  0.00    -0.398 OA
ATOM     31  H6  UNL     1       3.439  14.326  52.970  1.00  0.00     0.209 HD
ENDBRANCH  29  30
ENDBRANCH   4  29
TORSDOF 9
ENDMDL