MODEL 4
REMARK VINA RESULT: -8.184084544      2.685      3.818
REMARK  10 active torsions:
REMARK  status: ('A' for Active; 'I' for Inactive)
REMARK    1  A    between atoms: N3_4  and  C2_6
REMARK    2  A    between atoms: C2_6  and  C3_7
REMARK    3  A    between atoms: C3_7  and  O1_8
REMARK    4  A    between atoms: N4_12  and  C5_13
REMARK    5  A    between atoms: C6_16  and  O3_17
REMARK    6  A    between atoms: C7_19  and  C8_20
REMARK    7  A    between atoms: C8_20  and  O4_21
REMARK    8  A    between atoms: N6_23  and  N7_24
REMARK    9  A    between atoms: C10_28  and  O5_29
REMARK   10  A    between atoms: C11_31  and  O6_32
ROOT
HETATM    1  C3  UNL     1       3.452  11.184  49.653  1.00  0.00     0.183 C
HETATM    2  C4  UNL     1       4.567  10.917  50.600  1.00  0.00     0.277 C
HETATM    3  O2  UNL     1       5.609  11.613  50.512  1.00  0.00    -0.269 OA
HETATM    4  N4  UNL     1       4.534   9.918  51.605  1.00  0.00    -0.144 N
HETATM    5  C9  UNL     1       3.252   9.301  51.868  1.00  0.00     0.185 C
HETATM    6  C10 UNL     1       2.649   8.956  50.524  1.00  0.00     0.169 C
HETATM    7  C11 UNL     1       2.322  10.215  49.796  1.00  0.00     0.194 C
ENDROOT
BRANCH   4   8
HETATM    8  C5  UNL     1       5.688   9.520  52.336  1.00  0.00     0.710 A
HETATM    9  N5  UNL     1       6.249   8.300  52.432  1.00  0.00    -0.166 N
HETATM   10  C6  UNL     1       7.327   8.301  53.201  1.00  0.00     0.183 A
ATOM     11  H5  UNL     1       5.884   7.469  51.966  1.00  0.00     0.186 HD
HETATM   12  C7  UNL     1       7.489   9.603  53.639  1.00  0.00     0.126 A
HETATM   13  N6  UNL     1       6.489  10.312  53.103  1.00  0.00    -0.090 N
BRANCH  10  14
HETATM   14  O3  UNL     1       8.120   7.204  53.492  1.00  0.00    -0.344 OA
ATOM     15  H3  UNL     1       7.856   6.443  53.997  1.00  0.00     0.219 HD
ENDBRANCH  10  14
BRANCH  12  16
HETATM   16  C8  UNL     1       8.584  10.048  54.530  1.00  0.00     0.228 C
BRANCH  16  17
HETATM   17  O4  UNL     1       8.930   9.065  55.439  1.00  0.00    -0.395 OA
ATOM     18  H4  UNL     1       8.518   8.235  55.229  1.00  0.00     0.209 HD
ENDBRANCH  16  17
ENDBRANCH  12  16
BRANCH  13  19
HETATM   19  N7  UNL     1       6.287  11.678  53.297  1.00  0.00    -0.324 N
ATOM     20  H72 UNL     1       6.509  12.183  54.155  1.00  0.00     0.178 HD
ATOM     21  H71 UNL     1       5.895  12.306  52.596  1.00  0.00     0.178 HD
ENDBRANCH  13  19
ENDBRANCH   4   8
BRANCH   1  22
HETATM   22  C2  UNL     1       4.052  11.018  48.272  1.00  0.00     0.172 C
BRANCH  22  23
HETATM   23  N3  UNL     1       3.429  11.809  47.258  1.00  0.00    -0.363 N
HETATM   24  C1  UNL     1       3.943  12.948  46.976  1.00  0.00     0.197 C
HETATM   25  N1  UNL     1       5.098  13.418  47.647  1.00  0.00    -0.067 NA
HETATM   26  N2  UNL     1       3.354  13.752  45.977  1.00  0.00    -0.067 NA
ATOM     27  H3  UNL     1       2.596  11.476  46.773  1.00  0.00     0.161 HD
ENDBRANCH  22  23
ENDBRANCH   1  22
BRANCH   1  28
HETATM   28  O1  UNL     1       2.944  12.470  49.836  1.00  0.00    -0.376 OA
ATOM     29  H1  UNL     1       2.377  12.725  49.117  1.00  0.00     0.211 HD
ENDBRANCH   1  28
BRANCH   6  30
HETATM   30  O5  UNL     1       1.463   8.230  50.667  1.00  0.00    -0.391 OA
ATOM     31  H5  UNL     1       1.479   7.688  51.448  1.00  0.00     0.210 HD
ENDBRANCH   6  30
BRANCH   7  32
HETATM   32  O6  UNL     1       1.231  10.813  50.439  1.00  0.00    -0.389 OA
ATOM     33  H6  UNL     1       0.854  10.224  51.083  1.00  0.00     0.210 HD
ENDBRANCH   7  32
TORSDOF 10
ENDMDL