MODEL 5
REMARK VINA RESULT: -6.700490308      1.532      2.007
REMARK  5 active torsions:
REMARK  status: ('A' for Active; 'I' for Inactive)
REMARK    1  A    between atoms: C2_2  and  C3_3
REMARK    2  A    between atoms: C3_3  and  C4_4
REMARK    3  A    between atoms: C4_4  and  C5_5
REMARK    4  A    between atoms: C5_5  and  C6_6
REMARK    5  A    between atoms: C12_14  and  C13_15
ROOT
HETATM    1  C13 UNL     1       9.092  -0.548  57.825  1.00  0.00    -0.022 A
HETATM    2  C14 UNL     1       8.769   0.703  57.337  1.00  0.00     0.012 A
HETATM    3  C15 UNL     1       7.516   0.964  56.784  1.00  0.00     0.002 A
HETATM    4  C16 UNL     1       6.553  -0.022  56.702  1.00  0.00     0.023 A
HETATM    5  C17 UNL     1       6.873  -1.269  57.188  1.00  0.00     0.045 A
HETATM    6  C18 UNL     1       5.905  -2.327  57.127  1.00  0.00     0.099 C
HETATM    7  N2  UNL     1       5.127  -3.177  57.099  1.00  0.00    -0.191 NA
HETATM    8  C19 UNL     1       8.111  -1.520  57.735  1.00  0.00     0.035 A
ENDROOT
BRANCH   1   9
HETATM    9  C12 UNL     1      10.424  -0.810  58.339  1.00  0.00     0.003 A
HETATM   10  C11 UNL     1      10.665  -0.774  59.728  1.00  0.00     0.101 A
HETATM   11  N1  UNL     1      11.949  -0.961  59.927  1.00  0.00    -0.364 N
HETATM   12  C10 UNL     1      12.582  -1.121  58.726  1.00  0.00     0.043 A
ATOM     13  H1  UNL     1      12.405  -0.983  60.839  1.00  0.00     0.165 HD
HETATM   14  C9  UNL     1      13.905  -1.333  58.411  1.00  0.00     0.030 A
HETATM   15  C20 UNL     1      11.627  -1.031  57.730  1.00  0.00     0.009 A
HETATM   16  C8  UNL     1      14.308  -1.460  57.111  1.00  0.00     0.003 A
HETATM   17  C7  UNL     1      13.335  -1.367  56.114  1.00  0.00     0.008 A
HETATM   18  C6  UNL     1      11.995  -1.157  56.397  1.00  0.00    -0.045 A
BRANCH  18  19
HETATM   19  C5  UNL     1      10.953  -1.144  55.364  1.00  0.00     0.039 C
BRANCH  19  20
HETATM   20  C4  UNL     1      11.078  -2.419  54.483  1.00  0.00     0.005 C
BRANCH  20  21
HETATM   21  C3  UNL     1      10.680  -3.565  55.421  1.00  0.00    -0.000 C
BRANCH  21  22
HETATM   22  C2  UNL     1      11.843  -4.419  55.827  1.00  0.00    -0.005 C
HETATM   23  C1  UNL     1      11.905  -4.611  57.327  1.00  0.00     0.005 C
ENDBRANCH  21  22
ENDBRANCH  20  21
ENDBRANCH  19  20
ENDBRANCH  18  19
ENDBRANCH   1   9
TORSDOF 5
ENDMDL