MODEL 1
REMARK VINA RESULT: -7.996351822      0.000      0.000
REMARK  6 active torsions:
REMARK  status: ('A' for Active; 'I' for Inactive)
REMARK    1  A    between atoms: C2_2  and  C3_3
REMARK    2  A    between atoms: C3_3  and  C4_4
REMARK    3  A    between atoms: C4_4  and  C5_5
REMARK    4  A    between atoms: C5_5  and  C6_6
REMARK    5  A    between atoms: C9_9  and  N1_10
REMARK    6  A    between atoms: N1_10  and  C10_12
ROOT
HETATM    1  N1  UNL     1       7.410  -0.805  57.129  1.00  0.00    -0.343 N
ATOM      2  H1  UNL     1       6.801  -1.615  57.020  1.00  0.00     0.167 HD
ENDROOT
BRANCH   1   3
HETATM    3  C9  UNL     1       8.721  -1.024  57.591  1.00  0.00     0.033 A
HETATM    4  C8  UNL     1       9.146  -0.414  58.746  1.00  0.00     0.030 A
HETATM    5  C7  UNL     1      10.443  -0.609  59.235  1.00  0.00     0.009 A
HETATM    6  C6  UNL     1      11.315  -1.426  58.553  1.00  0.00    -0.058 A
HETATM    7  C20 UNL     1      10.873  -2.040  57.382  1.00  0.00     0.009 A
HETATM    8  C19 UNL     1       9.585  -1.841  56.905  1.00  0.00     0.030 A
BRANCH   6   9
HETATM    9  C5  UNL     1      12.703  -1.675  59.018  1.00  0.00     0.038 C
BRANCH   9  10
HETATM   10  C4  UNL     1      13.513  -2.463  58.056  1.00  0.00     0.005 C
BRANCH  10  11
HETATM   11  C3  UNL     1      14.710  -1.684  57.615  1.00  0.00    -0.000 C
BRANCH  11  12
HETATM   12  C2  UNL     1      14.543  -1.246  56.155  1.00  0.00    -0.005 C
HETATM   13  C1  UNL     1      13.643  -2.310  55.517  1.00  0.00     0.005 C
ENDBRANCH  11  12
ENDBRANCH  10  11
ENDBRANCH   9  10
ENDBRANCH   6   9
ENDBRANCH   1   3
BRANCH   1  14
HETATM   14  C10 UNL     1       6.931   0.352  56.836  1.00  0.00     0.106 A
HETATM   15  C11 UNL     1       5.921   0.922  57.585  1.00  0.00     0.049 A
HETATM   16  C12 UNL     1       5.438   2.182  57.223  1.00  0.00     0.017 A
HETATM   17  C13 UNL     1       5.994   2.807  56.124  1.00  0.00    -0.009 A
HETATM   18  C14 UNL     1       5.540   4.051  55.741  1.00  0.00     0.013 A
HETATM   19  C18 UNL     1       6.999   2.193  55.413  1.00  0.00     0.043 A
HETATM   20  C15 UNL     1       6.103   4.684  54.628  1.00  0.00     0.001 A
HETATM   21  C16 UNL     1       7.116   4.075  53.905  1.00  0.00     0.002 A
HETATM   22  C17 UNL     1       7.554   2.833  54.306  1.00  0.00     0.030 A
HETATM   23  N2  UNL     1       7.465   0.981  55.762  1.00  0.00    -0.342 N
ATOM     24  H2  UNL     1       8.211   0.540  55.224  1.00  0.00     0.167 HD
ENDBRANCH   1  14
TORSDOF 6
ENDMDL