MODEL 4
REMARK VINA RESULT: -6.962326823      1.509      5.457
REMARK  5 active torsions:
REMARK  status: ('A' for Active; 'I' for Inactive)
REMARK    1  A    between atoms: C2_2  and  C3_3
REMARK    2  A    between atoms: C8_8  and  N1_9
REMARK    3  A    between atoms: N1_9  and  C9_11
REMARK    4  A    between atoms: C9_11  and  C10_12
REMARK    5  A    between atoms: C9_11  and  C16_18
ROOT
HETATM    1  C9  UNL     1       7.286   0.105  56.529  1.00  0.00     0.148 C
ENDROOT
BRANCH   1   2
HETATM    2  N1  UNL     1       7.224   1.505  56.792  1.00  0.00    -0.377 N
ATOM      3  H1  UNL     1       7.451   1.796  57.743  1.00  0.00     0.160 HD
BRANCH   2   4
HETATM    4  C8  UNL     1       6.884   2.537  55.887  1.00  0.00     0.035 A
HETATM    5  C3  UNL     1       5.864   3.447  56.195  1.00  0.00    -0.032 A
HETATM    6  C4  UNL     1       5.577   4.441  55.300  1.00  0.00     0.009 A
HETATM    7  C5  UNL     1       6.263   4.567  54.106  1.00  0.00     0.001 A
HETATM    8  C6  UNL     1       7.266   3.662  53.818  1.00  0.00     0.002 A
HETATM    9  C7  UNL     1       7.585   2.640  54.706  1.00  0.00     0.029 A
BRANCH   5  10
HETATM   10  C2  UNL     1       5.166   3.265  57.479  1.00  0.00     0.036 C
HETATM   11  C1  UNL     1       3.730   3.654  57.446  1.00  0.00     0.010 C
ENDBRANCH   5  10
ENDBRANCH   2   4
ENDBRANCH   1   2
BRANCH   1  12
HETATM   12  C10 UNL     1       8.587  -0.462  57.052  1.00  0.00    -0.031 A
HETATM   13  C11 UNL     1       9.418  -1.212  56.257  1.00  0.00     0.009 A
HETATM   14  C12 UNL     1      10.599  -1.724  56.737  1.00  0.00     0.001 A
HETATM   15  C13 UNL     1      10.986  -1.497  58.042  1.00  0.00     0.000 A
HETATM   16  C14 UNL     1      10.144  -0.738  58.840  1.00  0.00     0.001 A
HETATM   17  C15 UNL     1       8.965  -0.231  58.351  1.00  0.00     0.009 A
ENDBRANCH   1  12
BRANCH   1  18
HETATM   18  C16 UNL     1       6.154  -0.678  57.103  1.00  0.00    -0.031 A
HETATM   19  C17 UNL     1       6.037  -2.047  56.862  1.00  0.00     0.009 A
HETATM   20  C18 UNL     1       5.002  -2.775  57.358  1.00  0.00     0.001 A
HETATM   21  C19 UNL     1       4.012  -2.199  58.123  1.00  0.00     0.000 A
HETATM   22  C20 UNL     1       4.095  -0.848  58.382  1.00  0.00     0.001 A
HETATM   23  C21 UNL     1       5.157  -0.117  57.870  1.00  0.00     0.009 A
ENDBRANCH   1  18
TORSDOF 5
ENDMDL