MODEL 3
REMARK VINA RESULT: -8.051372502      1.836      4.698
REMARK  5 active torsions:
REMARK  status: ('A' for Active; 'I' for Inactive)
REMARK    1  A    between atoms: C2_2  and  C3_3
REMARK    2  A    between atoms: C2_2  and  C9_9
REMARK    3  A    between atoms: C14_14  and  N1_15
REMARK    4  A    between atoms: N1_15  and  C15_17
REMARK    5  A    between atoms: C15_17  and  C16_18
ROOT
HETATM    1  C9  UNL     1       9.449  -1.351  55.631  1.00  0.00    -0.024 A
HETATM    2  C10 UNL     1       9.336  -0.619  54.450  1.00  0.00     0.010 A
HETATM    3  C11 UNL     1       8.585   0.523  54.314  1.00  0.00     0.001 A
HETATM    4  C12 UNL     1       7.891   0.995  55.395  1.00  0.00     0.002 A
HETATM    5  C13 UNL     1       7.967   0.316  56.573  1.00  0.00     0.029 A
HETATM    6  C14 UNL     1       8.742  -0.853  56.689  1.00  0.00     0.035 A
ENDROOT
BRANCH   6   7
HETATM    7  N1  UNL     1       8.792  -1.541  57.932  1.00  0.00    -0.385 N
ATOM      8  H1  UNL     1       8.672  -2.552  57.982  1.00  0.00     0.160 HD
BRANCH   7   9
HETATM    9  C15 UNL     1       9.015  -0.762  59.108  1.00  0.00     0.158 C
BRANCH   9  10
HETATM   10  C16 UNL     1      10.392  -0.607  59.557  1.00  0.00    -0.041 A
HETATM   11  C17 UNL     1      11.289   0.360  59.174  1.00  0.00     0.009 A
HETATM   12  C18 UNL     1      12.578   0.431  59.655  1.00  0.00     0.001 A
HETATM   13  C19 UNL     1      13.035  -0.504  60.575  1.00  0.00     0.000 A
HETATM   14  C20 UNL     1      12.154  -1.481  60.972  1.00  0.00     0.001 A
HETATM   15  C21 UNL     1      10.868  -1.541  60.484  1.00  0.00     0.009 A
ENDBRANCH   9  10
ENDBRANCH   7   9
ENDBRANCH   6   7
BRANCH   1  16
HETATM   16  C2  UNL     1      10.295  -2.555  55.643  1.00  0.00     0.050 C
HETATM   17  C1  UNL     1      10.375  -3.289  54.360  1.00  0.00     0.020 C
BRANCH  16  18
HETATM   18  C3  UNL     1      11.631  -2.356  56.252  1.00  0.00    -0.050 A
HETATM   19  C4  UNL     1      12.497  -1.400  55.798  1.00  0.00     0.008 A
HETATM   20  C5  UNL     1      13.750  -1.224  56.388  1.00  0.00     0.001 A
HETATM   21  C6  UNL     1      14.157  -2.002  57.446  1.00  0.00     0.000 A
HETATM   22  C7  UNL     1      13.284  -2.968  57.907  1.00  0.00     0.001 A
HETATM   23  C8  UNL     1      12.051  -3.137  57.320  1.00  0.00     0.008 A
ENDBRANCH  16  18
ENDBRANCH   1  16
TORSDOF 5
ENDMDL