MODEL 5
REMARK VINA RESULT: -7.066628875     10.992     14.748
REMARK  5 active torsions:
REMARK  status: ('A' for Active; 'I' for Inactive)
REMARK    1  A    between atoms: C2_2  and  C3_3
REMARK    2  A    between atoms: C8_8  and  C9_9
REMARK    3  A    between atoms: C9_9  and  N1_10
REMARK    4  A    between atoms: N1_10  and  C10_12
REMARK    5  A    between atoms: C15_17  and  C16_18
ROOT
HETATM    1  C10 UNL     1      -2.683  -0.074  61.326  1.00  0.00     0.039 A
HETATM    2  C11 UNL     1      -3.784  -0.530  61.950  1.00  0.00     0.030 A
HETATM    3  C12 UNL     1      -3.917  -0.524  63.329  1.00  0.00     0.002 A
HETATM    4  C13 UNL     1      -2.806   0.015  64.062  1.00  0.00     0.001 A
HETATM    5  C14 UNL     1      -1.678   0.476  63.461  1.00  0.00     0.014 A
HETATM    6  C15 UNL     1      -1.608   0.426  62.021  1.00  0.00     0.001 A
ENDROOT
BRANCH   1   7
HETATM    7  N1  UNL     1      -2.636  -0.133  59.846  1.00  0.00    -0.385 N
ATOM      8  H1  UNL     1      -2.096  -0.828  59.329  1.00  0.00     0.160 HD
BRANCH   7   9
HETATM    9  C9  UNL     1      -3.452   0.919  59.188  1.00  0.00     0.159 C
BRANCH   9  10
HETATM   10  C8  UNL     1      -2.582   2.063  58.833  1.00  0.00    -0.034 A
HETATM   11  C3  UNL     1      -2.833   3.239  59.500  1.00  0.00    -0.051 A
HETATM   12  C4  UNL     1      -2.065   4.330  59.262  1.00  0.00     0.007 A
HETATM   13  C5  UNL     1      -1.026   4.214  58.327  1.00  0.00     0.001 A
HETATM   14  C6  UNL     1      -0.768   3.052  57.669  1.00  0.00     0.001 A
HETATM   15  C7  UNL     1      -1.579   1.936  57.933  1.00  0.00     0.009 A
BRANCH  11  16
HETATM   16  C2  UNL     1      -3.930   3.221  60.511  1.00  0.00     0.034 C
HETATM   17  C1  UNL     1      -3.531   3.578  61.879  1.00  0.00     0.010 C
ENDBRANCH  11  16
ENDBRANCH   9  10
ENDBRANCH   7   9
ENDBRANCH   1   7
BRANCH   6  18
HETATM   18  C16 UNL     1      -0.417   0.936  61.451  1.00  0.00    -0.024 A
HETATM   19  C17 UNL     1      -0.023   2.256  61.611  1.00  0.00     0.012 A
HETATM   20  C18 UNL     1       1.136   2.680  60.940  1.00  0.00     0.001 A
HETATM   21  C19 UNL     1       1.884   1.865  60.150  1.00  0.00     0.000 A
HETATM   22  C20 UNL     1       1.460   0.550  60.018  1.00  0.00     0.001 A
HETATM   23  C21 UNL     1       0.321   0.108  60.671  1.00  0.00     0.012 A
ENDBRANCH   6  18
TORSDOF 5
ENDMDL