MODEL 3
REMARK VINA RESULT: -8.186730798      1.253      1.683
REMARK  5 active torsions:
REMARK  status: ('A' for Active; 'I' for Inactive)
REMARK    1  A    between atoms: C2_2  and  C3_3
REMARK    2  A    between atoms: C6_6  and  C7_7
REMARK    3  A    between atoms: C7_7  and  N1_8
REMARK    4  A    between atoms: N1_8  and  C8_10
REMARK    5  A    between atoms: C11_13  and  C12_14
ROOT
HETATM    1  C8  UNL     1       8.158  -1.180  57.502  1.00  0.00     0.028 A
HETATM    2  C9  UNL     1       8.843  -0.548  58.527  1.00  0.00     0.030 A
HETATM    3  C10 UNL     1      10.216  -0.637  58.580  1.00  0.00     0.014 A
HETATM    4  C11 UNL     1      10.947  -1.336  57.648  1.00  0.00    -0.026 A
HETATM    5  C18 UNL     1      10.233  -1.954  56.642  1.00  0.00     0.014 A
HETATM    6  C19 UNL     1       8.861  -1.886  56.557  1.00  0.00     0.030 A
ENDROOT
BRANCH   1   7
HETATM    7  N1  UNL     1       6.748  -1.121  57.402  1.00  0.00    -0.386 N
ATOM      8  H1  UNL     1       6.291  -1.622  56.641  1.00  0.00     0.160 HD
BRANCH   7   9
HETATM    9  C7  UNL     1       5.926  -0.377  58.338  1.00  0.00     0.158 C
BRANCH   9  10
HETATM   10  C6  UNL     1       5.603   0.979  57.798  1.00  0.00    -0.041 A
HETATM   11  C5  UNL     1       4.941   1.916  58.563  1.00  0.00     0.009 A
HETATM   12  C4  UNL     1       4.661   3.146  58.040  1.00  0.00     0.007 A
HETATM   13  C3  UNL     1       5.034   3.479  56.742  1.00  0.00    -0.059 A
HETATM   14  C21 UNL     1       5.697   2.562  55.956  1.00  0.00     0.007 A
HETATM   15  C20 UNL     1       5.974   1.323  56.495  1.00  0.00     0.009 A
BRANCH  13  16
HETATM   16  C2  UNL     1       4.745   4.803  56.146  1.00  0.00     0.034 C
HETATM   17  C1  UNL     1       5.699   5.153  55.037  1.00  0.00     0.010 C
ENDBRANCH  13  16
ENDBRANCH   9  10
ENDBRANCH   7   9
ENDBRANCH   1   7
BRANCH   4  18
HETATM   18  C12 UNL     1      12.404  -1.410  57.737  1.00  0.00    -0.026 A
HETATM   19  C13 UNL     1      13.033  -1.410  58.964  1.00  0.00     0.012 A
HETATM   20  C14 UNL     1      14.414  -1.479  59.087  1.00  0.00     0.001 A
HETATM   21  C15 UNL     1      15.143  -1.551  57.913  1.00  0.00     0.000 A
HETATM   22  C16 UNL     1      14.544  -1.554  56.682  1.00  0.00     0.001 A
HETATM   23  C17 UNL     1      13.171  -1.483  56.594  1.00  0.00     0.012 A
ENDBRANCH   4  18
TORSDOF 5
ENDMDL