MODEL 1
REMARK VINA RESULT: -7.989931428      0.000      0.000
REMARK  6 active torsions:
REMARK  status: ('A' for Active; 'I' for Inactive)
REMARK    1  A    between atoms: O1_1  and  C1_3
REMARK    2  A    between atoms: C3_5  and  C4_6
REMARK    3  A    between atoms: C4_6  and  C5_7
REMARK    4  A    between atoms: C5_7  and  C6_8
REMARK    5  A    between atoms: C6_8  and  C7_9
REMARK    6  A    between atoms: C7_9  and  C8_10
ROOT
HETATM    1  C1  UNL     1      12.414  -0.921  61.491  1.00  0.00     0.067 A
HETATM    2  C2  UNL     1      11.413  -0.497  60.641  1.00  0.00     0.044 A
HETATM    3  C3  UNL     1      11.564  -0.456  59.284  1.00  0.00    -0.044 A
HETATM    4  C14 UNL     1      12.749  -0.849  58.726  1.00  0.00    -0.019 A
HETATM    5  C15 UNL     1      12.979  -0.828  57.365  1.00  0.00     0.013 A
HETATM    6  C16 UNL     1      14.199  -1.227  56.820  1.00  0.00     0.001 A
HETATM    7  C17 UNL     1      15.225  -1.658  57.625  1.00  0.00     0.001 A
HETATM    8  C18 UNL     1      15.000  -1.679  58.984  1.00  0.00     0.012 A
HETATM    9  C19 UNL     1      13.801  -1.289  59.542  1.00  0.00    -0.023 A
HETATM   10  C20 UNL     1      13.605  -1.313  60.908  1.00  0.00     0.048 A
ENDROOT
BRANCH   3  11
HETATM   11  C4  UNL     1      10.448  -0.019  58.440  1.00  0.00     0.039 C
BRANCH  11  12
HETATM   12  C5  UNL     1       9.203  -0.754  58.833  1.00  0.00     0.005 C
BRANCH  12  13
HETATM   13  C6  UNL     1       8.251  -0.827  57.656  1.00  0.00     0.005 C
BRANCH  13  14
HETATM   14  C7  UNL     1       8.313  -2.225  57.049  1.00  0.00     0.038 C
BRANCH  14  15
HETATM   15  C8  UNL     1       9.477  -2.253  56.134  1.00  0.00    -0.058 A
HETATM   16  C9  UNL     1      10.394  -3.273  56.243  1.00  0.00     0.007 A
HETATM   17  C10 UNL     1      11.487  -3.296  55.379  1.00  0.00     0.001 A
HETATM   18  C11 UNL     1      11.640  -2.290  54.418  1.00  0.00     0.000 A
HETATM   19  C12 UNL     1      10.721  -1.274  54.316  1.00  0.00     0.001 A
HETATM   20  C13 UNL     1       9.647  -1.271  55.179  1.00  0.00     0.007 A
ENDBRANCH  14  15
ENDBRANCH  13  14
ENDBRANCH  12  13
ENDBRANCH  11  12
ENDBRANCH   3  11
BRANCH   1  21
HETATM   21  O1  UNL     1      12.247  -0.956  62.864  1.00  0.00    -0.361 OA
ATOM     22  H1  UNL     1      12.730  -0.381  63.446  1.00  0.00     0.217 HD
ENDBRANCH   1  21
TORSDOF 6
ENDMDL