MODEL 1
REMARK VINA RESULT: -8.316802069      0.000      0.000
REMARK  5 active torsions:
REMARK  status: ('A' for Active; 'I' for Inactive)
REMARK    1  A    between atoms: C2_2  and  C3_3
REMARK    2  A    between atoms: C2_2  and  C9_9
REMARK    3  A    between atoms: C14_14  and  N1_15
REMARK    4  A    between atoms: N1_15  and  C15_17
REMARK    5  A    between atoms: C15_17  and  C16_18
ROOT
HETATM    1  C9  UNL     1       9.740  -1.509  56.274  1.00  0.00     0.001 A
HETATM    2  C10 UNL     1       9.614  -0.712  55.121  1.00  0.00     0.014 A
HETATM    3  C11 UNL     1      10.285  -1.044  53.965  1.00  0.00     0.001 A
HETATM    4  C12 UNL     1      11.084  -2.165  53.944  1.00  0.00     0.002 A
HETATM    5  C13 UNL     1      11.215  -2.951  55.066  1.00  0.00     0.030 A
HETATM    6  C14 UNL     1      10.531  -2.614  56.249  1.00  0.00     0.039 A
ENDROOT
BRANCH   6   7
HETATM    7  N1  UNL     1      10.710  -3.411  57.403  1.00  0.00    -0.385 N
ATOM      8  H1  UNL     1       9.920  -3.695  57.982  1.00  0.00     0.160 HD
BRANCH   7   9
HETATM    9  C15 UNL     1      12.073  -3.806  57.725  1.00  0.00     0.158 C
BRANCH   9  10
HETATM   10  C16 UNL     1      12.876  -2.779  58.382  1.00  0.00    -0.041 A
HETATM   11  C17 UNL     1      12.571  -2.133  59.548  1.00  0.00     0.009 A
HETATM   12  C18 UNL     1      13.424  -1.168  60.086  1.00  0.00     0.001 A
HETATM   13  C19 UNL     1      14.592  -0.866  59.429  1.00  0.00     0.000 A
HETATM   14  C20 UNL     1      14.939  -1.495  58.251  1.00  0.00     0.001 A
HETATM   15  C21 UNL     1      14.079  -2.439  57.747  1.00  0.00     0.009 A
ENDBRANCH   9  10
ENDBRANCH   7   9
ENDBRANCH   6   7
BRANCH   1  16
HETATM   16  C2  UNL     1       9.015  -1.122  57.472  1.00  0.00    -0.023 C
HETATM   17  C1  UNL     1       9.683  -0.598  58.452  1.00  0.00     0.025 C
BRANCH  16  18
HETATM   18  C3  UNL     1       7.579  -1.340  57.522  1.00  0.00    -0.026 A
HETATM   19  C4  UNL     1       6.737  -0.373  58.002  1.00  0.00     0.012 A
HETATM   20  C5  UNL     1       5.355  -0.578  58.038  1.00  0.00     0.001 A
HETATM   21  C6  UNL     1       4.804  -1.757  57.592  1.00  0.00     0.000 A
HETATM   22  C7  UNL     1       5.643  -2.727  57.110  1.00  0.00     0.001 A
HETATM   23  C8  UNL     1       7.000  -2.512  57.080  1.00  0.00     0.012 A
ENDBRANCH  16  18
ENDBRANCH   1  16
TORSDOF 5
ENDMDL