MODEL 5
REMARK VINA RESULT: -7.459774708      1.432      2.104
REMARK  5 active torsions:
REMARK  status: ('A' for Active; 'I' for Inactive)
REMARK    1  A    between atoms: C2_2  and  C3_3
REMARK    2  A    between atoms: C3_3  and  C4_4
REMARK    3  A    between atoms: C4_4  and  C5_5
REMARK    4  A    between atoms: C5_5  and  C6_6
REMARK    5  A    between atoms: C8_8  and  C9_9
ROOT
HETATM    1  C6  UNL     1      10.348  -2.281  57.046  1.00  0.00    -0.030 A
HETATM    2  C7  UNL     1       9.138  -1.691  56.681  1.00  0.00     0.021 A
HETATM    3  C8  UNL     1       8.616  -0.671  57.430  1.00  0.00    -0.023 A
HETATM    4  C15 UNL     1       9.281  -0.228  58.542  1.00  0.00     0.026 A
HETATM    5  C16 UNL     1      10.485  -0.795  58.932  1.00  0.00    -0.008 A
HETATM    6  C17 UNL     1      11.140  -0.333  60.058  1.00  0.00     0.015 A
HETATM    7  C18 UNL     1      12.333  -0.929  60.405  1.00  0.00     0.018 A
HETATM    8  C19 UNL     1      12.797  -1.947  59.606  1.00  0.00     0.088 A
HETATM    9  N2  UNL     1      12.166  -2.399  58.513  1.00  0.00    -0.365 N
ATOM     10  H2  UNL     1      12.559  -3.159  57.958  1.00  0.00     0.165 HD
HETATM   11  C20 UNL     1      10.986  -1.815  58.164  1.00  0.00     0.048 A
ENDROOT
BRANCH   3  12
HETATM   12  C9  UNL     1       7.349  -0.061  57.058  1.00  0.00    -0.002 A
HETATM   13  C10 UNL     1       7.297   1.300  56.715  1.00  0.00     0.014 A
HETATM   14  C11 UNL     1       6.080   1.828  56.359  1.00  0.00     0.001 A
HETATM   15  C12 UNL     1       4.933   1.060  56.334  1.00  0.00     0.002 A
HETATM   16  C13 UNL     1       5.001  -0.268  56.671  1.00  0.00     0.027 A
HETATM   17  C14 UNL     1       6.206  -0.842  57.036  1.00  0.00     0.057 A
HETATM   18  N1  UNL     1       6.274  -2.226  57.399  1.00  0.00    -0.102 NA
ENDBRANCH   3  12
BRANCH   1  19
HETATM   19  C5  UNL     1      10.924  -3.378  56.250  1.00  0.00     0.041 C
BRANCH  19  20
HETATM   20  C4  UNL     1      11.041  -2.979  54.811  1.00  0.00     0.005 C
BRANCH  20  21
HETATM   21  C3  UNL     1      12.134  -1.929  54.624  1.00  0.00    -0.000 C
BRANCH  21  22
HETATM   22  C2  UNL     1      13.406  -2.506  55.164  1.00  0.00    -0.005 C
HETATM   23  C1  UNL     1      14.203  -1.539  55.982  1.00  0.00     0.005 C
ENDBRANCH  21  22
ENDBRANCH  20  21
ENDBRANCH  19  20
ENDBRANCH   1  19
TORSDOF 5
ENDMDL