MODEL 2
REMARK VINA RESULT: -7.146234842      2.779      7.395
REMARK  5 active torsions:
REMARK  status: ('A' for Active; 'I' for Inactive)
REMARK    1  A    between atoms: C2_2  and  C3_3
REMARK    2  A    between atoms: C3_3  and  C4_4
REMARK    3  A    between atoms: C4_4  and  S1_5
REMARK    4  A    between atoms: S1_5  and  C5_6
REMARK    5  A    between atoms: C9_12  and  C10_13
ROOT
HETATM    1  C5  UNL     1      12.854  -1.960  56.531  1.00  0.00     0.001 A
HETATM    2  C6  UNL     1      12.460  -3.064  55.811  1.00  0.00     0.021 A
HETATM    3  C7  UNL     1      11.132  -3.410  55.694  1.00  0.00     0.031 A
HETATM    4  C8  UNL     1      10.141  -2.637  56.313  1.00  0.00     0.043 A
HETATM    5  N1  UNL     1       8.803  -2.713  56.383  1.00  0.00    -0.355 N
ATOM      6  H1  UNL     1       8.240  -3.438  55.938  1.00  0.00     0.166 HD
HETATM    7  C9  UNL     1       8.304  -1.706  57.119  1.00  0.00     0.043 A
HETATM    8  C16 UNL     1       9.376  -0.953  57.537  1.00  0.00     0.044 A
HETATM    9  C17 UNL     1      10.538  -1.532  57.034  1.00  0.00    -0.006 A
HETATM   10  C18 UNL     1      11.888  -1.196  57.141  1.00  0.00     0.032 A
ENDROOT
BRANCH   7  11
HETATM   11  C10 UNL     1       6.889  -1.438  57.431  1.00  0.00    -0.009 A
HETATM   12  C11 UNL     1       5.912  -2.375  57.164  1.00  0.00     0.013 A
HETATM   13  C12 UNL     1       4.581  -2.139  57.452  1.00  0.00     0.001 A
HETATM   14  C13 UNL     1       4.183  -0.944  58.021  1.00  0.00     0.000 A
HETATM   15  C14 UNL     1       5.171  -0.018  58.282  1.00  0.00     0.001 A
HETATM   16  C15 UNL     1       6.511  -0.245  57.996  1.00  0.00     0.013 A
ENDBRANCH   7  11
BRANCH   1  17
HETATM   17  S1  UNL     1      14.560  -1.473  56.710  1.00  0.00    -0.130 SA
BRANCH  17  18
HETATM   18  C4  UNL     1      15.003  -1.274  58.462  1.00  0.00     0.079 C
BRANCH  18  19
HETATM   19  C3  UNL     1      13.983  -1.963  59.356  1.00  0.00     0.010 C
BRANCH  19  20
HETATM   20  C2  UNL     1      13.484  -0.932  60.362  1.00  0.00    -0.004 C
HETATM   21  C1  UNL     1      12.093  -1.326  60.847  1.00  0.00     0.005 C
ENDBRANCH  19  20
ENDBRANCH  18  19
ENDBRANCH  17  18
ENDBRANCH   1  17
TORSDOF 5
ENDMDL