MODEL 1
REMARK VINA RESULT: -6.897786956      0.000      0.000
REMARK  8 active torsions:
REMARK  status: ('A' for Active; 'I' for Inactive)
REMARK    1  A    between atoms: N2_9  and  C5_10
REMARK    2  A    between atoms: C6_12  and  O4_13
REMARK    3  A    between atoms: C6_12  and  C7_15
REMARK    4  A    between atoms: C7_15  and  O5_16
REMARK    5  A    between atoms: C8_18  and  O6_19
REMARK    6  A    between atoms: C9_21  and  O7_22
REMARK    7  A    between atoms: C9_21  and  C10_24
REMARK    8  A    between atoms: C10_24  and  O8_25
ROOT
HETATM    1  C5  UNL     1      21.163  25.757 102.391  1.00  0.00     0.279 C
HETATM    2  O3  UNL     1      22.173  26.677 102.188  1.00  0.00    -0.322 OA
HETATM    3  C6  UNL     1      23.247  26.049 101.631  1.00  0.00     0.215 C
HETATM    4  C8  UNL     1      22.884  24.659 101.262  1.00  0.00     0.223 C
HETATM    5  C9  UNL     1      21.374  24.651 101.412  1.00  0.00     0.154 C
ENDROOT
BRANCH   1   6
HETATM    6  N2  UNL     1      19.891  26.452 102.236  1.00  0.00    -0.234 N
HETATM    7  C1  UNL     1      19.815  27.704 101.753  1.00  0.00     0.333 A
HETATM    8  O1  UNL     1      20.869  28.320 101.414  1.00  0.00    -0.246 OA
HETATM    9  N1  UNL     1      18.664  28.377 101.596  1.00  0.00    -0.293 N
HETATM   10  C2  UNL     1      17.471  27.829 101.922  1.00  0.00     0.134 A
ATOM     11  H1  UNL     1      18.689  29.325 101.222  1.00  0.00     0.172 HD
HETATM   12  C3  UNL     1      17.512  26.536 102.423  1.00  0.00     0.071 A
HETATM   13  N4  UNL     1      16.123  28.278 101.872  1.00  0.00    -0.288 N
HETATM   14  C4  UNL     1      18.724  25.874 102.570  1.00  0.00     0.265 A
HETATM   15  C11 UNL     1      16.097  26.163 102.699  1.00  0.00     0.183 C
HETATM   16  O2  UNL     1      18.678  24.705 103.032  1.00  0.00    -0.267 OA
HETATM   17  N3  UNL     1      15.396  27.415 102.694  1.00  0.00    -0.135 NA
ATOM     18  H4  UNL     1      15.759  29.071 101.343  1.00  0.00     0.184 HD
ENDBRANCH   1   6
BRANCH   5  19
HETATM   19  O7  UNL     1      21.036  23.401 101.895  1.00  0.00    -0.380 OA
ATOM     20  H7  UNL     1      20.164  23.355 102.268  1.00  0.00     0.211 HD
ENDBRANCH   5  19
BRANCH   5  21
HETATM   21  C10 UNL     1      20.686  24.965 100.102  1.00  0.00     0.209 C
BRANCH  21  22
HETATM   22  O8  UNL     1      21.349  25.975  99.404  1.00  0.00    -0.398 OA
ATOM     23  H8  UNL     1      21.193  25.913  98.469  1.00  0.00     0.209 HD
ENDBRANCH  21  22
ENDBRANCH   5  21
BRANCH   3  24
HETATM   24  O4  UNL     1      23.720  26.696 100.475  1.00  0.00    -0.362 OA
ATOM     25  H4  UNL     1      23.945  27.606 100.628  1.00  0.00     0.213 HD
ENDBRANCH   3  24
BRANCH   3  26
HETATM   26  C7  UNL     1      24.429  26.050 102.608  1.00  0.00     0.235 C
BRANCH  26  27
HETATM   27  O5  UNL     1      25.017  27.312 102.515  1.00  0.00    -0.395 OA
ATOM     28  H5  UNL     1      24.650  27.832 103.221  1.00  0.00     0.209 HD
ENDBRANCH  26  27
ENDBRANCH   3  26
BRANCH   4  29
HETATM   29  O6  UNL     1      23.319  24.238 100.039  1.00  0.00    -0.387 OA
ATOM     30  H6  UNL     1      22.877  23.475  99.684  1.00  0.00     0.210 HD
ENDBRANCH   4  29
TORSDOF 8
ENDMDL