MODEL 3
REMARK VINA RESULT: -6.488474014      2.207      3.961
REMARK  9 active torsions:
REMARK  status: ('A' for Active; 'I' for Inactive)
REMARK    1  A    between atoms: C2_3  and  O1_4
REMARK    2  A    between atoms: C3_6  and  O2_7
REMARK    3  A    between atoms: C4_9  and  N2_10
REMARK    4  A    between atoms: C6_12  and  C7_13
REMARK    5  A    between atoms: C8_16  and  N4_17
REMARK    6  A    between atoms: C10_24  and  O5_25
REMARK    7  A    between atoms: C11_27  and  O6_28
REMARK    8  A    between atoms: C11_27  and  C12_30
REMARK    9  A    between atoms: C12_30  and  O7_31
ROOT
HETATM    1  N1  UNL     1      22.946  21.745  98.736  1.00  0.00    -0.194 NA
HETATM    2  C1  UNL     1      22.136  22.400  99.247  1.00  0.00     0.104 C
HETATM    3  C2  UNL     1      21.124  23.218  99.892  1.00  0.00     0.210 C
HETATM    4  C3  UNL     1      21.735  24.403 100.604  1.00  0.00     0.196 C
HETATM    5  C4  UNL     1      20.920  25.622 100.141  1.00  0.00     0.159 C
HETATM    6  C10 UNL     1      19.645  25.019  99.764  1.00  0.00     0.184 C
HETATM    7  C11 UNL     1      20.155  23.837  98.906  1.00  0.00     0.153 C
ENDROOT
BRANCH   3   8
HETATM    8  O1  UNL     1      20.415  22.395 100.765  1.00  0.00    -0.370 OA
ATOM      9  H1  UNL     1      19.498  22.444 100.522  1.00  0.00     0.212 HD
ENDBRANCH   3   8
BRANCH   4  10
HETATM   10  O2  UNL     1      21.688  24.265 101.985  1.00  0.00    -0.389 OA
ATOM     11  H2  UNL     1      21.149  24.933 102.393  1.00  0.00     0.210 HD
ENDBRANCH   4  10
BRANCH   7  12
HETATM   12  O6  UNL     1      20.799  24.308  97.764  1.00  0.00    -0.381 OA
ATOM     13  H6  UNL     1      20.384  24.002  96.967  1.00  0.00     0.211 HD
ENDBRANCH   7  12
BRANCH   7  14
HETATM   14  C12 UNL     1      19.005  22.924  98.573  1.00  0.00     0.209 C
BRANCH  14  15
HETATM   15  O7  UNL     1      17.915  23.752  98.252  1.00  0.00    -0.398 OA
ATOM     16  H7  UNL     1      17.588  23.457  97.410  1.00  0.00     0.209 HD
ENDBRANCH  14  15
ENDBRANCH   7  14
BRANCH   5  17
HETATM   17  N2  UNL     1      20.977  26.690 101.059  1.00  0.00    -0.299 N
HETATM   18  C5  UNL     1      19.838  26.882 101.797  1.00  0.00     0.117 A
HETATM   19  C6  UNL     1      19.756  27.890 102.731  1.00  0.00     0.088 A
HETATM   20  C8  UNL     1      20.878  28.682 102.874  1.00  0.00     0.119 A
HETATM   21  N5  UNL     1      21.989  28.467 102.128  1.00  0.00    -0.294 N
HETATM   22  C9  UNL     1      22.053  27.476 101.220  1.00  0.00     0.328 A
ATOM     23  H5  UNL     1      22.799  29.073 102.260  1.00  0.00     0.172 HD
HETATM   24  O4  UNL     1      23.096  27.284 100.529  1.00  0.00    -0.246 OA
BRANCH  19  25
HETATM   25  C7  UNL     1      18.557  28.119 103.531  1.00  0.00     0.270 C
HETATM   26  N3  UNL     1      17.706  27.023 103.841  1.00  0.00    -0.057 NA
HETATM   27  O3  UNL     1      18.255  29.264 103.956  1.00  0.00    -0.271 OA
ENDBRANCH  19  25
BRANCH  20  28
HETATM   28  N4  UNL     1      20.843  29.634 103.732  1.00  0.00    -0.385 N
ATOM     29  H42 UNL     1      20.924  29.436 104.730  1.00  0.00     0.157 HD
ATOM     30  H41 UNL     1      20.734  30.589 103.390  1.00  0.00     0.157 HD
ENDBRANCH  20  28
ENDBRANCH   5  17
BRANCH   6  31
HETATM   31  O5  UNL     1      18.930  24.417 100.775  1.00  0.00    -0.390 OA
ATOM     32  H5  UNL     1      18.981  24.827 101.630  1.00  0.00     0.210 HD
ENDBRANCH   6  31
TORSDOF 9
ENDMDL