MODEL 3
REMARK VINA RESULT: -6.346113702      2.702      4.153
REMARK  9 active torsions:
REMARK  status: ('A' for Active; 'I' for Inactive)
REMARK    1  A    between atoms: N1_1  and  C1_4
REMARK    2  A    between atoms: N3_9  and  C3_10
REMARK    3  A    between atoms: C4_11  and  O2_12
REMARK    4  A    between atoms: C5_14  and  O3_15
REMARK    5  A    between atoms: C6_17  and  N4_18
REMARK       I    between atoms: N5_22  and  C7_23
REMARK       I    between atoms: C7_23  and  N6_25
REMARK    6  A    between atoms: N6_25  and  N7_26
REMARK    7  A    between atoms: C8_31  and  C9_32
REMARK    8  A    between atoms: C9_32  and  O5_33
REMARK    9  A    between atoms: C9_32  and  O6_35
ROOT
HETATM    1  C3  UNL     1      19.850  23.871 100.542  1.00  0.00     0.252 C
HETATM    2  C4  UNL     1      19.547  24.177  99.088  1.00  0.00     0.195 C
HETATM    3  C5  UNL     1      20.518  23.329  98.327  1.00  0.00     0.201 C
HETATM    4  C6  UNL     1      21.637  23.085  99.312  1.00  0.00     0.322 C
HETATM    5  N5  UNL     1      20.907  22.915 100.538  1.00  0.00    -0.264 N
HETATM    6  C7  UNL     1      21.173  21.956 101.555  1.00  0.00     0.417 C
HETATM    7  O4  UNL     1      22.183  21.223 101.336  1.00  0.00    -0.228 OA
HETATM    8  N6  UNL     1      20.374  21.882 102.646  1.00  0.00    -0.272 NA
ENDROOT
BRANCH   1   9
HETATM    9  N3  UNL     1      20.207  25.121 101.237  1.00  0.00    -0.215 N
HETATM   10  C2  UNL     1      19.374  25.660 102.131  1.00  0.00     0.344 A
HETATM   11  N2  UNL     1      19.609  26.793 102.785  1.00  0.00    -0.292 N
HETATM   12  O1  UNL     1      18.269  25.059 102.382  1.00  0.00    -0.245 OA
HETATM   13  C1  UNL     1      20.790  27.490 102.554  1.00  0.00     0.132 A
ATOM     14  H2  UNL     1      18.926  27.149 103.454  1.00  0.00     0.172 HD
HETATM   15  C8  UNL     1      21.638  26.926 101.635  1.00  0.00     0.124 A
HETATM   16  N8  UNL     1      21.323  25.745 100.995  1.00  0.00    -0.288 N
ATOM     17  H8  UNL     1      21.978  25.354 100.317  1.00  0.00     0.187 HD
BRANCH  13  18
HETATM   18  N1  UNL     1      20.936  28.544 103.189  1.00  0.00    -0.384 N
ATOM     19  H12 UNL     1      21.025  28.668 104.197  1.00  0.00     0.157 HD
ATOM     20  H11 UNL     1      20.986  29.400 102.635  1.00  0.00     0.157 HD
ENDBRANCH  13  18
BRANCH  15  21
HETATM   21  C9  UNL     1      22.933  27.564 101.307  1.00  0.00     0.310 C
BRANCH  21  22
HETATM   22  O5  UNL     1      23.797  27.516 102.428  1.00  0.00    -0.366 OA
ATOM     23  H5  UNL     1      24.625  27.933 102.221  1.00  0.00     0.213 HD
ENDBRANCH  21  22
BRANCH  21  24
HETATM   24  O6  UNL     1      22.784  28.875 100.958  1.00  0.00    -0.366 OA
ATOM     25  H6  UNL     1      23.530  29.201 100.469  1.00  0.00     0.213 HD
ENDBRANCH  21  24
ENDBRANCH  15  21
ENDBRANCH   1   9
BRANCH   2  26
HETATM   26  O2  UNL     1      19.820  25.515  98.795  1.00  0.00    -0.389 OA
ATOM     27  H2  UNL     1      19.315  25.807  98.046  1.00  0.00     0.210 HD
ENDBRANCH   2  26
BRANCH   3  28
HETATM   28  O3  UNL     1      21.006  24.083  97.258  1.00  0.00    -0.389 OA
ATOM     29  H3  UNL     1      20.475  24.867  97.185  1.00  0.00     0.210 HD
ENDBRANCH   3  28
BRANCH   4  30
HETATM   30  N4  UNL     1      22.421  21.916  98.960  1.00  0.00    -0.055 N
ATOM     31  H43 UNL     1      23.408  22.150  98.857  1.00  0.00     0.276 HD
ATOM     32  H42 UNL     1      22.492  21.267  99.743  1.00  0.00     0.276 HD
ATOM     33  H41 UNL     1      22.060  21.454  98.125  1.00  0.00     0.276 HD
ENDBRANCH   4  30
BRANCH   8  34
HETATM   34  N7  UNL     1      19.585  21.809 103.724  1.00  0.00    -0.275 N
ATOM     35  H72 UNL     1      20.205  21.850 102.915  1.00  0.00     0.191 HD
ATOM     36  H71 UNL     1      18.984  21.753 104.546  1.00  0.00     0.191 HD
ENDBRANCH   8  34
TORSDOF 9
ENDMDL