MODEL 2
REMARK VINA RESULT: -6.554306300      2.194      4.190
REMARK  9 active torsions:
REMARK  status: ('A' for Active; 'I' for Inactive)
REMARK    1  A    between atoms: N1_1  and  N2_4
REMARK    2  A    between atoms: N2_4  and  N3_6
REMARK    3  A    between atoms: N3_6  and  C1_8
REMARK    4  A    between atoms: C2_11  and  C3_12
REMARK    5  A    between atoms: C3_12  and  N5_13
REMARK    6  A    between atoms: C4_17  and  O1_18
REMARK    7  A    between atoms: N6_20  and  N7_21
REMARK    8  A    between atoms: C8_27  and  N9_28
REMARK    9  A    between atoms: C9_34  and  N12_35
ROOT
HETATM    1  C1  UNL     1      22.753  24.109 101.710  1.00  0.00     0.714 C
HETATM    2  N4  UNL     1      23.957  24.331 102.158  1.00  0.00    -0.213 N
ATOM      3  H4  UNL     1      24.493  23.680 102.732  1.00  0.00     0.178 HD
HETATM    4  C2  UNL     1      24.425  25.631 101.724  1.00  0.00     0.175 C
HETATM    5  C4  UNL     1      23.488  25.989 100.627  1.00  0.00     0.284 C
HETATM    6  N6  UNL     1      22.292  25.230 100.941  1.00  0.00    -0.083 N
ENDROOT
BRANCH   6   7
HETATM    7  N7  UNL     1      20.957  25.469 100.597  1.00  0.00    -0.230 N
HETATM    8  C5  UNL     1      20.350  25.057  99.465  1.00  0.00     0.209 A
HETATM    9  N8  UNL     1      19.074  25.445  99.430  1.00  0.00    -0.335 N
HETATM   10  C6  UNL     1      18.832  26.130 100.563  1.00  0.00     0.133 A
ATOM     11  H8  UNL     1      18.407  25.258  98.682  1.00  0.00     0.168 HD
HETATM   12  C7  UNL     1      20.014  26.140 101.289  1.00  0.00     0.127 A
HETATM   13  N13 UNL     1      17.595  26.730 100.913  1.00  0.00    -0.333 N
HETATM   14  C8  UNL     1      20.252  26.746 102.614  1.00  0.00     0.347 C
HETATM   15  N10 UNL     1      19.024  27.378 103.104  1.00  0.00    -0.105 NA
HETATM   16  N11 UNL     1      18.591  28.381 102.262  1.00  0.00    -0.092 NA
HETATM   17  C9  UNL     1      17.356  28.006 101.561  1.00  0.00     0.394 C
ATOM     18  H13 UNL     1      16.761  26.193 100.677  1.00  0.00     0.164 HD
BRANCH  14  19
HETATM   19  N9  UNL     1      21.273  27.760 102.643  1.00  0.00    -0.054 N
ATOM     20  H93 UNL     1      20.903  28.643 102.290  1.00  0.00     0.276 HD
ATOM     21  H92 UNL     1      21.479  28.026 103.606  1.00  0.00     0.276 HD
ATOM     22  H91 UNL     1      22.134  27.518 102.153  1.00  0.00     0.276 HD
ENDBRANCH  14  19
BRANCH  17  23
HETATM   23  N12 UNL     1      16.291  27.968 102.515  1.00  0.00    -0.043 N
ATOM     24 3H12 UNL     1      15.432  28.390 102.162  1.00  0.00     0.278 HD
ATOM     25 2H12 UNL     1      15.930  27.025 102.664  1.00  0.00     0.278 HD
ATOM     26 1H12 UNL     1      16.618  28.404 103.378  1.00  0.00     0.278 HD
ENDBRANCH  17  23
ENDBRANCH   6   7
BRANCH   1  27
HETATM   27  N3  UNL     1      21.991  22.931 101.949  1.00  0.00    -0.117 N
ATOM     28  H3  UNL     1      20.997  22.910 101.723  1.00  0.00     0.207 HD
BRANCH  27  29
HETATM   29  N2  UNL     1      22.610  21.804 102.496  1.00  0.00    -0.235 N
ATOM     30  H2  UNL     1      23.626  21.742 102.558  1.00  0.00     0.208 HD
BRANCH  29  31
HETATM   31  N1  UNL     1      21.875  20.864 102.914  1.00  0.00    -0.330 N
ATOM     32  H12 UNL     1      20.881  21.027 103.074  1.00  0.00     0.178 HD
ATOM     33  H11 UNL     1      22.306  19.955 103.082  1.00  0.00     0.178 HD
ENDBRANCH  29  31
ENDBRANCH  27  29
ENDBRANCH   1  27
BRANCH   5  34
HETATM   34  O1  UNL     1      23.267  27.326 100.430  1.00  0.00    -0.372 OA
ATOM     35  H1  UNL     1      22.391  27.641 100.622  1.00  0.00     0.212 HD
ENDBRANCH   5  34
BRANCH   4  36
HETATM   36  C3  UNL     1      24.514  26.608 102.854  1.00  0.00     0.259 C
BRANCH  36  37
HETATM   37  N5  UNL     1      25.337  26.219 103.950  1.00  0.00    -0.077 N
ATOM     38  H53 UNL     1      26.274  26.606 103.834  1.00  0.00     0.274 HD
ATOM     39  H52 UNL     1      25.041  26.707 104.796  1.00  0.00     0.274 HD
ATOM     40  H51 UNL     1      25.396  25.217 104.130  1.00  0.00     0.274 HD
ENDBRANCH  36  37
ENDBRANCH   4  36
TORSDOF 9
ENDMDL