MODEL 5
REMARK VINA RESULT: -6.493586571      1.970      2.809
REMARK  6 active torsions:
REMARK  status: ('A' for Active; 'I' for Inactive)
REMARK       I    between atoms: C1_2  and  N2_4
REMARK    1  A    between atoms: N2_4  and  N3_6
REMARK    2  A    between atoms: N3_6  and  C2_7
REMARK    3  A    between atoms: C8_23  and  C9_24
REMARK    4  A    between atoms: C9_24  and  O3_25
REMARK    5  A    between atoms: C9_24  and  C10_27
REMARK    6  A    between atoms: C10_27  and  O4_28
ROOT
HETATM    1  C2  UNL     1      21.806  28.180 101.878  1.00  0.00     0.369 C
HETATM    2  N4  UNL     1      21.872  28.755 103.219  1.00  0.00    -0.047 N
ATOM      3  H41 UNL     1      22.560  29.503 103.299  1.00  0.00     0.279 HD
ATOM      4  H42 UNL     1      22.283  28.122 103.904  1.00  0.00     0.279 HD
HETATM    5  C3  UNL     1      20.558  29.168 103.563  1.00  0.00     0.254 C
HETATM    6  C4  UNL     1      20.400  30.384 104.412  1.00  0.00     0.151 C
HETATM    7  N5  UNL     1      18.985  30.537 104.700  1.00  0.00    -0.351 N
ATOM      8  H5  UNL     1      18.671  31.478 104.941  1.00  0.00     0.163 HD
HETATM    9  C5  UNL     1      17.980  29.518 104.683  1.00  0.00     0.262 C
HETATM   10  N6  UNL     1      17.210  29.540 105.931  1.00  0.00    -0.049 NA
HETATM   11  N7  UNL     1      17.705  28.710 103.837  1.00  0.00    -0.381 NA
HETATM   12  C6  UNL     1      17.366  27.788 102.915  1.00  0.00     0.260 C
HETATM   13  C7  UNL     1      17.828  26.384 103.095  1.00  0.00     0.271 C
HETATM   14  O2  UNL     1      17.083  25.714 103.914  1.00  0.00    -0.266 OA
HETATM   15  N8  UNL     1      18.938  25.754 102.491  1.00  0.00    -0.341 N
ATOM     16  H8  UNL     1      18.711  24.921 101.948  1.00  0.00     0.163 HD
HETATM   17  C8  UNL     1      20.319  26.089 102.511  1.00  0.00     0.189 C
HETATM   18  C11 UNL     1      20.734  27.219 101.644  1.00  0.00     0.200 C
HETATM   19  O5  UNL     1      20.072  27.323 100.621  1.00  0.00    -0.292 OA
ENDROOT
BRANCH   1  20
HETATM   20  N3  UNL     1      23.102  27.746 101.402  1.00  0.00    -0.096 NA
BRANCH  20  21
HETATM   21  N2  UNL     1      23.980  27.542 102.470  1.00  0.00    -0.256 N
HETATM   22  C1  UNL     1      24.722  26.341 102.624  1.00  0.00     0.344 C
HETATM   23  N1  UNL     1      25.612  26.131 103.706  1.00  0.00    -0.039 NA
HETATM   24  O1  UNL     1      24.569  25.444 101.756  1.00  0.00    -0.250 OA
ATOM     25  H2  UNL     1      24.091  28.281 103.163  1.00  0.00     0.186 HD
ENDBRANCH  20  21
ENDBRANCH   1  20
BRANCH  17  26
HETATM   26  C9  UNL     1      21.105  24.878 101.960  1.00  0.00     0.171 C
BRANCH  26  27
HETATM   27  O3  UNL     1      21.823  25.189 100.826  1.00  0.00    -0.391 OA
ATOM     28  H3  UNL     1      22.570  24.616 100.701  1.00  0.00     0.210 HD
ENDBRANCH  26  27
BRANCH  26  29
HETATM   29  C10 UNL     1      20.105  23.762 101.618  1.00  0.00     0.198 C
BRANCH  29  30
HETATM   30  O4  UNL     1      20.019  22.850 102.660  1.00  0.00    -0.398 OA
ATOM     31  H4  UNL     1      19.139  22.501 102.726  1.00  0.00     0.209 HD
ENDBRANCH  29  30
ENDBRANCH  26  29
ENDBRANCH  17  26
TORSDOF 6
ENDMDL