MODEL 5
REMARK VINA RESULT: -6.474036218      1.616      2.471
REMARK  8 active torsions:
REMARK  status: ('A' for Active; 'I' for Inactive)
REMARK    1  A    between atoms: N1_1  and  N2_4
REMARK    2  A    between atoms: C1_5  and  O1_6
REMARK    3  A    between atoms: C2_8  and  O2_9
REMARK    4  A    between atoms: C3_11  and  N3_12
REMARK    5  A    between atoms: N6_25  and  C9_26
REMARK    6  A    between atoms: C9_26  and  O6_27
REMARK    7  A    between atoms: C10_29  and  O7_30
REMARK    8  A    between atoms: C10_29  and  O8_32
ROOT
HETATM    1  N3  UNL     1      21.631  24.732 100.674  1.00  0.00    -0.268 N
HETATM    2  C4  UNL     1      22.979  24.738 100.630  1.00  0.00     0.331 A
HETATM    3  O3  UNL     1      23.555  23.791 100.045  1.00  0.00    -0.246 OA
HETATM    4  N4  UNL     1      23.742  25.699 101.173  1.00  0.00    -0.273 N
ATOM      5  H4  UNL     1      24.757  25.630 101.096  1.00  0.00     0.173 HD
HETATM    6  C5  UNL     1      23.201  26.757 101.821  1.00  0.00     0.280 A
HETATM    7  O4  UNL     1      23.959  27.633 102.315  1.00  0.00    -0.265 OA
HETATM    8  C6  UNL     1      21.840  26.797 101.895  1.00  0.00     0.154 A
HETATM    9  C7  UNL     1      21.091  25.805 101.332  1.00  0.00     0.149 A
HETATM   10  N5  UNL     1      19.812  26.118 101.565  1.00  0.00    -0.292 N
ATOM     11  H5  UNL     1      19.002  25.574 101.270  1.00  0.00     0.172 HD
HETATM   12  C8  UNL     1      19.775  27.272 102.252  1.00  0.00     0.330 A
HETATM   13  O5  UNL     1      18.725  27.844 102.631  1.00  0.00    -0.246 OA
HETATM   14  N6  UNL     1      21.030  27.700 102.461  1.00  0.00    -0.269 N
ENDROOT
BRANCH   1  15
HETATM   15  C3  UNL     1      20.818  23.714 100.099  1.00  0.00     0.216 C
HETATM   16  C2  UNL     1      19.984  22.914 101.055  1.00  0.00     0.199 C
HETATM   17  C1  UNL     1      18.538  23.186 100.654  1.00  0.00     0.271 C
HETATM   18  N2  UNL     1      18.560  23.831  99.396  1.00  0.00    -0.242 N
HETATM   19  C10 UNL     1      19.883  24.161  99.009  1.00  0.00     0.286 C
BRANCH  16  20
HETATM   20  O2  UNL     1      20.233  23.145 102.384  1.00  0.00    -0.389 OA
ATOM     21  H2  UNL     1      19.772  23.902 102.728  1.00  0.00     0.210 HD
ENDBRANCH  16  20
BRANCH  17  22
HETATM   22  O1  UNL     1      17.823  21.973 100.484  1.00  0.00    -0.372 OA
ATOM     23  H1  UNL     1      17.006  22.064 100.960  1.00  0.00     0.212 HD
ENDBRANCH  17  22
BRANCH  18  24
HETATM   24  N1  UNL     1      17.571  24.731  99.115  1.00  0.00    -0.340 N
ATOM     25  H12 UNL     1      16.773  24.405  98.571  1.00  0.00     0.176 HD
ATOM     26  H11 UNL     1      17.842  25.677  98.845  1.00  0.00     0.176 HD
ENDBRANCH  18  24
BRANCH  19  27
HETATM   27  O7  UNL     1      20.122  23.477  97.788  1.00  0.00    -0.346 OA
ATOM     28  H7  UNL     1      20.822  23.948  97.353  1.00  0.00     0.215 HD
ENDBRANCH  19  27
BRANCH  19  29
HETATM   29  O8  UNL     1      20.048  25.516  98.670  1.00  0.00    -0.346 OA
ATOM     30  H8  UNL     1      20.259  26.070  99.412  1.00  0.00     0.215 HD
ENDBRANCH  19  29
ENDBRANCH   1  15
BRANCH  14  31
HETATM   31  C9  UNL     1      21.383  28.919 103.174  1.00  0.00     0.300 C
BRANCH  31  32
HETATM   32  O6  UNL     1      20.854  30.003 102.485  1.00  0.00    -0.382 OA
ATOM     33  H6  UNL     1      19.918  30.035 102.644  1.00  0.00     0.211 HD
ENDBRANCH  31  32
ENDBRANCH  14  31
TORSDOF 8
ENDMDL