MODEL 4
REMARK VINA RESULT: -7.317099560      3.267      3.912
REMARK  7 active torsions:
REMARK  status: ('A' for Active; 'I' for Inactive)
REMARK    1  A    between atoms: C1_2  and  C2_4
REMARK    2  A    between atoms: C3_7  and  N3_8
REMARK    3  A    between atoms: N3_8  and  N4_10
REMARK       I    between atoms: N4_10  and  C4_12
REMARK       I    between atoms: C4_12  and  N5_13
REMARK       I    between atoms: C4_12  and  N6_17
REMARK    4  A    between atoms: N8_24  and  C6_26
REMARK    5  A    between atoms: C8_29  and  O3_30
REMARK    6  A    between atoms: C9_32  and  O4_33
REMARK    7  A    between atoms: C10_35  and  N9_36
ROOT
HETATM    1  C2  UNL     1      20.299  29.319 103.619  1.00  0.00     0.201 A
HETATM    2  N2  UNL     1      21.599  29.097 103.408  1.00  0.00    -0.169 N
ATOM      3  H2  UNL     1      22.276  29.774 103.758  1.00  0.00     0.186 HD
HETATM    4  C3  UNL     1      22.049  28.007 102.748  1.00  0.00     0.712 A
HETATM    5  N7  UNL     1      21.117  27.139 102.304  1.00  0.00    -0.021 N
ATOM      6  H7  UNL     1      21.430  26.308 101.804  1.00  0.00     0.203 HD
HETATM    7  C5  UNL     1      19.796  27.315 102.487  1.00  0.00     0.696 A
HETATM    8  N8  UNL     1      18.884  26.504 102.074  1.00  0.00    -0.197 N
ATOM      9  H8  UNL     1      17.900  26.705 102.252  1.00  0.00     0.180 HD
HETATM   10  N10 UNL     1      19.402  28.440 103.165  1.00  0.00    -0.170 N
ATOM     11  H10 UNL     1      18.409  28.608 103.325  1.00  0.00     0.186 HD
ENDROOT
BRANCH   8  12
HETATM   12  C6  UNL     1      19.265  25.305 101.356  1.00  0.00     0.270 C
HETATM   13  O2  UNL     1      18.790  24.209 102.065  1.00  0.00    -0.361 OA
HETATM   14  C7  UNL     1      18.641  23.101 101.266  1.00  0.00     0.205 C
HETATM   15  C8  UNL     1      17.372  23.291 100.451  1.00  0.00     0.173 C
HETATM   16  C9  UNL     1      17.396  24.659  99.811  1.00  0.00     0.183 C
HETATM   17  C10 UNL     1      18.722  25.348  99.946  1.00  0.00     0.263 C
BRANCH  15  18
HETATM   18  O3  UNL     1      16.295  23.148 101.336  1.00  0.00    -0.391 OA
ATOM     19  H3  UNL     1      15.654  22.597 100.903  1.00  0.00     0.210 HD
ENDBRANCH  15  18
BRANCH  16  20
HETATM   20  O4  UNL     1      17.090  24.502  98.472  1.00  0.00    -0.391 OA
ATOM     21  H4  UNL     1      17.590  25.146  97.984  1.00  0.00     0.210 HD
ENDBRANCH  16  20
BRANCH  17  22
HETATM   22  N9  UNL     1      19.703  24.885  98.988  1.00  0.00    -0.068 N
ATOM     23  H93 UNL     1      19.277  24.689  98.083  1.00  0.00     0.275 HD
ATOM     24  H92 UNL     1      20.334  25.636  98.707  1.00  0.00     0.275 HD
ATOM     25  H91 UNL     1      20.218  24.079  99.342  1.00  0.00     0.275 HD
ENDBRANCH  17  22
ENDBRANCH   8  12
BRANCH   4  26
HETATM   26  N3  UNL     1      23.307  27.809 102.554  1.00  0.00    -0.133 N
ATOM     27  H3  UNL     1      23.972  28.583 102.569  1.00  0.00     0.205 HD
BRANCH  26  28
HETATM   28  N4  UNL     1      23.730  26.492 102.323  1.00  0.00    -0.270 N
HETATM   29  C4  UNL     1      25.101  26.183 102.637  1.00  0.00     0.495 C
HETATM   30  N5  UNL     1      25.371  24.792 102.342  1.00  0.00    -0.032 N
HETATM   31  N6  UNL     1      25.297  26.364 104.067  1.00  0.00    -0.032 N
ATOM     32  H53 UNL     1      24.718  24.166 102.815  1.00  0.00     0.279 HD
ATOM     33  H52 UNL     1      25.134  24.552 101.379  1.00  0.00     0.279 HD
ATOM     34  H51 UNL     1      26.342  24.573 102.564  1.00  0.00     0.279 HD
ATOM     35  H63 UNL     1      25.022  27.293 104.386  1.00  0.00     0.279 HD
ATOM     36  H62 UNL     1      24.636  25.824 104.625  1.00  0.00     0.279 HD
ATOM     37  H61 UNL     1      26.268  26.145 104.289  1.00  0.00     0.279 HD
ATOM     38  H4  UNL     1      23.095  25.787 101.950  1.00  0.00     0.184 HD
ENDBRANCH  26  28
ENDBRANCH   4  26
BRANCH   1  39
HETATM   39  C1  UNL     1      19.870  30.500 104.330  1.00  0.00     0.299 C
HETATM   40  N1  UNL     1      18.655  30.503 105.065  1.00  0.00    -0.054 NA
HETATM   41  O1  UNL     1      20.579  31.540 104.300  1.00  0.00    -0.268 OA
ENDBRANCH   1  39
TORSDOF 7
ENDMDL