MODEL 1
REMARK VINA RESULT: -7.118859466      0.000      0.000
REMARK  9 active torsions:
REMARK  status: ('A' for Active; 'I' for Inactive)
REMARK    1  A    between atoms: N1_1  and  C1_4
REMARK    2  A    between atoms: N4_13  and  C5_14
REMARK    3  A    between atoms: C6_16  and  O3_17
REMARK    4  A    between atoms: N5_19  and  N6_20
REMARK    5  A    between atoms: C7_23  and  O4_24
REMARK    6  A    between atoms: N7_28  and  C9_29
REMARK    7  A    between atoms: C9_29  and  C10_30
REMARK    8  A    between atoms: C10_30  and  O6_31
REMARK    9  A    between atoms: C10_30  and  O7_33
ROOT
HETATM    1  C1  UNL     1      19.511  24.760  99.272  1.00  0.00     0.680 A
HETATM    2  N2  UNL     1      18.266  24.287  99.187  1.00  0.00    -0.154 N
ATOM      3  H2  UNL     1      17.991  23.699  98.401  1.00  0.00     0.187 HD
HETATM    4  C2  UNL     1      17.381  24.594 100.146  1.00  0.00     0.290 A
HETATM    5  O1  UNL     1      16.227  24.124 100.014  1.00  0.00    -0.265 OA
HETATM    6  C3  UNL     1      17.677  25.382 101.238  1.00  0.00     0.153 A
HETATM    7  C4  UNL     1      18.998  25.846 101.267  1.00  0.00     0.162 A
HETATM    8  N3  UNL     1      19.866  25.530 100.301  1.00  0.00    -0.174 N
ATOM      9  H3  UNL     1      20.820  25.886 100.352  1.00  0.00     0.186 HD
HETATM   10  N4  UNL     1      19.063  26.596 102.398  1.00  0.00    -0.251 N
HETATM   11  C8  UNL     1      17.884  26.607 103.036  1.00  0.00     0.333 A
HETATM   12  O5  UNL     1      17.664  27.224 104.110  1.00  0.00    -0.246 OA
HETATM   13  N7  UNL     1      17.024  25.846 102.307  1.00  0.00    -0.286 N
ENDROOT
BRANCH  10  14
HETATM   14  C5  UNL     1      20.256  27.282 102.837  1.00  0.00     0.283 C
HETATM   15  O2  UNL     1      21.425  26.703 102.348  1.00  0.00    -0.318 OA
HETATM   16  C6  UNL     1      22.348  27.735 102.510  1.00  0.00     0.364 C
HETATM   17  N5  UNL     1      21.687  28.863 101.884  1.00  0.00    -0.152 NA
HETATM   18  C7  UNL     1      20.325  28.706 102.355  1.00  0.00     0.266 C
BRANCH  16  19
HETATM   19  O3  UNL     1      23.561  27.437 101.891  1.00  0.00    -0.357 OA
ATOM     20  H3  UNL     1      24.298  27.631 102.458  1.00  0.00     0.214 HD
ENDBRANCH  16  19
BRANCH  17  21
HETATM   21  N6  UNL     1      22.264  30.027 102.399  1.00  0.00    -0.357 NA
ATOM     22  H62 UNL     1      22.165  30.803 101.745  1.00  0.00     0.171 HD
ATOM     23  H61 UNL     1      21.685  30.338 103.179  1.00  0.00     0.171 HD
ENDBRANCH  17  21
BRANCH  18  24
HETATM   24  O4  UNL     1      20.154  29.555 103.470  1.00  0.00    -0.375 OA
ATOM     25  H4  UNL     1      20.481  29.103 104.239  1.00  0.00     0.211 HD
ENDBRANCH  18  24
ENDBRANCH  10  14
BRANCH  13  26
HETATM   26  C9  UNL     1      15.671  25.571 102.664  1.00  0.00     0.194 C
BRANCH  26  27
HETATM   27  C10 UNL     1      15.464  24.432 103.610  1.00  0.00     0.272 C
BRANCH  27  28
HETATM   28  O6  UNL     1      15.505  23.257 102.820  1.00  0.00    -0.370 OA
ATOM     29  H6  UNL     1      16.156  22.693 103.222  1.00  0.00     0.212 HD
ENDBRANCH  27  28
BRANCH  27  30
HETATM   30  O7  UNL     1      16.430  24.334 104.568  1.00  0.00    -0.370 OA
ATOM     31  H7  UNL     1      16.142  24.613 105.429  1.00  0.00     0.212 HD
ENDBRANCH  27  30
ENDBRANCH  26  27
ENDBRANCH  13  26
BRANCH   1  32
HETATM   32  N1  UNL     1      20.370  24.454  98.328  1.00  0.00    -0.234 N
ATOM     33  H12 UNL     1      20.816  23.536  98.299  1.00  0.00     0.174 HD
ATOM     34  H11 UNL     1      20.587  25.151  97.616  1.00  0.00     0.174 HD
ENDBRANCH   1  32
TORSDOF 9
ENDMDL