MODEL 2
REMARK VINA RESULT: -6.896190301      1.055      1.405
REMARK  10 active torsions:
REMARK  status: ('A' for Active; 'I' for Inactive)
REMARK    1  A    between atoms: C2_2  and  O1_3
REMARK    2  A    between atoms: C4_7  and  O3_8
REMARK    3  A    between atoms: C4_7  and  C5_10
REMARK       I    between atoms: C5_10  and  N1_12
REMARK    4  A    between atoms: N1_12  and  C6_14
REMARK    5  A    between atoms: C6_14  and  O5_15
REMARK    6  A    between atoms: C6_14  and  N2_17
REMARK    7  A    between atoms: C7_20  and  N4_21
REMARK    8  A    between atoms: C9_28  and  O7_29
REMARK    9  A    between atoms: O7_29  and  N6_30
REMARK   10  A    between atoms: C10_33  and  N7_34
ROOT
HETATM    1  C1  UNL     1      18.760  24.423 102.251  1.00  0.00     0.057 C
HETATM    2  C2  UNL     1      18.005  25.493 101.495  1.00  0.00     0.148 C
HETATM    3  C3  UNL     1      18.999  26.404 100.854  1.00  0.00     0.209 C
HETATM    4  O2  UNL     1      19.690  26.166  99.877  1.00  0.00    -0.291 OA
HETATM    5  C4  UNL     1      19.049  27.700 101.588  1.00  0.00     0.233 C
HETATM    6  C9  UNL     1      18.219  27.495 102.832  1.00  0.00     0.237 C
HETATM    7  C10 UNL     1      17.251  26.417 102.389  1.00  0.00     0.260 C
ENDROOT
BRANCH   5   8
HETATM    8  O3  UNL     1      18.522  28.730 100.824  1.00  0.00    -0.371 OA
ATOM      9  H3  UNL     1      17.651  28.968 101.121  1.00  0.00     0.211 HD
ENDBRANCH   5   8
BRANCH   5  10
HETATM   10  C5  UNL     1      20.436  28.022 102.026  1.00  0.00     0.266 C
HETATM   11  O4  UNL     1      20.648  29.185 102.425  1.00  0.00    -0.269 OA
HETATM   12  N1  UNL     1      21.489  27.083 102.006  1.00  0.00    -0.313 N
ATOM     13  H1  UNL     1      21.314  26.132 101.680  1.00  0.00     0.167 HD
BRANCH  12  14
HETATM   14  C6  UNL     1      22.797  27.455 102.440  1.00  0.00     0.357 C
BRANCH  14  15
HETATM   15  O5  UNL     1      23.220  28.626 101.815  1.00  0.00    -0.358 OA
ATOM     16  H5  UNL     1      23.585  28.445 100.957  1.00  0.00     0.214 HD
ENDBRANCH  14  15
BRANCH  14  17
HETATM   17  N2  UNL     1      23.797  26.431 102.165  1.00  0.00    -0.180 N
HETATM   18  N3  UNL     1      23.779  25.590 101.146  1.00  0.00    -0.122 N
HETATM   19  C7  UNL     1      24.845  24.804 101.217  1.00  0.00     0.695 A
ATOM     20  H3  UNL     1      23.061  25.551 100.423  1.00  0.00     0.206 HD
HETATM   21  N5  UNL     1      25.530  25.165 102.294  1.00  0.00    -0.139 N
HETATM   22  C8  UNL     1      24.887  26.172 102.887  1.00  0.00     0.359 A
ATOM     23  H5  UNL     1      26.401  24.744 102.615  1.00  0.00     0.189 HD
HETATM   24  O6  UNL     1      25.292  26.741 103.946  1.00  0.00    -0.244 OA
BRANCH  19  25
HETATM   25  N4  UNL     1      25.112  23.866 100.353  1.00  0.00    -0.233 N
ATOM     26  H42 UNL     1      24.696  23.701  99.438  1.00  0.00     0.174 HD
ATOM     27  H41 UNL     1      25.815  23.142 100.502  1.00  0.00     0.174 HD
ENDBRANCH  19  25
ENDBRANCH  14  17
ENDBRANCH  12  14
ENDBRANCH   5  10
BRANCH   6  28
HETATM   28  O7  UNL     1      17.555  28.633 103.229  1.00  0.00    -0.276 OA
BRANCH  28  29
HETATM   29  N6  UNL     1      17.686  28.862 104.562  1.00  0.00    -0.311 N
ATOM     30  H62 UNL     1      18.042  28.164 105.215  1.00  0.00     0.184 HD
ATOM     31  H61 UNL     1      17.389  29.802 104.821  1.00  0.00     0.184 HD
ENDBRANCH  28  29
ENDBRANCH   6  28
BRANCH   2  32
HETATM   32  O1  UNL     1      17.244  24.901 100.513  1.00  0.00    -0.380 OA
ATOM     33  H1  UNL     1      16.532  25.483 100.276  1.00  0.00     0.211 HD
ENDBRANCH   2  32
BRANCH   7  34
HETATM   34  N7  UNL     1      16.626  25.745 103.509  1.00  0.00    -0.069 N
ATOM     35  H73 UNL     1      17.218  24.989 103.854  1.00  0.00     0.275 HD
ATOM     36  H72 UNL     1      16.620  26.344 104.335  1.00  0.00     0.275 HD
ATOM     37  H71 UNL     1      15.688  25.404 103.301  1.00  0.00     0.275 HD
ENDBRANCH   7  34
TORSDOF 10
ENDMDL