MODEL 4
REMARK VINA RESULT: -6.708906104      2.565      6.127
REMARK  6 active torsions:
REMARK  status: ('A' for Active; 'I' for Inactive)
REMARK    1  A    between atoms: N1_2  and  N2_3
REMARK    2  A    between atoms: N2_3  and  C2_4
REMARK    3  A    between atoms: C2_4  and  C3_5
REMARK    4  A    between atoms: C3_5  and  N3_6
REMARK    5  A    between atoms: C10_23  and  O3_24
REMARK    6  A    between atoms: C11_29  and  O5_30
ROOT
HETATM    1  C3  UNL     1      20.119  25.825 100.543  1.00  0.00     0.186 A
HETATM    2  C4  UNL     1      19.283  25.354 101.672  1.00  0.00     0.097 A
HETATM    3  C5  UNL     1      18.036  24.539 101.421  1.00  0.00     0.181 C
HETATM    4  O1  UNL     1      17.440  24.297 102.659  1.00  0.00    -0.356 OA
HETATM    5  C6  UNL     1      16.080  24.370 102.644  1.00  0.00     0.224 C
HETATM    6  C7  UNL     1      15.551  25.774 102.865  1.00  0.00     0.297 C
HETATM    7  N4  UNL     1      16.703  26.618 103.117  1.00  0.00    -0.055 N
ATOM      8  H41 UNL     1      17.557  26.177 102.776  1.00  0.00     0.279 HD
ATOM      9  H42 UNL     1      16.917  26.651 104.114  1.00  0.00     0.279 HD
HETATM   10  C8  UNL     1      16.564  27.943 102.582  1.00  0.00     0.357 C
HETATM   11  N5  UNL     1      17.051  28.094 101.226  1.00  0.00    -0.335 N
ATOM     12  H5  UNL     1      16.648  28.838 100.656  1.00  0.00     0.164 HD
HETATM   13  C9  UNL     1      18.055  27.275 100.635  1.00  0.00     0.256 C
HETATM   14  O2  UNL     1      17.867  26.984  99.412  1.00  0.00    -0.270 OA
HETATM   15  C10 UNL     1      19.245  26.759 101.303  1.00  0.00     0.181 A
HETATM   16  N6  UNL     1      15.535  23.491 103.658  1.00  0.00    -0.073 NA
HETATM   17  N7  UNL     1      14.452  22.842 103.093  1.00  0.00     0.018 NA
HETATM   18  O4  UNL     1      14.204  23.370 101.898  1.00  0.00    -0.233 OA
HETATM   19  C11 UNL     1      15.435  23.842 101.390  1.00  0.00     0.337 C
ENDROOT
BRANCH   1  20
HETATM   20  C2  UNL     1      21.624  25.834 100.799  1.00  0.00     0.173 C
BRANCH  20  21
HETATM   21  N2  UNL     1      22.194  26.847  99.903  1.00  0.00    -0.146 NA
BRANCH  21  22
HETATM   22  N1  UNL     1      22.623  27.923 100.687  1.00  0.00    -0.153 NA
HETATM   23  C1  UNL     1      23.246  27.436 101.920  1.00  0.00     0.154 C
ENDBRANCH  21  22
ENDBRANCH  20  21
ENDBRANCH   1  20
BRANCH   1  24
HETATM   24  N3  UNL     1      19.775  25.375  99.222  1.00  0.00    -0.065 N
ATOM     25  H33 UNL     1      18.788  25.542  99.027  1.00  0.00     0.275 HD
ATOM     26  H32 UNL     1      20.190  25.978  98.512  1.00  0.00     0.275 HD
ATOM     27  H31 UNL     1      20.019  24.397  99.057  1.00  0.00     0.275 HD
ENDBRANCH   1  24
BRANCH  15  28
HETATM   28  O3  UNL     1      19.972  27.621 102.162  1.00  0.00    -0.377 OA
ATOM     29  H3  UNL     1      20.900  27.644 101.965  1.00  0.00     0.211 HD
ENDBRANCH  15  28
BRANCH  19  30
HETATM   30  O5  UNL     1      16.079  22.774 100.833  1.00  0.00    -0.366 OA
ATOM     31  H5  UNL     1      16.412  22.932  99.957  1.00  0.00     0.212 HD
ENDBRANCH  19  30
TORSDOF 6
ENDMDL