MODEL 3
REMARK VINA RESULT: -4.077772423      1.632      2.418
REMARK  1 active torsions:
REMARK  status: ('A' for Active; 'I' for Inactive)
REMARK    1  A    between atoms: N1_1  and  C1_5
ROOT
HETATM    1  C1  UNL     1      12.686   3.111  25.642  1.00  0.00     0.188 C
HETATM    2  C2  UNL     1      12.422   2.617  24.225  1.00  0.00     0.037 C
HETATM    3  C3  UNL     1      13.228   1.324  24.186  1.00  0.00    -0.012 C
HETATM    4  C4  UNL     1      12.646   0.406  25.208  1.00  0.00     0.005 C
HETATM    5  C5  UNL     1      13.109   0.923  26.577  1.00  0.00     0.007 C
HETATM    6  C6  UNL     1      13.781   2.223  26.190  1.00  0.00     0.016 C
HETATM    7  C7  UNL     1      14.493   1.812  24.910  1.00  0.00     0.011 C
ENDROOT
BRANCH   1   8
HETATM    8  N1  UNL     1      13.074   4.475  25.703  1.00  0.00    -0.075 N
ATOM      9  H13 UNL     1      12.371   5.070  25.265  1.00  0.00     0.274 HD
ATOM     10  H12 UNL     1      13.020   4.823  26.660  1.00  0.00     0.274 HD
ATOM     11  H11 UNL     1      13.996   4.654  25.306  1.00  0.00     0.274 HD
ENDBRANCH   1   8
TORSDOF 1
ENDMDL