MODEL 5
REMARK VINA RESULT: -4.067511058      1.821      2.236
REMARK  1 active torsions:
REMARK  status: ('A' for Active; 'I' for Inactive)
REMARK    1  A    between atoms: N1_2  and  C2_5
ROOT
HETATM    1  C2  UNL     1      14.201   2.760  27.301  1.00  0.00     0.189 C
HETATM    2  C3  UNL     1      12.899   2.009  27.460  1.00  0.00     0.038 C
HETATM    3  C4  UNL     1      13.162   0.625  26.913  1.00  0.00    -0.012 C
HETATM    4  C5  UNL     1      13.004   0.706  25.411  1.00  0.00     0.005 C
HETATM    5  C6  UNL     1      14.130   1.683  25.050  1.00  0.00     0.007 C
HETATM    6  C7  UNL     1      14.926   1.908  26.294  1.00  0.00     0.016 C
HETATM    7  C8  UNL     1      14.699   0.553  27.000  1.00  0.00     0.011 C
ENDROOT
BRANCH   1   8
HETATM    8  N1  UNL     1      14.057   4.131  26.957  1.00  0.00    -0.074 N
HETATM    9  C1  UNL     1      12.639   4.452  27.044  1.00  0.00     0.267 C
ATOM     10  H12 UNL     1      14.463   4.360  26.051  1.00  0.00     0.277 HD
ATOM     11  H11 UNL     1      14.641   4.747  27.523  1.00  0.00     0.277 HD
ENDBRANCH   1   8
TORSDOF 1
ENDMDL