MODEL 1
REMARK VINA RESULT: -3.869390308      0.000      0.000
REMARK  1 active torsions:
REMARK  status: ('A' for Active; 'I' for Inactive)
REMARK    1  A    between atoms: C2_2  and  C3_3
ROOT
HETATM    1  C3  UNL     1      11.937   3.099  24.230  1.00  0.00     0.102 C
HETATM    2  N1  UNL     1      11.476   3.959  23.146  1.00  0.00    -0.173 NA
HETATM    3  S1  UNL     1      11.538   5.459  24.017  1.00  0.00    -0.059 SA
HETATM    4  C4  UNL     1      12.679   4.261  24.793  1.00  0.00     0.080 C
HETATM    5  C5  UNL     1      12.600   4.435  26.293  1.00  0.00     0.024 C
ENDROOT
BRANCH   1   6
HETATM    6  C2  UNL     1      12.738   1.980  23.652  1.00  0.00     0.019 C
HETATM    7  C1  UNL     1      12.945   0.827  24.593  1.00  0.00     0.007 C
ENDBRANCH   1   6
TORSDOF 1
ENDMDL