MODEL 5
REMARK VINA RESULT: -4.324920043      1.734      3.891
REMARK  2 active torsions:
REMARK  status: ('A' for Active; 'I' for Inactive)
REMARK    1  A    between atoms: C2_2  and  C4_4
REMARK    2  A    between atoms: C8_8  and  N1_9
ROOT
HETATM    1  C4  UNL     1      13.814   2.347  25.774  1.00  0.00     0.019 C
HETATM    2  C5  UNL     1      13.325   3.704  26.224  1.00  0.00     0.007 C
HETATM    3  C6  UNL     1      12.197   4.099  25.324  1.00  0.00     0.002 C
HETATM    4  C7  UNL     1      12.307   3.248  24.098  1.00  0.00     0.033 C
HETATM    5  C8  UNL     1      13.458   2.285  24.357  1.00  0.00     0.188 C
ENDROOT
BRANCH   5   6
HETATM    6  N1  UNL     1      13.143   1.011  23.814  1.00  0.00    -0.075 N
ATOM      7  H13 UNL     1      13.980   0.428  23.813  1.00  0.00     0.274 HD
ATOM      8  H12 UNL     1      12.555   0.500  24.472  1.00  0.00     0.274 HD
ATOM      9  H11 UNL     1      12.714   0.985  22.889  1.00  0.00     0.274 HD
ENDBRANCH   5   6
BRANCH   1  10
HETATM   10  C2  UNL     1      13.238   1.306  26.677  1.00  0.00    -0.017 C
HETATM   11  C1  UNL     1      14.118   0.101  26.856  1.00  0.00     0.010 C
HETATM   12  C3  UNL     1      12.750   1.845  27.997  1.00  0.00     0.010 C
ENDBRANCH   1  10
TORSDOF 2
ENDMDL