MODEL 2
REMARK VINA RESULT: -4.673504674      1.437      1.702
REMARK  1 active torsions:
REMARK  status: ('A' for Active; 'I' for Inactive)
REMARK    1  A    between atoms: C4_4  and  C5_5
ROOT
HETATM    1  C5  UNL     1      12.317   3.823  24.916  1.00  0.00     0.190 C
HETATM    2  C6  UNL     1      11.649   4.818  24.004  1.00  0.00     0.035 C
HETATM    3  C7  UNL     1      11.202   5.854  25.047  1.00  0.00     0.029 C
HETATM    4  C8  UNL     1      12.394   5.898  25.950  1.00  0.00     0.233 C
HETATM    5  N1  UNL     1      13.200   4.725  25.665  1.00  0.00    -0.070 N
ATOM      6  H11 UNL     1      14.077   4.935  25.188  1.00  0.00     0.277 HD
ATOM      7  H12 UNL     1      13.616   4.300  26.494  1.00  0.00     0.277 HD
ENDROOT
BRANCH   1   8
HETATM    8  C4  UNL     1      13.088   2.769  24.192  1.00  0.00     0.020 A
HETATM    9  C2  UNL     1      13.607   1.652  25.042  1.00  0.00    -0.012 A
HETATM   10  C1  UNL     1      13.134   1.460  26.445  1.00  0.00     0.010 C
HETATM   11  C3  UNL     1      12.553   1.408  23.970  1.00  0.00     0.011 A
ENDBRANCH   1   8
TORSDOF 1
ENDMDL