MODEL 5
REMARK VINA RESULT: -4.540052303      2.446      3.627
REMARK  2 active torsions:
REMARK  status: ('A' for Active; 'I' for Inactive)
REMARK    1  A    between atoms: N1_1  and  C1_5
REMARK    2  A    between atoms: C5_9  and  C6_10
ROOT
HETATM    1  C1  UNL     1      13.514  -0.190  26.597  1.00  0.00     0.188 C
HETATM    2  C2  UNL     1      14.545   0.122  27.649  1.00  0.00     0.033 C
HETATM    3  C3  UNL     1      15.125   1.464  27.346  1.00  0.00     0.002 C
HETATM    4  C4  UNL     1      14.727   1.666  25.879  1.00  0.00     0.007 C
HETATM    5  C5  UNL     1      13.321   1.131  25.897  1.00  0.00     0.020 C
ENDROOT
BRANCH   1   6
HETATM    6  N1  UNL     1      12.265  -0.628  27.111  1.00  0.00    -0.075 N
ATOM      7  H13 UNL     1      12.335  -1.589  27.446  1.00  0.00     0.274 HD
ATOM      8  H12 UNL     1      12.055  -0.152  27.988  1.00  0.00     0.274 HD
ATOM      9  H11 UNL     1      11.485  -0.535  26.459  1.00  0.00     0.274 HD
ENDBRANCH   1   6
BRANCH   5  10
HETATM   10  C6  UNL     1      12.719   0.994  24.527  1.00  0.00    -0.008 A
HETATM   11  C7  UNL     1      13.350   1.539  23.327  1.00  0.00     0.005 A
HETATM   12  C8  UNL     1      12.202   2.295  23.893  1.00  0.00     0.005 A
ENDBRANCH   5  10
TORSDOF 2
ENDMDL