MODEL 3
REMARK VINA RESULT: -4.340162430      1.677      3.840
REMARK  2 active torsions:
REMARK  status: ('A' for Active; 'I' for Inactive)
REMARK    1  A    between atoms: C2_2  and  N1_3
REMARK    2  A    between atoms: C4_8  and  C5_9
ROOT
HETATM    1  C1  UNL     1      12.450   0.632  25.057  1.00  0.00     0.046 C
HETATM    2  C2  UNL     1      13.281   1.879  24.831  1.00  0.00     0.124 A
HETATM    3  C3  UNL     1      13.716   2.715  25.977  1.00  0.00     0.046 A
HETATM    4  C4  UNL     1      12.561   3.185  25.217  1.00  0.00     0.027 A
ENDROOT
BRANCH   2   5
HETATM    5  N1  UNL     1      14.142   1.817  23.723  1.00  0.00    -0.070 N
ATOM      6  H13 UNL     1      14.157   0.873  23.339  1.00  0.00     0.275 HD
ATOM      7  H12 UNL     1      13.739   2.322  22.934  1.00  0.00     0.275 HD
ATOM      8  H11 UNL     1      15.092   2.142  23.902  1.00  0.00     0.275 HD
ENDBRANCH   2   5
BRANCH   4   9
HETATM    9  C5  UNL     1      12.611   4.218  24.140  1.00  0.00    -0.008 C
HETATM   10  C6  UNL     1      11.228   4.586  23.640  1.00  0.00     0.005 C
HETATM   11  C7  UNL     1      11.242   5.663  24.738  1.00  0.00     0.001 C
HETATM   12  C8  UNL     1      12.748   5.652  24.585  1.00  0.00     0.005 C
ENDBRANCH   4   9
TORSDOF 2
ENDMDL