MODEL 4
REMARK VINA RESULT: -3.915309276      1.871      2.875
REMARK  1 active torsions:
REMARK  status: ('A' for Active; 'I' for Inactive)
REMARK    1  A    between atoms: N1_1  and  C1_5
ROOT
HETATM    1  C1  UNL     1      13.287  -0.424  26.691  1.00  0.00     0.184 C
HETATM    2  C2  UNL     1      14.473  -0.095  27.541  1.00  0.00     0.037 C
HETATM    3  C3  UNL     1      14.840   1.362  27.538  1.00  0.00    -0.012 C
HETATM    4  C4  UNL     1      13.694   2.245  27.979  1.00  0.00     0.005 C
HETATM    5  C5  UNL     1      12.938   2.642  26.741  1.00  0.00     0.005 C
HETATM    6  C6  UNL     1      13.548   1.854  25.658  1.00  0.00    -0.012 C
HETATM    7  C7  UNL     1      13.099   0.449  25.506  1.00  0.00     0.037 C
HETATM    8  C8  UNL     1      15.019   1.822  26.098  1.00  0.00     0.009 C
ENDROOT
BRANCH   1   9
HETATM    9  N1  UNL     1      12.065  -0.548  27.504  1.00  0.00    -0.075 N
ATOM     10  H13 UNL     1      12.162  -1.271  28.218  1.00  0.00     0.274 HD
ATOM     11  H12 UNL     1      11.938   0.259  28.115  1.00  0.00     0.274 HD
ATOM     12  H11 UNL     1      11.246  -0.707  26.918  1.00  0.00     0.274 HD
ENDBRANCH   1   9
TORSDOF 1
ENDMDL