MODEL 3
REMARK VINA RESULT: -4.315185797      1.691      2.443
REMARK  2 active torsions:
REMARK  status: ('A' for Active; 'I' for Inactive)
REMARK    1  A    between atoms: N1_1  and  C1_5
REMARK    2  A    between atoms: C1_5  and  C2_6
ROOT
HETATM    1  C2  UNL     1      13.098   3.102  24.927  1.00  0.00     0.015 C
HETATM    2  C3  UNL     1      12.778   2.894  26.389  1.00  0.00     0.011 C
HETATM    3  C4  UNL     1      13.669   1.757  26.824  1.00  0.00    -0.014 C
HETATM    4  C5  UNL     1      13.000   0.472  26.410  1.00  0.00     0.005 C
HETATM    5  C6  UNL     1      12.920   0.659  24.906  1.00  0.00     0.005 C
HETATM    6  C7  UNL     1      13.799   1.838  24.567  1.00  0.00    -0.009 C
HETATM    7  C8  UNL     1      14.775   1.798  25.759  1.00  0.00     0.010 C
ENDROOT
BRANCH   1   8
HETATM    8  C1  UNL     1      11.923   3.451  24.099  1.00  0.00     0.234 C
BRANCH   8   9
HETATM    9  N1  UNL     1      11.756   4.911  24.192  1.00  0.00    -0.079 N
ATOM     10  H13 UNL     1      12.105   5.300  25.067  1.00  0.00     0.274 HD
ATOM     11  H12 UNL     1      12.373   5.427  23.566  1.00  0.00     0.274 HD
ATOM     12  H11 UNL     1      10.767   5.105  24.032  1.00  0.00     0.274 HD
ENDBRANCH   8   9
ENDBRANCH   1   8
TORSDOF 2
ENDMDL