MODEL 5
REMARK VINA RESULT: -4.389183181      1.141      1.905
REMARK  1 active torsions:
REMARK  status: ('A' for Active; 'I' for Inactive)
REMARK    1  A    between atoms: C2_2  and  C3_3
ROOT
HETATM    1  C3  UNL     1      12.553   4.474  25.014  1.00  0.00     0.186 C
HETATM    2  C4  UNL     1      11.652   4.289  23.841  1.00  0.00     0.035 C
HETATM    3  C5  UNL     1      11.823   2.832  23.453  1.00  0.00     0.034 C
HETATM    4  C6  UNL     1      12.969   2.395  24.320  1.00  0.00     0.182 C
HETATM    5  C7  UNL     1      13.029   0.910  24.531  1.00  0.00     0.040 C
HETATM    6  N1  UNL     1      12.721   3.126  25.550  1.00  0.00    -0.067 N
ATOM      7  H11 UNL     1      11.956   2.779  26.127  1.00  0.00     0.278 HD
ATOM      8  H12 UNL     1      13.427   3.022  26.280  1.00  0.00     0.278 HD
ENDROOT
BRANCH   1   9
HETATM    9  C2  UNL     1      12.024   5.431  26.047  1.00  0.00     0.028 C
HETATM   10  C1  UNL     1      11.175   6.458  25.319  1.00  0.00     0.007 C
ENDBRANCH   1   9
TORSDOF 1
ENDMDL