MODEL 3
REMARK VINA RESULT: -4.078096190      1.966      2.216
REMARK  3 active torsions:
REMARK  status: ('A' for Active; 'I' for Inactive)
REMARK    1  A    between atoms: C2_2  and  C4_4
REMARK    2  A    between atoms: C4_4  and  N1_5
REMARK    3  A    between atoms: C7_14  and  C8_15
ROOT
HETATM    1  C4  UNL     1      14.899   3.246  -4.595  1.00  0.00     0.157 C
HETATM    2  C5  UNL     1      15.493   4.443  -3.920  1.00  0.00     0.068 C
HETATM    3  C6  UNL     1      16.089   5.192  -5.117  1.00  0.00     0.235 C
HETATM    4  N2  UNL     1      15.895   4.355  -6.273  1.00  0.00    -0.067 N
ATOM      5  H21 UNL     1      16.598   4.473  -7.003  1.00  0.00     0.277 HD
ATOM      6  H22 UNL     1      15.096   4.613  -6.853  1.00  0.00     0.277 HD
HETATM    7  C7  UNL     1      15.824   2.988  -5.703  1.00  0.00     0.235 C
ENDROOT
BRANCH   1   8
HETATM    8  C2  UNL     1      14.504   2.130  -3.719  1.00  0.00     0.015 C
HETATM    9  C1  UNL     1      15.114   2.071  -2.369  1.00  0.00     0.012 C
HETATM   10  C3  UNL     1      13.013   2.039  -3.581  1.00  0.00     0.012 C
ENDBRANCH   1   8
BRANCH   1  11
HETATM   11  N1  UNL     1      13.648   3.742  -5.218  1.00  0.00    -0.068 N
ATOM     12  H13 UNL     1      13.804   4.273  -6.075  1.00  0.00     0.275 HD
ATOM     13  H12 UNL     1      13.080   3.003  -5.632  1.00  0.00     0.275 HD
ATOM     14  H11 UNL     1      13.163   4.272  -4.494  1.00  0.00     0.275 HD
ENDBRANCH   1  11
BRANCH   7  15
HETATM   15  C8  UNL     1      17.233   2.668  -5.402  1.00  0.00     0.150 C
HETATM   16 CL1  UNL     1      17.819   1.644  -6.771  1.00  0.00    -0.128 Cl
ENDBRANCH   7  15
TORSDOF 3
ENDMDL