MODEL 2
REMARK VINA RESULT: -3.931944875      2.556      3.506
REMARK  2 active torsions:
REMARK  status: ('A' for Active; 'I' for Inactive)
REMARK    1  A    between atoms: C2_2  and  C3_3
REMARK    2  A    between atoms: C3_3  and  N1_4
ROOT
HETATM    1  C3  UNL     1      14.673   3.267  -4.077  1.00  0.00     0.209 C
HETATM    2  N2  UNL     1      13.267   3.464  -4.113  1.00  0.00    -0.381 N
ATOM      3  H2  UNL     1      12.784   4.071  -3.449  1.00  0.00     0.156 HD
HETATM    4  C4  UNL     1      12.571   2.753  -5.144  1.00  0.00     0.191 C
HETATM    5  S1  UNL     1      13.026   3.559  -6.732  1.00  0.00    -0.148 SA
HETATM    6  C5  UNL     1      14.778   4.041  -6.450  1.00  0.00     0.100 C
HETATM    7  C6  UNL     1      15.283   2.997  -5.447  1.00  0.00     0.147 C
HETATM    8 CL1  UNL     1      17.047   3.047  -5.344  1.00  0.00    -0.120 Cl
ENDROOT
BRANCH   1   9
HETATM    9  C2  UNL     1      15.046   2.093  -3.204  1.00  0.00     0.058 C
HETATM   10  C1  UNL     1      13.909   1.547  -2.412  1.00  0.00     0.009 C
ENDBRANCH   1   9
BRANCH   1  11
HETATM   11  N1  UNL     1      15.288   4.504  -3.607  1.00  0.00    -0.051 N
ATOM     12  H13 UNL     1      15.017   5.298  -4.187  1.00  0.00     0.277 HD
ATOM     13  H12 UNL     1      14.884   4.808  -2.721  1.00  0.00     0.277 HD
ATOM     14  H11 UNL     1      16.303   4.417  -3.544  1.00  0.00     0.277 HD
ENDBRANCH   1  11
TORSDOF 2
ENDMDL