MODEL 5
REMARK VINA RESULT: -4.836045653      2.940      4.682
REMARK  3 active torsions:
REMARK  status: ('A' for Active; 'I' for Inactive)
REMARK    1  A    between atoms: C2_2  and  C3_3
REMARK    2  A    between atoms: C3_3  and  N1_4
REMARK    3  A    between atoms: C3_3  and  C4_8
ROOT
HETATM    1  C4  UNL     1      10.497   2.578  -4.967  1.00  0.00     0.216 C
HETATM    2  C5  UNL     1      11.403   3.571  -5.711  1.00  0.00     0.036 C
HETATM    3  C6  UNL     1      10.484   4.226  -6.710  1.00  0.00     0.024 C
HETATM    4  C7  UNL     1       9.829   3.217  -7.586  1.00  0.00     0.108 C
HETATM    5 CL1  UNL     1      10.929   2.894  -8.960  1.00  0.00    -0.123 Cl
HETATM    6  C8  UNL     1       9.420   1.953  -6.938  1.00  0.00     0.253 C
HETATM    7  N2  UNL     1      10.259   1.507  -5.861  1.00  0.00    -0.068 N
ATOM      8  H21 UNL     1       9.874   0.690  -5.387  1.00  0.00     0.277 HD
ATOM      9  H22 UNL     1      11.126   1.088  -6.197  1.00  0.00     0.277 HD
ENDROOT
BRANCH   1  10
HETATM   10  C3  UNL     1      11.200   2.220  -3.698  1.00  0.00     0.213 C
BRANCH  10  11
HETATM   11  C2  UNL     1      12.684   2.048  -3.883  1.00  0.00     0.030 C
HETATM   12  C1  UNL     1      13.329   1.422  -2.670  1.00  0.00     0.007 C
ENDBRANCH  10  11
BRANCH  10  13
HETATM   13  N1  UNL     1      10.889   3.113  -2.599  1.00  0.00    -0.073 N
ATOM     14  H13 UNL     1      11.728   3.578  -2.251  1.00  0.00     0.274 HD
ATOM     15  H12 UNL     1      10.374   3.933  -2.921  1.00  0.00     0.274 HD
ATOM     16  H11 UNL     1      10.392   2.636  -1.847  1.00  0.00     0.274 HD
ENDBRANCH  10  13
ENDBRANCH   1  10
TORSDOF 3
ENDMDL