MODEL 1
REMARK VINA RESULT: -4.688733021      0.000      0.000
REMARK  4 active torsions:
REMARK  status: ('A' for Active; 'I' for Inactive)
REMARK    1  A    between atoms: C2_2  and  C3_3
REMARK    2  A    between atoms: C3_3  and  N1_6
REMARK    3  A    between atoms: N1_6  and  N2_8
REMARK    4  A    between atoms: N2_8  and  C5_9
ROOT
HETATM    1  N1  UNL     1      13.480   3.295  -4.138  1.00  0.00    -0.315 N
ATOM      2  H1  UNL     1      13.009   3.633  -3.299  1.00  0.00     0.178 HD
ENDROOT
BRANCH   1   3
HETATM    3  C3  UNL     1      14.913   3.256  -4.254  1.00  0.00     0.115 C
HETATM    4  C4  UNL     1      15.472   4.614  -3.902  1.00  0.00     0.057 C
HETATM    5 CL1  UNL     1      15.460   2.769  -5.872  1.00  0.00    -0.095 Cl
BRANCH   3   6
HETATM    6  C2  UNL     1      15.395   2.196  -3.272  1.00  0.00     0.044 C
HETATM    7  C1  UNL     1      14.277   1.639  -2.441  1.00  0.00     0.009 C
ENDBRANCH   3   6
ENDBRANCH   1   3
BRANCH   1   8
HETATM    8  N2  UNL     1      12.795   2.848  -5.233  1.00  0.00    -0.135 NA
BRANCH   8   9
HETATM    9  C5  UNL     1      11.367   2.934  -4.970  1.00  0.00     0.039 C
HETATM   10  C6  UNL     1      10.656   1.656  -5.365  1.00  0.00     0.035 C
HETATM   11  C7  UNL     1      10.757   4.051  -5.778  1.00  0.00     0.035 C
HETATM   12  C8  UNL     1      11.161   3.121  -3.488  1.00  0.00     0.035 C
ENDBRANCH   8   9
ENDBRANCH   1   8
TORSDOF 4
ENDMDL