MODEL 3
REMARK VINA RESULT: -5.521229517      1.487      1.933
REMARK  2 active torsions:
REMARK  status: ('A' for Active; 'I' for Inactive)
REMARK    1  A    between atoms: C4_4  and  N1_5
REMARK    2  A    between atoms: N1_5  and  C5_7
ROOT
HETATM    1  C5  UNL     1      11.707   3.393  -6.153  1.00  0.00     0.094 C
HETATM    2  C6  UNL     1      10.199   3.268  -6.311  1.00  0.00     0.028 C
HETATM    3  C7  UNL     1       9.714   3.807  -7.617  1.00  0.00     0.021 C
HETATM    4  C8  UNL     1      10.167   5.214  -7.852  1.00  0.00     0.114 C
HETATM    5  N2  UNL     1      11.343   5.608  -7.176  1.00  0.00    -0.419 N
ATOM      6  H2  UNL     1      11.518   6.585  -6.942  1.00  0.00     0.153 HD
HETATM    7  C9  UNL     1      12.277   4.583  -6.831  1.00  0.00     0.138 C
ENDROOT
BRANCH   1   8
HETATM    8  N1  UNL     1      11.992   3.196  -4.798  1.00  0.00    -0.411 N
ATOM      9  H1  UNL     1      11.395   3.638  -4.099  1.00  0.00     0.154 HD
BRANCH   8  10
HETATM   10  C4  UNL     1      13.071   2.411  -4.368  1.00  0.00     0.077 C
HETATM   11  C3  UNL     1      14.204   3.118  -3.696  1.00  0.00     0.024 C
HETATM   12  C2  UNL     1      14.825   1.971  -2.897  1.00  0.00     0.002 C
HETATM   13  C1  UNL     1      13.612   1.383  -2.236  1.00  0.00     0.002 C
HETATM   14  C10 UNL     1      12.528   1.531  -3.248  1.00  0.00     0.024 C
ENDBRANCH   8  10
ENDBRANCH   1   8
TORSDOF 2
ENDMDL