MODEL 1
REMARK VINA RESULT: -5.137367513      0.000      0.000
REMARK  3 active torsions:
REMARK  status: ('A' for Active; 'I' for Inactive)
REMARK    1  A    between atoms: N1_1  and  C1_5
REMARK    2  A    between atoms: C1_5  and  C2_6
REMARK    3  A    between atoms: C2_6  and  N2_7
ROOT
HETATM    1  N2  UNL     1      15.182   3.179  -4.481  1.00  0.00     0.108 N
HETATM    2  C3  UNL     1      15.606   2.182  -3.521  1.00  0.00     0.274 C
HETATM    3  C4  UNL     1      14.737   2.104  -2.306  1.00  0.00     0.030 C
HETATM    4  C5  UNL     1      13.577   1.171  -2.494  1.00  0.00     0.002 C
HETATM    5  C6  UNL     1      12.436   1.761  -3.272  1.00  0.00     0.003 C
HETATM    6  C7  UNL     1      12.784   3.094  -3.912  1.00  0.00     0.052 C
HETATM    7  C8  UNL     1      13.869   2.893  -4.932  1.00  0.00     0.318 C
HETATM    8 CL1  UNL     1      13.429   3.723  -6.449  1.00  0.00    -0.092 Cl
ENDROOT
BRANCH   1   9
HETATM    9  C2  UNL     1      15.432   4.458  -3.923  1.00  0.00     0.301 C
BRANCH   9  10
HETATM   10  C1  UNL     1      16.327   5.362  -4.720  1.00  0.00     0.259 C
BRANCH  10  11
HETATM   11  N1  UNL     1      15.678   6.543  -5.217  1.00  0.00    -0.078 N
ATOM     12  H13 UNL     1      15.946   6.717  -6.186  1.00  0.00     0.274 HD
ATOM     13  H12 UNL     1      14.679   6.376  -5.341  1.00  0.00     0.274 HD
ATOM     14  H11 UNL     1      15.833   7.375  -4.649  1.00  0.00     0.274 HD
ENDBRANCH  10  11
ENDBRANCH   9  10
ENDBRANCH   1   9
TORSDOF 3
ENDMDL