MODEL 4
REMARK VINA RESULT: -4.788399922      2.331      4.227
REMARK  2 active torsions:
REMARK  status: ('A' for Active; 'I' for Inactive)
REMARK    1  A    between atoms: C2_2  and  C3_3
REMARK    2  A    between atoms: C7_10  and  C8_11
ROOT
HETATM    1  C3  UNL     1      13.957   2.906  -4.021  1.00  0.00     0.190 C
HETATM    2  C4  UNL     1      14.905   3.085  -5.182  1.00  0.00     0.065 C
HETATM    3  C5  UNL     1      14.290   4.139  -6.085  1.00  0.00     0.186 C
HETATM    4  C6  UNL     1      15.148   4.341  -7.316  1.00  0.00     0.040 C
HETATM    5  N1  UNL     1      12.950   3.789  -6.491  1.00  0.00    -0.041 N
ATOM      6  H11 UNL     1      12.938   3.004  -7.143  1.00  0.00     0.280 HD
ATOM      7  H12 UNL     1      12.537   4.494  -7.101  1.00  0.00     0.280 HD
HETATM    8  C7  UNL     1      12.151   3.541  -5.337  1.00  0.00     0.397 C
HETATM    9  N2  UNL     1      12.696   2.445  -4.561  1.00  0.00    -0.041 N
ATOM     10  H21 UNL     1      12.056   2.099  -3.847  1.00  0.00     0.280 HD
ATOM     11  H22 UNL     1      12.779   1.578  -5.091  1.00  0.00     0.280 HD
ENDROOT
BRANCH   1  12
HETATM   12  C2  UNL     1      14.513   1.971  -2.974  1.00  0.00     0.028 C
HETATM   13  C1  UNL     1      13.316   1.240  -2.367  1.00  0.00     0.007 C
ENDBRANCH   1  12
BRANCH   8  14
HETATM   14  C8  UNL     1      10.690   3.340  -5.647  1.00  0.00     0.177 C
HETATM   15 CL1  UNL     1      10.130   1.729  -5.252  1.00  0.00    -0.127 Cl
ENDBRANCH   8  14
TORSDOF 2
ENDMDL