MODEL 1
REMARK VINA RESULT: -5.779076146      0.000      0.000
REMARK  2 active torsions:
REMARK  status: ('A' for Active; 'I' for Inactive)
REMARK    1  A    between atoms: C4_4  and  N1_5
REMARK    2  A    between atoms: N1_5  and  C5_7
ROOT
HETATM    1  C5  UNL     1      10.616   3.164  -5.005  1.00  0.00     0.083 C
HETATM    2  C6  UNL     1      10.274   1.746  -5.343  1.00  0.00     0.069 C
HETATM    3  C7  UNL     1       9.603   1.550  -6.649  1.00  0.00     0.057 C
HETATM    4  N2  UNL     1       9.833   2.511  -7.650  1.00  0.00    -0.402 N
ATOM      5  H2  UNL     1       9.808   2.252  -8.637  1.00  0.00     0.158 HD
HETATM    6  C8  UNL     1      10.100   3.844  -7.259  1.00  0.00     0.120 C
HETATM    7  C9  UNL     1      11.222   3.819  -6.227  1.00  0.00     0.044 C
ENDROOT
BRANCH   1   8
HETATM    8  N1  UNL     1      11.475   3.169  -3.864  1.00  0.00    -0.413 N
ATOM      9  H1  UNL     1      11.229   3.653  -3.001  1.00  0.00     0.154 HD
BRANCH   8  10
HETATM   10  C4  UNL     1      12.701   2.453  -4.010  1.00  0.00     0.077 C
HETATM   11  C3  UNL     1      13.925   3.308  -3.914  1.00  0.00     0.024 C
HETATM   12  C2  UNL     1      14.984   2.256  -3.548  1.00  0.00     0.002 C
HETATM   13  C1  UNL     1      14.268   1.607  -2.356  1.00  0.00     0.002 C
HETATM   14  C10 UNL     1      12.860   1.490  -2.867  1.00  0.00     0.024 C
ENDBRANCH   8  10
ENDBRANCH   1   8
TORSDOF 2
ENDMDL