MODEL 4
REMARK VINA RESULT: -4.576116778      2.198      2.806
REMARK  4 active torsions:
REMARK  status: ('A' for Active; 'I' for Inactive)
REMARK    1  A    between atoms: C2_2  and  N1_3
REMARK    2  A    between atoms: C4_8  and  N2_9
REMARK    3  A    between atoms: C5_13  and  C6_14
REMARK    4  A    between atoms: C6_14  and  C7_15
ROOT
HETATM    1  C1  UNL     1      10.586   4.331  -6.134  1.00  0.00     0.046 C
HETATM    2  C2  UNL     1      11.322   3.049  -5.836  1.00  0.00     0.122 C
HETATM    3  C3  UNL     1      12.412   2.775  -6.847  1.00  0.00     0.071 C
HETATM    4  C4  UNL     1      13.698   3.132  -6.134  1.00  0.00     0.190 C
HETATM    5  C5  UNL     1      13.385   2.703  -4.720  1.00  0.00     0.019 C
HETATM    6  C8  UNL     1      12.000   3.157  -4.486  1.00  0.00     0.045 C
ENDROOT
BRANCH   2   7
HETATM    7  N1  UNL     1      10.399   1.936  -5.779  1.00  0.00    -0.071 N
ATOM      8  H13 UNL     1       9.900   1.811  -6.660  1.00  0.00     0.275 HD
ATOM      9  H12 UNL     1      10.886   1.040  -5.753  1.00  0.00     0.275 HD
ATOM     10  H11 UNL     1       9.758   2.042  -4.993  1.00  0.00     0.275 HD
ENDBRANCH   2   7
BRANCH   4  11
HETATM   11  N2  UNL     1      14.031   4.517  -6.247  1.00  0.00    -0.075 N
ATOM     12  H23 UNL     1      15.027   4.667  -6.086  1.00  0.00     0.274 HD
ATOM     13  H22 UNL     1      13.969   4.830  -7.216  1.00  0.00     0.274 HD
ATOM     14  H21 UNL     1      13.470   5.111  -5.636  1.00  0.00     0.274 HD
ENDBRANCH   4  11
BRANCH   5  15
HETATM   15  C6  UNL     1      14.385   3.170  -3.742  1.00  0.00     0.022 C
BRANCH  15  16
HETATM   16  C7  UNL     1      14.849   2.078  -2.833  1.00  0.00     0.115 C
HETATM   17 CL1  UNL     1      13.592   1.108  -2.086  1.00  0.00    -0.130 Cl
ENDBRANCH  15  16
ENDBRANCH   5  15
TORSDOF 4
ENDMDL