MODEL 2
REMARK VINA RESULT: -3.917952801      4.070      4.682
REMARK  3 active torsions:
REMARK  status: ('A' for Active; 'I' for Inactive)
REMARK    1  A    between atoms: N1_1  and  C1_5
REMARK    2  A    between atoms: C1_5  and  C2_6
REMARK    3  A    between atoms: C2_6  and  C3_7
ROOT
HETATM    1  C3  UNL     1      11.543   3.524  -6.387  1.00  0.00     0.037 C
HETATM    2  S1  UNL     1      12.792   3.686  -7.685  1.00  0.00    -0.085 SA
HETATM    3  C4  UNL     1      12.166   3.070  -5.101  1.00  0.00     0.023 C
HETATM    4  C5  UNL     1      10.961   2.605  -4.300  1.00  0.00     0.003 C
HETATM    5  C6  UNL     1      10.237   1.763  -5.352  1.00  0.00     0.022 C
HETATM    6  C7  UNL     1      10.693   2.289  -6.705  1.00  0.00     0.101 C
HETATM    7 CL1  UNL     1       9.261   2.695  -7.639  1.00  0.00    -0.123 Cl
ENDROOT
BRANCH   1   8
HETATM    8  C2  UNL     1      10.692   4.734  -6.334  1.00  0.00     0.050 C
BRANCH   8   9
HETATM    9  C1  UNL     1      10.983   5.849  -7.250  1.00  0.00     0.231 C
BRANCH   9  10
HETATM   10  N1  UNL     1      10.326   7.055  -6.867  1.00  0.00    -0.079 N
ATOM     11  H13 UNL     1       9.316   6.974  -6.981  1.00  0.00     0.274 HD
ATOM     12  H12 UNL     1      10.366   7.189  -5.856  1.00  0.00     0.274 HD
ATOM     13  H11 UNL     1      10.688   7.870  -7.361  1.00  0.00     0.274 HD
ENDBRANCH   9  10
ENDBRANCH   8   9
ENDBRANCH   1   8
TORSDOF 3
ENDMDL