MODEL 4
REMARK VINA RESULT: -9.139300345      7.652     12.825
REMARK  8 active torsions:
REMARK  status: ('A' for Active; 'I' for Inactive)
REMARK    1  A    between atoms: C3_4  and  C4_5
REMARK    2  A    between atoms: C6_7  and  N2_8
REMARK    3  A    between atoms: N2_8  and  N3_10
REMARK    4  A    between atoms: C7_12  and  C9_15
REMARK    5  A    between atoms: C10_18  and  N6_19
REMARK       I    between atoms: N7_21  and  C11_23
REMARK    6  A    between atoms: C11_23  and  C12_25
REMARK    7  A    between atoms: C12_25  and  O3_26
REMARK    8  A    between atoms: C14_34  and  O4_35
ROOT
HETATM    1  C1  UNL     1      17.967  35.952  30.873  1.00  0.00     0.124 C
HETATM    2  C2  UNL     1      17.319  36.517  29.995  1.00  0.00    -0.063 C
HETATM    3  N1  UNL     1      16.615  37.189  28.995  1.00  0.00    -0.226 N
HETATM    4  C3  UNL     1      15.326  37.545  28.959  1.00  0.00     0.129 A
HETATM    5  C14 UNL     1      15.167  38.236  27.768  1.00  0.00     0.177 A
HETATM    6  N10 UNL     1      16.354  38.292  27.094  1.00  0.00    -0.281 N
HETATM    7  C15 UNL     1      16.543  38.936  25.812  1.00  0.00     0.163 C
HETATM    8  C16 UNL     1      17.239  37.646  27.855  1.00  0.00     0.342 A
HETATM    9  O5  UNL     1      18.450  37.480  27.576  1.00  0.00    -0.245 OA
ENDROOT
BRANCH   4  10
HETATM   10  C4  UNL     1      14.306  37.333  29.975  1.00  0.00     0.068 A
HETATM   11  C5  UNL     1      14.404  36.442  31.013  1.00  0.00     0.065 A
HETATM   12  C6  UNL     1      13.389  36.196  31.944  1.00  0.00     0.082 A
HETATM   13  C10 UNL     1      12.223  36.872  31.825  1.00  0.00     0.120 A
HETATM   14  C13 UNL     1      12.101  37.770  30.790  1.00  0.00     0.130 A
HETATM   15  N8  UNL     1      11.024  38.455  30.596  1.00  0.00    -0.384 N
HETATM   16  N9  UNL     1      13.114  37.987  29.899  1.00  0.00    -0.339 N
ATOM     17  H82 UNL     1      10.268  38.293  31.262  1.00  0.00     0.157 HD
ATOM     18  H81 UNL     1      10.934  39.121  29.829  1.00  0.00     0.157 HD
ATOM     19  H9  UNL     1      12.973  38.664  29.149  1.00  0.00     0.167 HD
BRANCH  12  20
HETATM   20  N2  UNL     1      13.578  35.235  32.976  1.00  0.00    -0.297 N
ATOM     21  H2  UNL     1      13.938  35.559  33.874  1.00  0.00     0.187 HD
BRANCH  20  22
HETATM   22  N3  UNL     1      13.301  33.877  32.833  1.00  0.00    -0.286 N
HETATM   23  C7  UNL     1      12.993  33.237  33.908  1.00  0.00     0.194 C
HETATM   24  C8  UNL     1      12.944  33.899  35.179  1.00  0.00     0.124 C
HETATM   25  N4  UNL     1      12.926  34.450  36.219  1.00  0.00    -0.190 NA
ATOM     26  H3  UNL     1      13.340  33.414  31.924  1.00  0.00     0.188 HD
BRANCH  23  27
HETATM   27  C9  UNL     1      12.678  31.821  33.818  1.00  0.00     0.293 C
HETATM   28  N5  UNL     1      13.679  30.854  34.192  1.00  0.00    -0.055 NA
HETATM   29  O1  UNL     1      11.583  31.370  33.433  1.00  0.00    -0.269 OA
ENDBRANCH  23  27
ENDBRANCH  20  22
ENDBRANCH  12  20
BRANCH  13  30
HETATM   30  N6  UNL     1      11.139  36.661  32.752  1.00  0.00    -0.292 N
HETATM   31  N7  UNL     1      10.991  37.582  33.631  1.00  0.00    -0.268 N
HETATM   32  C11 UNL     1       9.957  37.486  34.600  1.00  0.00     0.259 C
ATOM     33  H7  UNL     1      11.617  38.388  33.633  1.00  0.00     0.190 HD
HETATM   34  O2  UNL     1      10.259  37.095  35.759  1.00  0.00    -0.269 OA
ATOM     35  H6  UNL     1      10.537  35.839  32.712  1.00  0.00     0.187 HD
BRANCH  32  36
HETATM   36  C12 UNL     1       8.546  37.828  34.299  1.00  0.00     0.268 C
BRANCH  36  37
HETATM   37  O3  UNL     1       7.955  36.790  33.561  1.00  0.00    -0.392 OA
ATOM     38  H3  UNL     1       7.020  36.770  33.729  1.00  0.00     0.210 HD
ENDBRANCH  36  37
ENDBRANCH  32  36
ENDBRANCH  13  30
ENDBRANCH   4  10
BRANCH   5  39
HETATM   39  O4  UNL     1      14.004  38.796  27.290  1.00  0.00    -0.344 OA
ATOM     40  H4  UNL     1      13.894  39.264  26.470  1.00  0.00     0.219 HD
ENDBRANCH   5  39
TORSDOF 8
ENDMDL