MODEL 5
REMARK VINA RESULT: -9.114372159      2.842      5.530
REMARK  10 active torsions:
REMARK  status: ('A' for Active; 'I' for Inactive)
REMARK    1  A    between atoms: C3_5  and  N2_6
REMARK    2  A    between atoms: N2_6  and  N3_8
REMARK    3  A    between atoms: C4_10  and  C5_11
REMARK    4  A    between atoms: C4_10  and  N8_21
REMARK    5  A    between atoms: C5_11  and  S1_12
REMARK    6  A    between atoms: S1_12  and  C6_13
REMARK    7  A    between atoms: N8_21  and  N9_23
REMARK    8  A    between atoms: C7_25  and  C8_26
REMARK    9  A    between atoms: C9_27  and  O1_28
REMARK   10  A    between atoms: C12_38  and  O3_39
ROOT
HETATM    1  N3  UNL     1       6.910  37.177  38.263  1.00  0.00    -0.273 N
ATOM      2  H3  UNL     1       6.301  37.530  39.001  1.00  0.00     0.189 HD
HETATM    3  C4  UNL     1       7.491  37.989  37.504  1.00  0.00     0.120 C
ENDROOT
BRANCH   3   4
HETATM    4  C5  UNL     1       8.380  37.563  36.419  1.00  0.00     0.161 C
BRANCH   4   5
HETATM    5  S1  UNL     1      10.101  38.073  36.730  1.00  0.00    -0.084 SA
BRANCH   5   6
HETATM    6  C6  UNL     1      10.892  36.726  37.616  1.00  0.00     0.173 A
HETATM    7  N4  UNL     1      11.850  35.969  37.108  1.00  0.00    -0.266 N
HETATM    8  N5  UNL     1      12.206  35.080  38.013  1.00  0.00    -0.224 N
ATOM      9  H4  UNL     1      12.248  36.060  36.174  1.00  0.00     0.190 HD
HETATM   10  N6  UNL     1      11.458  35.290  39.089  1.00  0.00    -0.005 NA
ATOM     11  H5  UNL     1      12.923  34.362  37.905  1.00  0.00     0.205 HD
HETATM   12  N7  UNL     1      10.623  36.311  38.879  1.00  0.00    -0.261 N
ATOM     13  H7  UNL     1       9.934  36.694  39.527  1.00  0.00     0.186 HD
ENDBRANCH   5   6
ENDBRANCH   4   5
ENDBRANCH   3   4
BRANCH   3  14
HETATM   14  N8  UNL     1       7.302  39.406  37.701  1.00  0.00    -0.288 N
ATOM     15  H8  UNL     1       7.905  40.042  37.180  1.00  0.00     0.188 HD
BRANCH  14  16
HETATM   16  N9  UNL     1       6.391  39.944  38.518  1.00  0.00    -0.308 N
HETATM   17  C7  UNL     1       6.064  39.944  39.693  1.00  0.00     0.141 C
ATOM     18  H9  UNL     1       5.768  40.551  37.986  1.00  0.00     0.186 HD
BRANCH  17  19
HETATM   19  C8  UNL     1       6.624  39.255  40.841  1.00  0.00     0.106 A
HETATM   20  C9  UNL     1       7.879  38.780  41.058  1.00  0.00     0.173 A
HETATM   21  N10 UNL     1       7.933  38.200  42.286  1.00  0.00    -0.287 N
HETATM   22  C10 UNL     1       6.720  38.320  42.816  1.00  0.00     0.328 A
ATOM     23  H10 UNL     1       8.746  37.758  42.716  1.00  0.00     0.172 HD
HETATM   24  O2  UNL     1       6.445  37.869  43.981  1.00  0.00    -0.246 OA
HETATM   25  N11 UNL     1       5.905  38.955  41.963  1.00  0.00    -0.299 N
HETATM   26  C11 UNL     1       4.511  39.259  42.195  1.00  0.00     0.161 C
BRANCH  20  27
HETATM   27  O1  UNL     1       8.985  38.822  40.245  1.00  0.00    -0.344 OA
ATOM     28  H1  UNL     1       9.848  39.185  40.413  1.00  0.00     0.219 HD
ENDBRANCH  20  27
ENDBRANCH  17  19
ENDBRANCH  14  16
ENDBRANCH   3  14
BRANCH   1  29
HETATM   29  N2  UNL     1       7.078  35.809  38.120  1.00  0.00    -0.130 N
ATOM     30  H2  UNL     1       7.355  35.413  37.222  1.00  0.00     0.205 HD
BRANCH  29  31
HETATM   31  C3  UNL     1       6.878  35.043  39.146  1.00  0.00     0.699 A
HETATM   32  N1  UNL     1       6.422  33.775  38.936  1.00  0.00    -0.194 N
HETATM   33  C2  UNL     1       6.201  32.941  39.956  1.00  0.00     0.033 A
ATOM     34  H1  UNL     1       6.248  33.457  37.983  1.00  0.00     0.184 HD
HETATM   35  C1  UNL     1       5.708  31.579  39.642  1.00  0.00     0.069 C
HETATM   36  C13 UNL     1       6.425  33.334  41.276  1.00  0.00     0.012 A
HETATM   37  C12 UNL     1       6.879  34.605  41.479  1.00  0.00     0.163 A
HETATM   38  C14 UNL     1       6.154  32.350  42.342  1.00  0.00     0.055 C
HETATM   39  N12 UNL     1       7.091  35.412  40.418  1.00  0.00    -0.169 N
ATOM     40  H12 UNL     1       7.432  36.357  40.593  1.00  0.00     0.186 HD
BRANCH  37  41
HETATM   41  O3  UNL     1       7.116  35.041  42.780  1.00  0.00    -0.345 OA
ATOM     42  H3  UNL     1       7.544  34.483  43.418  1.00  0.00     0.219 HD
ENDBRANCH  37  41
ENDBRANCH  29  31
ENDBRANCH   1  29
TORSDOF 10
ENDMDL