MODEL 2
REMARK VINA RESULT: -9.482708032      3.283      7.138
REMARK  8 active torsions:
REMARK  status: ('A' for Active; 'I' for Inactive)
REMARK    1  A    between atoms: C2_3  and  C3_4
REMARK    2  A    between atoms: C2_3  and  C7_21
REMARK    3  A    between atoms: C4_9  and  C5_10
REMARK    4  A    between atoms: C6_16  and  N6_17
REMARK    5  A    between atoms: C7_21  and  N7_22
REMARK    6  A    between atoms: C7_21  and  C14_36
REMARK       I    between atoms: N7_22  and  C8_24
REMARK       I    between atoms: C8_24  and  N8_26
REMARK    7  A    between atoms: N8_26  and  N9_28
REMARK    8  A    between atoms: N9_28  and  C9_29
ROOT
HETATM    1  N1  UNL     1       6.286  38.610  37.836  1.00  0.00    -0.196 NA
HETATM    2  C1  UNL     1       7.023  37.755  38.004  1.00  0.00     0.075 C
HETATM    3  C2  UNL     1       7.969  36.678  38.200  1.00  0.00     0.202 C
ENDROOT
BRANCH   3   4
HETATM    4  C3  UNL     1       7.356  35.424  38.702  1.00  0.00     0.161 A
HETATM    5  N2  UNL     1       6.878  34.399  37.939  1.00  0.00    -0.280 N
HETATM    6  N3  UNL     1       6.417  33.472  38.751  1.00  0.00    -0.276 N
ATOM      7  H2  UNL     1       6.878  34.358  36.920  1.00  0.00     0.189 HD
HETATM    8  C4  UNL     1       6.580  33.860  40.018  1.00  0.00     0.197 A
ATOM      9  H3  UNL     1       5.998  32.590  38.456  1.00  0.00     0.189 HD
HETATM   10  O2  UNL     1       7.154  35.050  39.937  1.00  0.00    -0.274 OA
BRANCH   8  11
HETATM   11  C5  UNL     1       6.218  33.151  41.239  1.00  0.00     0.154 A
HETATM   12  N4  UNL     1       5.674  31.907  41.277  1.00  0.00    -0.234 N
HETATM   13  O1  UNL     1       5.468  31.565  42.514  1.00  0.00    -0.155 OA
ATOM     14  H4  UNL     1       5.460  31.331  40.463  1.00  0.00     0.197 HD
HETATM   15  N5  UNL     1       5.843  32.508  43.319  1.00  0.00    -0.224 N
HETATM   16  C6  UNL     1       6.329  33.540  42.542  1.00  0.00     0.154 A
ATOM     17  H5  UNL     1       5.791  32.491  44.337  1.00  0.00     0.198 HD
BRANCH  16  18
HETATM   18  N6  UNL     1       6.791  34.647  42.984  1.00  0.00    -0.382 N
ATOM     19  H62 UNL     1       6.546  35.077  43.877  1.00  0.00     0.157 HD
ATOM     20  H61 UNL     1       7.462  35.265  42.528  1.00  0.00     0.157 HD
ENDBRANCH  16  18
ENDBRANCH   8  11
ENDBRANCH   3   4
BRANCH   3  21
HETATM   21  C7  UNL     1       9.131  37.093  39.083  1.00  0.00     0.212 C
BRANCH  21  22
HETATM   22  N7  UNL     1       8.800  36.863  40.485  1.00  0.00    -0.326 N
HETATM   23  C8  UNL     1       8.448  37.912  41.363  1.00  0.00     0.332 C
HETATM   24  O3  UNL     1       8.430  39.086  40.879  1.00  0.00    -0.246 OA
HETATM   25  N8  UNL     1       8.121  37.706  42.722  1.00  0.00    -0.255 N
ATOM     26  H8  UNL     1       8.143  36.761  43.106  1.00  0.00     0.187 HD
ATOM     27  H7  UNL     1       8.824  35.908  40.845  1.00  0.00     0.165 HD
BRANCH  25  28
HETATM   28  N9  UNL     1       7.775  38.758  43.531  1.00  0.00    -0.122 NA
BRANCH  28  29
HETATM   29  C9  UNL     1       6.358  38.819  43.824  1.00  0.00     0.199 C
HETATM   30  C10 UNL     1       5.955  40.049  44.558  1.00  0.00     0.035 C
HETATM   31  C11 UNL     1       4.573  39.929  45.110  1.00  0.00     0.029 C
HETATM   32  C12 UNL     1       3.820  38.706  44.711  1.00  0.00     0.178 C
HETATM   33  O4  UNL     1       4.594  37.537  44.923  1.00  0.00    -0.320 OA
HETATM   34  C13 UNL     1       5.955  37.646  44.680  1.00  0.00     0.280 C
HETATM   35  O5  UNL     1       6.822  36.848  45.121  1.00  0.00    -0.263 OA
ENDBRANCH  28  29
ENDBRANCH  25  28
ENDBRANCH  21  22
BRANCH  21  36
HETATM   36  C14 UNL     1      10.391  36.375  38.740  1.00  0.00     0.198 C
HETATM   37  O6  UNL     1      10.618  36.016  37.530  1.00  0.00    -0.646 OA
HETATM   38  O7  UNL     1      11.385  36.046  39.638  1.00  0.00    -0.646 OA
ENDBRANCH  21  36
ENDBRANCH   3  21
TORSDOF 8
ENDMDL