MODEL 3
REMARK VINA RESULT: -9.189404118      3.021      8.802
REMARK  10 active torsions:
REMARK  status: ('A' for Active; 'I' for Inactive)
REMARK    1  A    between atoms: N1_1  and  C1_5
REMARK    2  A    between atoms: C1_5  and  O1_6
REMARK    3  A    between atoms: C1_5  and  C2_8
REMARK    4  A    between atoms: C4_10  and  N2_11
REMARK    5  A    between atoms: N2_11  and  N3_13
REMARK    6  A    between atoms: C9_24  and  N6_25
REMARK    7  A    between atoms: N6_25  and  N7_27
REMARK    8  A    between atoms: C10_29  and  C11_30
REMARK    9  A    between atoms: C13_32  and  N8_33
REMARK   10  A    between atoms: C16_38  and  O6_39
ROOT
HETATM    1  C2  UNL     1       7.903  38.893  41.209  1.00  0.00     0.085 A
HETATM    2  C3  UNL     1       7.319  37.781  41.772  1.00  0.00     0.080 A
HETATM    3  C4  UNL     1       7.608  36.501  41.371  1.00  0.00     0.138 A
HETATM    4  N5  UNL     1       8.508  36.358  40.380  1.00  0.00    -0.174 N
ATOM      5  H5  UNL     1       8.750  35.424  40.051  1.00  0.00     0.186 HD
HETATM    6  C9  UNL     1       9.101  37.451  39.807  1.00  0.00     0.698 A
HETATM    7  N9  UNL     1       8.795  38.689  40.223  1.00  0.00    -0.190 N
ATOM      8  H9  UNL     1       9.246  39.492  39.783  1.00  0.00     0.184 HD
ENDROOT
BRANCH   6   9
HETATM    9  N6  UNL     1       9.957  37.299  38.866  1.00  0.00    -0.132 N
ATOM     10  H6  UNL     1      10.785  36.732  39.054  1.00  0.00     0.205 HD
BRANCH   9  11
HETATM   11  N7  UNL     1       9.821  37.862  37.607  1.00  0.00    -0.297 N
HETATM   12  C10 UNL     1      10.460  37.468  36.574  1.00  0.00     0.122 C
ATOM     13  H7  UNL     1       9.169  38.640  37.498  1.00  0.00     0.186 HD
BRANCH  12  14
HETATM   14  C11 UNL     1      10.225  38.144  35.309  1.00  0.00     0.016 A
HETATM   15  C12 UNL     1       9.355  37.595  34.417  1.00  0.00     0.051 A
HETATM   16  C13 UNL     1       9.095  38.185  33.214  1.00  0.00     0.103 A
HETATM   17  C14 UNL     1       9.732  39.364  32.900  1.00  0.00     0.039 A
HETATM   18  C15 UNL     1      10.605  39.932  33.773  1.00  0.00     0.040 A
HETATM   19  C16 UNL     1      10.853  39.320  34.983  1.00  0.00     0.077 A
BRANCH  16  20
HETATM   20  N8  UNL     1       8.192  37.621  32.282  1.00  0.00    -0.116 N
HETATM   21  O4  UNL     1       7.099  37.199  32.685  1.00  0.00    -0.532 OA
HETATM   22  O5  UNL     1       8.485  37.525  30.950  1.00  0.00    -0.532 OA
ENDBRANCH  16  20
BRANCH  19  23
HETATM   23  O6  UNL     1      11.730  39.851  35.910  1.00  0.00    -0.360 OA
ATOM     24  H6  UNL     1      12.574  40.151  35.592  1.00  0.00     0.217 HD
ENDBRANCH  19  23
ENDBRANCH  12  14
ENDBRANCH   9  11
ENDBRANCH   6   9
BRANCH   3  25
HETATM   25  N2  UNL     1       6.990  35.387  41.974  1.00  0.00    -0.275 N
ATOM     26  H2  UNL     1       6.824  35.444  42.979  1.00  0.00     0.189 HD
BRANCH  25  27
HETATM   27  N3  UNL     1       6.588  34.229  41.346  1.00  0.00    -0.215 N
HETATM   28  C5  UNL     1       6.614  34.106  40.006  1.00  0.00     0.127 A
HETATM   29  C6  UNL     1       6.225  32.969  39.345  1.00  0.00     0.094 A
HETATM   30  C7  UNL     1       5.784  31.897  40.099  1.00  0.00     0.250 A
HETATM   31  O2  UNL     1       5.413  30.822  39.544  1.00  0.00    -0.268 OA
HETATM   32  N4  UNL     1       5.773  32.053  41.422  1.00  0.00    -0.274 N
HETATM   33  C8  UNL     1       6.159  33.184  42.067  1.00  0.00     0.348 A
ATOM     34  H4  UNL     1       5.451  31.269  41.990  1.00  0.00     0.173 HD
HETATM   35  O3  UNL     1       6.094  33.191  43.343  1.00  0.00    -0.245 OA
ENDBRANCH  25  27
ENDBRANCH   3  25
BRANCH   1  36
HETATM   36  C1  UNL     1       7.602  40.265  41.635  1.00  0.00     0.368 C
BRANCH  36  37
HETATM   37  N1  UNL     1       6.633  40.910  40.767  1.00  0.00    -0.047 N
ATOM     38  H13 UNL     1       6.586  41.914  40.939  1.00  0.00     0.277 HD
ATOM     39  H12 UNL     1       6.953  40.931  39.799  1.00  0.00     0.277 HD
ATOM     40  H11 UNL     1       5.714  40.475  40.846  1.00  0.00     0.277 HD
ENDBRANCH  36  37
BRANCH  36  41
HETATM   41  O1  UNL     1       8.745  41.048  41.792  1.00  0.00    -0.365 OA
ATOM     42  H1  UNL     1       8.538  41.975  41.763  1.00  0.00     0.212 HD
ENDBRANCH  36  41
ENDBRANCH   1  36
TORSDOF 10
ENDMDL