MODEL 1
REMARK VINA RESULT: -8.531254332      0.000      0.000
REMARK  9 active torsions:
REMARK  status: ('A' for Active; 'I' for Inactive)
REMARK    1  A    between atoms: C2_2  and  O1_3
REMARK    2  A    between atoms: O1_3  and  C3_4
REMARK    3  A    between atoms: C3_4  and  C4_6
REMARK    4  A    between atoms: C4_6  and  N1_7
REMARK    5  A    between atoms: N1_7  and  C5_9
REMARK    6  A    between atoms: C5_9  and  C7_11
REMARK    7  A    between atoms: C9_16  and  N4_17
REMARK    8  A    between atoms: C10_20  and  N6_21
REMARK    9  A    between atoms: C11_24  and  C12_25
ROOT
HETATM    1  C7  UNL     1      10.002  38.547  35.100  1.00  0.00     0.096 A
HETATM    2  C8  UNL     1       8.822  37.869  35.159  1.00  0.00     0.149 A
HETATM    3  N2  UNL     1       8.053  37.690  33.993  1.00  0.00    -0.081 NA
HETATM    4  N3  UNL     1       8.319  37.335  36.303  1.00  0.00    -0.176 N
ATOM      5  H3  UNL     1       7.430  36.834  36.296  1.00  0.00     0.185 HD
HETATM    6  C9  UNL     1       9.018  37.480  37.449  1.00  0.00     0.709 A
HETATM    7  N11 UNL     1      10.187  38.141  37.437  1.00  0.00    -0.153 N
ATOM      8  H11 UNL     1      10.706  38.244  38.308  1.00  0.00     0.187 HD
HETATM    9  C16 UNL     1      10.695  38.672  36.311  1.00  0.00     0.275 A
HETATM   10  O4  UNL     1      11.793  39.280  36.364  1.00  0.00    -0.267 OA
ENDROOT
BRANCH   6  11
HETATM   11  N4  UNL     1       8.508  36.926  38.655  1.00  0.00    -0.069 N
HETATM   12  N5  UNL     1       7.752  35.856  38.744  1.00  0.00    -0.262 N
HETATM   13  C10 UNL     1       7.445  35.593  40.024  1.00  0.00     0.132 A
ATOM     14  H5  UNL     1       7.441  35.299  37.948  1.00  0.00     0.190 HD
HETATM   15  C11 UNL     1       8.051  36.562  40.768  1.00  0.00     0.098 A
HETATM   16  C15 UNL     1       8.721  37.401  39.885  1.00  0.00     0.174 A
HETATM   17  N10 UNL     1       9.493  38.558  40.248  1.00  0.00    -0.079 NA
BRANCH  13  18
HETATM   18  N6  UNL     1       6.725  34.620  40.462  1.00  0.00    -0.384 N
ATOM     19  H62 UNL     1       6.298  33.878  39.909  1.00  0.00     0.157 HD
ATOM     20  H61 UNL     1       6.465  34.438  41.431  1.00  0.00     0.157 HD
ENDBRANCH  13  18
BRANCH  15  21
HETATM   21  C12 UNL     1       8.043  36.749  42.223  1.00  0.00     0.143 A
HETATM   22  N7  UNL     1       8.833  36.168  43.141  1.00  0.00    -0.280 N
HETATM   23  N8  UNL     1       8.511  36.605  44.363  1.00  0.00    -0.250 N
ATOM     24  H7  UNL     1       9.570  35.494  42.936  1.00  0.00     0.188 HD
HETATM   25  C13 UNL     1       7.508  37.466  44.186  1.00  0.00     0.342 A
ATOM     26  H8  UNL     1       8.943  36.336  45.246  1.00  0.00     0.192 HD
HETATM   27  O3  UNL     1       6.942  38.080  45.121  1.00  0.00    -0.245 OA
HETATM   28  N9  UNL     1       7.212  37.563  42.889  1.00  0.00    -0.287 N
HETATM   29  C14 UNL     1       6.198  38.382  42.287  1.00  0.00     0.163 C
ENDBRANCH  15  21
ENDBRANCH   6  11
BRANCH   1  30
HETATM   30  C5  UNL     1      10.585  39.132  33.895  1.00  0.00     0.020 C
HETATM   31  C6  UNL     1      10.267  40.483  33.419  1.00  0.00     0.069 C
BRANCH  30  32
HETATM   32  N1  UNL     1      11.419  38.424  33.214  1.00  0.00    -0.383 N
ATOM     33  H1  UNL     1      12.350  38.822  33.090  1.00  0.00     0.160 HD
BRANCH  32  34
HETATM   34  C4  UNL     1      11.198  37.154  32.617  1.00  0.00     0.230 C
BRANCH  34  35
HETATM   35  C3  UNL     1      12.178  36.151  33.115  1.00  0.00     0.276 C
HETATM   36  O2  UNL     1      13.324  36.167  32.601  1.00  0.00    -0.263 OA
BRANCH  35  37
HETATM   37  O1  UNL     1      11.892  35.224  34.093  1.00  0.00    -0.321 OA
BRANCH  37  38
HETATM   38  C2  UNL     1      12.555  33.985  34.208  1.00  0.00     0.174 C
HETATM   39  C1  UNL     1      13.289  33.928  35.514  1.00  0.00     0.034 C
ENDBRANCH  37  38
ENDBRANCH  35  37
ENDBRANCH  34  35
ENDBRANCH  32  34
ENDBRANCH  30  32
ENDBRANCH   1  30
TORSDOF 9
ENDMDL