MODEL 3
REMARK VINA RESULT: -8.336190939      3.548      6.879
REMARK  10 active torsions:
REMARK  status: ('A' for Active; 'I' for Inactive)
REMARK    1  A    between atoms: C2_2  and  O1_3
REMARK    2  A    between atoms: O1_3  and  N1_4
REMARK    3  A    between atoms: N2_6  and  N3_8
REMARK    4  A    between atoms: N3_8  and  C3_10
REMARK    5  A    between atoms: C3_10  and  N4_11
REMARK    6  A    between atoms: C3_10  and  C4_15
REMARK       I    between atoms: C4_15  and  N5_17
REMARK    7  A    between atoms: C7_21  and  O4_22
REMARK    8  A    between atoms: C10_26  and  O5_27
REMARK    9  A    between atoms: C13_31  and  O6_32
REMARK   10  A    between atoms: O6_32  and  C14_33
ROOT
HETATM    1  C4  UNL     1       6.795  39.101  42.867  1.00  0.00     0.278 C
HETATM    2  O2  UNL     1       6.083  39.509  41.936  1.00  0.00    -0.269 OA
HETATM    3  N5  UNL     1       7.158  37.790  43.087  1.00  0.00    -0.287 N
HETATM    4  C5  UNL     1       7.696  37.128  44.296  1.00  0.00     0.310 C
HETATM    5  O3  UNL     1       6.790  35.983  44.305  1.00  0.00    -0.326 OA
HETATM    6  C6  UNL     1       6.754  35.553  42.956  1.00  0.00     0.135 A
HETATM    7  C7  UNL     1       6.539  34.317  42.430  1.00  0.00     0.117 A
HETATM    8  C8  UNL     1       6.560  34.180  41.046  1.00  0.00     0.068 A
HETATM    9  C9  UNL     1       6.799  35.275  40.221  1.00  0.00     0.033 A
HETATM   10  C10 UNL     1       7.019  36.539  40.814  1.00  0.00     0.108 A
HETATM   11  C11 UNL     1       6.989  36.665  42.187  1.00  0.00     0.110 A
HETATM   12  C12 UNL     1       6.763  34.862  38.816  1.00  0.00     0.055 A
HETATM   13  C13 UNL     1       6.927  35.555  37.717  1.00  0.00     0.163 C
HETATM   14  C15 UNL     1       6.480  33.402  38.875  1.00  0.00     0.235 A
HETATM   15  O8  UNL     1       6.371  32.670  37.854  1.00  0.00    -0.283 OA
HETATM   16  C16 UNL     1       6.356  32.987  40.252  1.00  0.00     0.236 A
HETATM   17  O9  UNL     1       6.119  31.833  40.669  1.00  0.00    -0.283 OA
ENDROOT
BRANCH   1  18
HETATM   18  C3  UNL     1       7.276  40.180  43.806  1.00  0.00     0.390 C
BRANCH  18  19
HETATM   19  N3  UNL     1       7.249  41.488  43.166  1.00  0.00    -0.282 N
ATOM     20  H3  UNL     1       6.453  42.103  43.332  1.00  0.00     0.184 HD
BRANCH  19  21
HETATM   21  N2  UNL     1       8.271  41.922  42.337  1.00  0.00    -0.225 N
HETATM   22  N1  UNL     1       8.811  43.041  42.517  1.00  0.00    -0.188 N
ATOM     23  H1  UNL     1       8.464  43.607  43.291  1.00  0.00     0.218 HD
ATOM     24  H2  UNL     1       8.590  41.325  41.573  1.00  0.00     0.210 HD
BRANCH  22  25
HETATM   25  O1  UNL     1       9.813  43.560  41.770  1.00  0.00    -0.234 OA
BRANCH  25  26
HETATM   26  C2  UNL     1       9.964  44.945  41.713  1.00  0.00     0.159 C
HETATM   27  C1  UNL     1       9.888  45.567  40.561  1.00  0.00     0.040 C
ENDBRANCH  25  26
ENDBRANCH  22  25
ENDBRANCH  19  21
ENDBRANCH  18  19
BRANCH  18  28
HETATM   28  N4  UNL     1       6.344  40.281  44.907  1.00  0.00    -0.048 N
ATOM     29  H43 UNL     1       6.765  40.611  45.775  1.00  0.00     0.277 HD
ATOM     30  H42 UNL     1       5.668  41.039  44.807  1.00  0.00     0.277 HD
ATOM     31  H41 UNL     1       5.920  39.356  44.980  1.00  0.00     0.277 HD
ENDBRANCH  18  28
ENDBRANCH   1  18
BRANCH  10  32
HETATM   32  O5  UNL     1       7.260  37.583  40.035  1.00  0.00    -0.357 OA
ATOM     33  H5  UNL     1       8.149  37.908  39.961  1.00  0.00     0.217 HD
ENDBRANCH  10  32
BRANCH   7  34
HETATM   34  O4  UNL     1       6.302  33.214  43.223  1.00  0.00    -0.357 OA
ATOM     35  H4  UNL     1       6.309  32.330  42.875  1.00  0.00     0.217 HD
ENDBRANCH   7  34
BRANCH  13  36
HETATM   36  O6  UNL     1       7.184  36.893  37.579  1.00  0.00    -0.275 OA
BRANCH  36  37
HETATM   37  C14 UNL     1       8.266  37.415  36.915  1.00  0.00     0.377 C
HETATM   38  N6  UNL     1       9.247  38.230  37.553  1.00  0.00    -0.032 NA
HETATM   39  O7  UNL     1       8.354  37.130  35.674  1.00  0.00    -0.242 OA
ENDBRANCH  36  37
ENDBRANCH  13  36
TORSDOF 10
ENDMDL