MODEL 2
REMARK VINA RESULT: -7.948237107      1.462      1.590
REMARK  10 active torsions:
REMARK  status: ('A' for Active; 'I' for Inactive)
REMARK    1  A    between atoms: C2_2  and  C3_3
REMARK    2  A    between atoms: C3_3  and  N1_4
REMARK    3  A    between atoms: C6_11  and  N4_12
REMARK    4  A    between atoms: C7_17  and  N6_18
REMARK    5  A    between atoms: N7_21  and  C10_22
REMARK    6  A    between atoms: C10_22  and  C11_23
REMARK    7  A    between atoms: C12_28  and  C13_29
REMARK    8  A    between atoms: C13_29  and  O1_31
REMARK    9  A    between atoms: N10_33  and  N11_34
REMARK   10  A    between atoms: C16_38  and  N12_39
ROOT
HETATM    1  N6  UNL     1       7.842  36.702  39.679  1.00  0.00    -0.361 N
HETATM    2  C8  UNL     1       6.823  37.210  38.794  1.00  0.00     0.154 C
HETATM    3  C9  UNL     1       7.251  38.466  38.075  1.00  0.00     0.292 C
HETATM    4  N7  UNL     1       8.078  38.065  36.947  1.00  0.00     0.099 N
HETATM    5  C15 UNL     1       9.426  37.986  37.463  1.00  0.00     0.307 C
HETATM    6  C16 UNL     1       9.632  36.585  37.993  1.00  0.00     0.229 C
HETATM    7  C17 UNL     1       9.263  36.459  39.444  1.00  0.00     0.159 C
ENDROOT
BRANCH   1   8
HETATM    8  C7  UNL     1       7.488  36.449  41.008  1.00  0.00     0.150 A
HETATM    9  N5  UNL     1       7.763  37.409  41.942  1.00  0.00    -0.175 N
HETATM   10  C6  UNL     1       7.511  37.244  43.241  1.00  0.00     0.678 A
ATOM     11  H5  UNL     1       8.178  38.288  41.633  1.00  0.00     0.186 HD
HETATM   12  N3  UNL     1       6.970  36.098  43.655  1.00  0.00    -0.188 N
HETATM   13  C5  UNL     1       6.670  35.113  42.822  1.00  0.00     0.098 A
ATOM     14  H3  UNL     1       6.779  35.976  44.650  1.00  0.00     0.184 HD
HETATM   15  C4  UNL     1       6.132  33.861  42.993  1.00  0.00     0.140 A
HETATM   16  C18 UNL     1       6.930  35.277  41.437  1.00  0.00     0.124 A
HETATM   17  N2  UNL     1       6.066  33.301  41.806  1.00  0.00    -0.307 N
HETATM   18  N1  UNL     1       6.542  34.141  40.848  1.00  0.00    -0.287 N
ATOM     19  H2  UNL     1       5.708  32.363  41.627  1.00  0.00     0.186 HD
BRANCH  10  20
HETATM   20  N4  UNL     1       7.785  38.175  44.081  1.00  0.00    -0.234 N
ATOM     21  H42 UNL     1       7.185  38.334  44.891  1.00  0.00     0.174 HD
ATOM     22  H41 UNL     1       8.606  38.765  43.949  1.00  0.00     0.174 HD
ENDBRANCH  10  20
BRANCH  18  23
HETATM   23  C3  UNL     1       6.511  33.796  39.454  1.00  0.00     0.149 C
BRANCH  23  24
HETATM   24  C2  UNL     1       6.495  32.254  39.405  1.00  0.00     0.017 C
HETATM   25  C1  UNL     1       5.195  31.764  38.829  1.00  0.00     0.007 C
ENDBRANCH  23  24
ENDBRANCH  18  23
ENDBRANCH   1   8
BRANCH   6  26
HETATM   26  N12 UNL     1      11.053  36.299  37.887  1.00  0.00    -0.072 N
ATOM     27 3H12 UNL     1      11.347  36.073  36.937  1.00  0.00     0.274 HD
ATOM     28 2H12 UNL     1      11.639  37.124  38.011  1.00  0.00     0.274 HD
ATOM     29 1H12 UNL     1      11.256  35.558  38.557  1.00  0.00     0.274 HD
ENDBRANCH   6  26
BRANCH   4  30
HETATM   30  C10 UNL     1       7.914  39.011  35.891  1.00  0.00     0.352 C
BRANCH  30  31
HETATM   31  C11 UNL     1       8.299  38.480  34.570  1.00  0.00     0.147 A
HETATM   32  N8  UNL     1       8.503  37.198  34.222  1.00  0.00    -0.284 N
HETATM   33  N9  UNL     1       8.835  37.159  32.929  1.00  0.00    -0.284 N
ATOM     34  H8  UNL     1       8.417  36.392  34.841  1.00  0.00     0.188 HD
HETATM   35  C12 UNL     1       8.849  38.412  32.438  1.00  0.00     0.147 A
ATOM     36  H9  UNL     1       9.045  36.315  32.398  1.00  0.00     0.188 HD
HETATM   37  N10 UNL     1       8.515  39.215  33.463  1.00  0.00    -0.231 N
BRANCH  35  38
HETATM   38  C13 UNL     1       9.168  38.831  31.045  1.00  0.00     0.184 C
HETATM   39  C14 UNL     1      10.672  38.663  30.803  1.00  0.00     0.048 C
BRANCH  38  40
HETATM   40  O1  UNL     1       8.441  38.065  30.114  1.00  0.00    -0.388 OA
ATOM     41  H1  UNL     1       8.803  37.189  30.045  1.00  0.00     0.210 HD
ENDBRANCH  38  40
ENDBRANCH  35  38
BRANCH  37  42
HETATM   42  N11 UNL     1       8.407  40.600  33.400  1.00  0.00    -0.336 N
ATOM     43 2H11 UNL     1       7.577  41.116  33.107  1.00  0.00     0.177 HD
ATOM     44 1H11 UNL     1       9.153  41.251  33.643  1.00  0.00     0.177 HD
ENDBRANCH  37  42
ENDBRANCH  30  31
ENDBRANCH   4  30
TORSDOF 10
ENDMDL