MODEL 3
REMARK VINA RESULT: -9.150796578      3.886      9.326
REMARK  8 active torsions:
REMARK  status: ('A' for Active; 'I' for Inactive)
REMARK    1  A    between atoms: C2_2  and  C4_4
REMARK    2  A    between atoms: C5_8  and  C6_9
REMARK       I    between atoms: C6_9  and  N2_11
REMARK    3  A    between atoms: N2_11  and  N3_13
REMARK       I    between atoms: N3_13  and  C7_15
REMARK    4  A    between atoms: C7_15  and  C8_17
REMARK    5  A    between atoms: C9_20  and  C10_21
REMARK    6  A    between atoms: N7_26  and  C11_27
REMARK    7  A    between atoms: C12_32  and  N10_33
REMARK    8  A    between atoms: C13_38  and  N12_39
ROOT
HETATM    1  C8  UNL     1       7.758  35.970  40.470  1.00  0.00     0.217 A
HETATM    2  N4  UNL     1       7.960  36.774  41.551  1.00  0.00    -0.317 N
ATOM      3  H4  UNL     1       8.502  37.638  41.548  1.00  0.00     0.169 HD
HETATM    4  C9  UNL     1       7.332  36.251  42.627  1.00  0.00     0.189 A
HETATM    5  N6  UNL     1       6.746  35.112  42.178  1.00  0.00    -0.258 N
ATOM      6  H6  UNL     1       6.189  34.477  42.750  1.00  0.00     0.190 HD
HETATM    7  N7  UNL     1       7.005  34.944  40.873  1.00  0.00    -0.060 N
ENDROOT
BRANCH   1   8
HETATM    8  C7  UNL     1       8.274  36.256  39.141  1.00  0.00     0.306 C
HETATM    9  N3  UNL     1       8.114  37.558  38.557  1.00  0.00    -0.260 N
ATOM     10  H3  UNL     1       7.630  38.279  39.093  1.00  0.00     0.190 HD
HETATM   11  O3  UNL     1       8.867  35.403  38.456  1.00  0.00    -0.262 OA
BRANCH   9  12
HETATM   12  N2  UNL     1       8.594  37.876  37.283  1.00  0.00    -0.262 N
HETATM   13  C6  UNL     1       7.789  38.569  36.378  1.00  0.00     0.291 C
HETATM   14  O2  UNL     1       6.617  38.885  36.807  1.00  0.00    -0.264 OA
ATOM     15  H2  UNL     1       9.538  37.600  37.014  1.00  0.00     0.190 HD
BRANCH  13  16
HETATM   16  C5  UNL     1       8.138  38.959  35.032  1.00  0.00     0.159 A
HETATM   17  N1  UNL     1       7.212  39.425  34.139  1.00  0.00    -0.253 N
HETATM   18  O1  UNL     1       7.790  39.679  33.031  1.00  0.00    -0.239 OA
ATOM     19  H1  UNL     1       6.217  39.550  34.329  1.00  0.00     0.195 HD
HETATM   20  C4  UNL     1       9.063  39.424  33.076  1.00  0.00     0.115 A
HETATM   21  C13 UNL     1       9.323  38.952  34.369  1.00  0.00     0.169 A
BRANCH  20  22
HETATM   22  C2  UNL     1      10.143  39.552  32.064  1.00  0.00     0.040 C
HETATM   23  C1  UNL     1      10.202  38.368  31.143  1.00  0.00     0.016 C
HETATM   24  C3  UNL     1      10.022  40.783  31.211  1.00  0.00     0.016 C
ENDBRANCH  20  22
BRANCH  21  25
HETATM   25  N12 UNL     1      10.588  38.518  34.858  1.00  0.00    -0.110 N
HETATM   26  O5  UNL     1      11.524  39.255  35.169  1.00  0.00    -0.532 OA
HETATM   27  O6  UNL     1      10.796  37.144  34.999  1.00  0.00    -0.532 OA
ENDBRANCH  21  25
ENDBRANCH  13  16
ENDBRANCH   9  12
ENDBRANCH   1   8
BRANCH   7  28
HETATM   28  C11 UNL     1       6.524  33.847  40.107  1.00  0.00     0.735 A
HETATM   29  N8  UNL     1       6.336  33.766  38.785  1.00  0.00    -0.115 N
HETATM   30  N9  UNL     1       5.871  32.578  38.452  1.00  0.00    -0.117 N
ATOM     31  H8  UNL     1       6.525  34.521  38.125  1.00  0.00     0.206 HD
HETATM   32  C12 UNL     1       5.740  31.836  39.556  1.00  0.00     0.705 A
ATOM     33  H9  UNL     1       5.648  32.273  37.504  1.00  0.00     0.206 HD
HETATM   34  N11 UNL     1       6.142  32.619  40.575  1.00  0.00    -0.018 N
ATOM     35  H11 UNL     1       6.159  32.337  41.556  1.00  0.00     0.203 HD
BRANCH  32  36
HETATM   36  N10 UNL     1       5.309  30.600  39.643  1.00  0.00    -0.233 N
ATOM     37 2H10 UNL     1       5.002  30.008  38.871  1.00  0.00     0.174 HD
ATOM     38 1H10 UNL     1       5.212  30.033  40.485  1.00  0.00     0.174 HD
ENDBRANCH  32  36
ENDBRANCH   7  28
BRANCH   4  39
HETATM   39  C10 UNL     1       7.310  36.809  43.981  1.00  0.00     0.300 C
HETATM   40  N5  UNL     1       6.133  36.820  44.767  1.00  0.00    -0.054 NA
HETATM   41  O4  UNL     1       8.380  37.286  44.435  1.00  0.00    -0.268 OA
ENDBRANCH   4  39
TORSDOF 8
ENDMDL