MODEL 3
REMARK VINA RESULT: -9.288580257      1.917      2.703
REMARK  10 active torsions:
REMARK  status: ('A' for Active; 'I' for Inactive)
REMARK    1  A    between atoms: C3_5  and  N2_6
REMARK    2  A    between atoms: N3_9  and  C4_10
REMARK    3  A    between atoms: C4_10  and  C5_11
REMARK       I    between atoms: C5_11  and  N4_13
REMARK    4  A    between atoms: N4_13  and  N5_15
REMARK       I    between atoms: N5_15  and  C6_17
REMARK    5  A    between atoms: C6_17  and  C7_19
REMARK       I    between atoms: C7_19  and  N6_21
REMARK    6  A    between atoms: N6_21  and  N7_23
REMARK    7  A    between atoms: C8_25  and  C9_26
REMARK    8  A    between atoms: C12_29  and  N8_30
REMARK    9  A    between atoms: C15_35  and  O6_36
REMARK   10  A    between atoms: C16_38  and  O7_39
ROOT
HETATM    1  C5  UNL     1       9.958  38.253  35.772  1.00  0.00     0.255 C
HETATM    2  O1  UNL     1       9.173  37.268  35.671  1.00  0.00    -0.270 OA
HETATM    3  N4  UNL     1       9.974  38.950  36.987  1.00  0.00    -0.266 N
ATOM      4  H4  UNL     1      10.597  39.751  37.097  1.00  0.00     0.190 HD
ENDROOT
BRANCH   3   5
HETATM    5  N5  UNL     1       9.162  38.571  38.043  1.00  0.00    -0.259 N
HETATM    6  C6  UNL     1       9.665  38.229  39.318  1.00  0.00     0.329 C
HETATM    7  O2  UNL     1      10.907  38.269  39.513  1.00  0.00    -0.261 OA
ATOM      8  H5  UNL     1       8.154  38.536  37.892  1.00  0.00     0.190 HD
BRANCH   6   9
HETATM    9  C7  UNL     1       8.761  37.842  40.373  1.00  0.00     0.329 C
HETATM   10  O3  UNL     1       7.598  38.293  40.452  1.00  0.00    -0.261 OA
HETATM   11  N6  UNL     1       9.186  36.913  41.374  1.00  0.00    -0.262 N
ATOM     12  H6  UNL     1      10.133  36.534  41.326  1.00  0.00     0.190 HD
BRANCH  11  13
HETATM   13  N7  UNL     1       8.380  36.523  42.373  1.00  0.00    -0.308 N
HETATM   14  C8  UNL     1       7.519  35.689  42.655  1.00  0.00     0.118 C
ATOM     15  H7  UNL     1       8.534  37.128  43.180  1.00  0.00     0.186 HD
BRANCH  14  16
HETATM   16  C9  UNL     1       6.988  34.633  41.813  1.00  0.00    -0.019 A
HETATM   17  C10 UNL     1       6.920  34.787  40.435  1.00  0.00     0.015 A
HETATM   18  C11 UNL     1       6.411  33.770  39.661  1.00  0.00     0.037 A
HETATM   19  C12 UNL     1       5.965  32.599  40.220  1.00  0.00     0.102 A
HETATM   20  C13 UNL     1       6.033  32.446  41.589  1.00  0.00     0.037 A
HETATM   21  C14 UNL     1       6.533  33.441  42.379  1.00  0.00     0.015 A
BRANCH  19  22
HETATM   22  N8  UNL     1       5.452  31.582  39.368  1.00  0.00    -0.116 N
HETATM   23  O4  UNL     1       5.410  30.418  39.806  1.00  0.00    -0.532 OA
HETATM   24  O5  UNL     1       5.025  31.891  38.105  1.00  0.00    -0.532 OA
ENDBRANCH  19  22
ENDBRANCH  14  16
ENDBRANCH  11  13
ENDBRANCH   6   9
ENDBRANCH   3   5
BRANCH   1  25
HETATM   25  C4  UNL     1      10.804  38.591  34.585  1.00  0.00     0.254 C
BRANCH  25  26
HETATM   26  N3  UNL     1      10.004  39.097  33.481  1.00  0.00    -0.151 N
HETATM   27  C3  UNL     1       9.705  40.407  33.368  1.00  0.00     0.680 A
HETATM   28  N1  UNL     1       8.936  40.868  32.332  1.00  0.00    -0.193 N
HETATM   29  C2  UNL     1       8.440  40.076  31.386  1.00  0.00     0.060 A
ATOM     30  H1  UNL     1       8.734  41.867  32.285  1.00  0.00     0.184 HD
HETATM   31  C1  UNL     1       7.603  40.569  30.261  1.00  0.00     0.072 C
HETATM   32  C16 UNL     1       8.726  38.730  31.469  1.00  0.00     0.140 A
HETATM   33  C15 UNL     1       9.510  38.288  32.531  1.00  0.00     0.194 A
BRANCH  27  34
HETATM   34  N2  UNL     1      10.116  41.285  34.184  1.00  0.00    -0.234 N
ATOM     35  H22 UNL     1       9.616  41.531  35.038  1.00  0.00     0.174 HD
ATOM     36  H21 UNL     1      10.999  41.736  33.945  1.00  0.00     0.174 HD
ENDBRANCH  27  34
BRANCH  32  37
HETATM   37  O7  UNL     1       8.248  37.839  30.524  1.00  0.00    -0.355 OA
ATOM     38  H7  UNL     1       7.468  37.321  30.688  1.00  0.00     0.218 HD
ENDBRANCH  32  37
BRANCH  33  39
HETATM   39  O6  UNL     1       9.784  36.917  32.588  1.00  0.00    -0.344 OA
ATOM     40  H6  UNL     1       9.488  36.354  31.883  1.00  0.00     0.219 HD
ENDBRANCH  33  39
ENDBRANCH  25  26
ENDBRANCH   1  25
TORSDOF 10
ENDMDL