MODEL 4
REMARK VINA RESULT: -8.284201846      1.585      1.960
REMARK  7 active torsions:
REMARK  status: ('A' for Active; 'I' for Inactive)
REMARK    1  A    between atoms: O1_2  and  C2_3
REMARK    2  A    between atoms: C2_3  and  C3_5
REMARK    3  A    between atoms: C3_5  and  C5_13
REMARK    4  A    between atoms: N1_6  and  N2_8
REMARK    5  A    between atoms: C6_14  and  N5_15
REMARK    6  A    between atoms: N5_15  and  C7_17
REMARK       I    between atoms: N7_23  and  C11_24
REMARK    7  A    between atoms: C12_29  and  N10_30
ROOT
HETATM    1  C5  UNL     1       7.363  34.994  39.561  1.00  0.00     0.100 A
HETATM    2  C6  UNL     1       7.284  34.982  40.908  1.00  0.00     0.115 A
HETATM    3  C12 UNL     1       6.508  33.859  41.275  1.00  0.00     0.173 A
HETATM    4  C13 UNL     1       6.140  33.229  40.134  1.00  0.00     0.154 A
HETATM    5  N11 UNL     1       5.331  32.032  40.060  1.00  0.00    -0.080 NA
HETATM    6  N12 UNL     1       6.655  33.914  39.098  1.00  0.00    -0.334 N
HETATM    7  C14 UNL     1       6.429  33.485  37.722  1.00  0.00     0.158 C
ENDROOT
BRANCH   2   8
HETATM    8  N5  UNL     1       7.757  35.862  41.931  1.00  0.00    -0.187 N
ATOM      9  H5  UNL     1       8.477  35.573  42.594  1.00  0.00     0.184 HD
BRANCH   8  10
HETATM   10  C7  UNL     1       7.167  37.178  41.984  1.00  0.00     0.683 C
HETATM   11  N6  UNL     1       6.482  37.646  41.018  1.00  0.00    -0.226 N
HETATM   12  C8  UNL     1       5.908  38.965  41.107  1.00  0.00     0.139 C
ATOM     13  H6  UNL     1       6.339  37.085  40.178  1.00  0.00     0.177 HD
HETATM   14  C9  UNL     1       6.979  39.878  41.669  1.00  0.00     0.041 C
HETATM   15  C10 UNL     1       7.312  39.397  43.055  1.00  0.00     0.152 C
HETATM   16  N7  UNL     1       7.370  37.958  43.149  1.00  0.00    -0.155 N
HETATM   17  C11 UNL     1       7.636  37.386  44.413  1.00  0.00     0.203 C
HETATM   18  N8  UNL     1       6.664  36.946  45.121  1.00  0.00    -0.373 N
HETATM   19  N9  UNL     1       8.958  37.292  44.907  1.00  0.00    -0.063 NA
ATOM     20  H82 UNL     1       5.711  37.014  44.764  1.00  0.00     0.158 HD
ATOM     21  H81 UNL     1       6.856  36.534  46.033  1.00  0.00     0.158 HD
ENDBRANCH   8  10
ENDBRANCH   2   8
BRANCH   1  22
HETATM   22  C3  UNL     1       8.080  35.870  38.680  1.00  0.00     0.153 C
HETATM   23  N1  UNL     1       7.355  36.500  37.775  1.00  0.00    -0.291 N
ATOM     24  H1  UNL     1       6.347  36.341  37.782  1.00  0.00     0.187 HD
BRANCH  22  25
HETATM   25  C2  UNL     1       9.495  36.124  38.633  1.00  0.00     0.313 C
HETATM   26  O2  UNL     1      10.293  35.963  37.700  1.00  0.00    -0.257 OA
BRANCH  25  27
HETATM   27  O1  UNL     1      10.151  36.640  39.795  1.00  0.00    -0.321 OA
HETATM   28  C1  UNL     1      10.227  38.034  40.001  1.00  0.00     0.213 C
ENDBRANCH  25  27
ENDBRANCH  22  25
BRANCH  23  29
HETATM   29  N2  UNL     1       7.850  37.341  36.840  1.00  0.00    -0.275 N
HETATM   30  C4  UNL     1       7.657  38.589  36.709  1.00  0.00     0.215 C
HETATM   31  N3  UNL     1       6.832  39.330  37.591  1.00  0.00    -0.065 NA
HETATM   32  N4  UNL     1       8.292  39.273  35.636  1.00  0.00    -0.065 NA
ATOM     33  H2  UNL     1       8.463  36.914  36.145  1.00  0.00     0.189 HD
ENDBRANCH  23  29
ENDBRANCH   1  22
BRANCH   3  34
HETATM   34  N10 UNL     1       6.193  33.477  42.622  1.00  0.00    -0.110 N
HETATM   35  O3  UNL     1       6.316  32.328  43.054  1.00  0.00    -0.532 OA
HETATM   36  O4  UNL     1       5.733  34.449  43.481  1.00  0.00    -0.532 OA
ENDBRANCH   3  34
TORSDOF 7
ENDMDL