MODEL 2
REMARK VINA RESULT: -7.195943076      2.915      4.203
REMARK  12 active torsions:
REMARK  status: ('A' for Active; 'I' for Inactive)
REMARK    1  A    between atoms: N1_1  and  C1_4
REMARK    2  A    between atoms: N4_11  and  C3_12
REMARK    3  A    between atoms: C4_14  and  C5_15
REMARK    4  A    between atoms: C5_15  and  O2_16
REMARK    5  A    between atoms: C5_15  and  C6_18
REMARK    6  A    between atoms: C6_18  and  O3_19
REMARK    7  A    between atoms: C7_21  and  N5_22
REMARK    8  A    between atoms: C8_25  and  C9_26
REMARK    9  A    between atoms: C11_33  and  O5_34
REMARK   10  A    between atoms: C12_36  and  N10_37
REMARK   11  A    between atoms: C13_42  and  N12_43
REMARK   12  A    between atoms: N12_43  and  N13_45
ROOT
HETATM    1  C3  UNL     1      23.875  36.571   5.629  1.00  0.00     0.295 C
HETATM    2  O1  UNL     1      23.138  36.410   6.794  1.00  0.00    -0.352 OA
HETATM    3  C4  UNL     1      22.391  35.237   6.699  1.00  0.00     0.182 C
HETATM    4  C7  UNL     1      22.220  35.051   5.243  1.00  0.00     0.175 C
HETATM    5  C11 UNL     1      23.653  35.339   4.773  1.00  0.00     0.196 C
ENDROOT
BRANCH   1   6
HETATM    6  N4  UNL     1      25.240  36.874   5.859  1.00  0.00     0.016 N
HETATM    7  C2  UNL     1      25.889  37.563   4.906  1.00  0.00     0.696 C
HETATM    8  N2  UNL     1      27.222  37.526   4.603  1.00  0.00    -0.173 N
HETATM    9  N3  UNL     1      25.226  38.368   4.163  1.00  0.00    -0.234 N
HETATM   10  C1  UNL     1      28.220  37.030   5.360  1.00  0.00     0.161 C
ATOM     11  H2  UNL     1      27.491  37.918   3.700  1.00  0.00     0.186 HD
HETATM   12  C13 UNL     1      28.164  36.668   6.700  1.00  0.00     0.179 C
HETATM   13  N11 UNL     1      27.076  36.330   7.394  1.00  0.00    -0.171 N
HETATM   14  C12 UNL     1      25.766  36.440   7.012  1.00  0.00     0.696 C
ATOM     15  H11 UNL     1      27.240  35.943   8.324  1.00  0.00     0.186 HD
ATOM     16  H32 UNL     1      25.718  38.891   3.440  1.00  0.00     0.174 HD
ATOM     17  H31 UNL     1      24.232  38.396   4.389  1.00  0.00     0.174 HD
BRANCH  10  18
HETATM   18  N1  UNL     1      29.357  36.862   4.818  1.00  0.00    -0.382 N
ATOM     19  H12 UNL     1      29.912  37.713   4.733  1.00  0.00     0.157 HD
ATOM     20  H11 UNL     1      29.614  35.921   4.521  1.00  0.00     0.157 HD
ENDBRANCH  10  18
BRANCH  12  21
HETATM   21  N12 UNL     1      29.298  36.664   7.324  1.00  0.00    -0.289 N
ATOM     22  H12 UNL     1      30.176  36.790   6.820  1.00  0.00     0.188 HD
BRANCH  21  23
HETATM   23  N13 UNL     1      29.284  36.483   8.702  1.00  0.00    -0.344 N
ATOM     24 2H13 UNL     1      28.552  36.914   9.266  1.00  0.00     0.176 HD
ATOM     25 1H13 UNL     1      30.021  35.914   9.118  1.00  0.00     0.176 HD
ENDBRANCH  21  23
ENDBRANCH  12  21
BRANCH  14  26
HETATM   26  N10 UNL     1      24.976  36.051   7.948  1.00  0.00    -0.234 N
ATOM     27 2H10 UNL     1      24.547  35.155   7.718  1.00  0.00     0.174 HD
ATOM     28 1H10 UNL     1      24.864  36.639   8.774  1.00  0.00     0.174 HD
ENDBRANCH  14  26
ENDBRANCH   1   6
BRANCH   5  29
HETATM   29  O5  UNL     1      24.540  34.366   5.153  1.00  0.00    -0.389 OA
ATOM     30  H5  UNL     1      24.607  33.720   4.460  1.00  0.00     0.210 HD
ENDBRANCH   5  29
BRANCH   3  31
HETATM   31  C5  UNL     1      21.081  35.367   7.447  1.00  0.00     0.172 C
BRANCH  31  32
HETATM   32  O2  UNL     1      20.306  36.367   6.862  1.00  0.00    -0.391 OA
ATOM     33  H2  UNL     1      20.768  37.196   6.909  1.00  0.00     0.210 HD
ENDBRANCH  31  32
BRANCH  31  34
HETATM   34  C6  UNL     1      21.325  35.740   8.896  1.00  0.00     0.198 C
BRANCH  34  35
HETATM   35  O3  UNL     1      20.128  35.779   9.602  1.00  0.00    -0.398 OA
ATOM     36  H3  UNL     1      19.739  36.643   9.556  1.00  0.00     0.209 HD
ENDBRANCH  34  35
ENDBRANCH  31  34
ENDBRANCH   3  31
BRANCH   4  37
HETATM   37  N5  UNL     1      21.667  33.849   4.778  1.00  0.00    -0.253 N
HETATM   38  N6  UNL     1      22.369  32.938   4.100  1.00  0.00    -0.276 N
HETATM   39  C8  UNL     1      21.633  31.882   3.762  1.00  0.00     0.189 A
ATOM     40  H6  UNL     1      23.357  33.041   3.868  1.00  0.00     0.189 HD
HETATM   41  N8  UNL     1      20.386  32.120   4.247  1.00  0.00    -0.310 N
HETATM   42  C10 UNL     1      20.442  33.312   4.851  1.00  0.00     0.211 A
ATOM     43  H8  UNL     1      19.572  31.512   4.165  1.00  0.00     0.170 HD
HETATM   44  N9  UNL     1      19.344  33.924   5.487  1.00  0.00    -0.062 NA
BRANCH  39  45
HETATM   45  C9  UNL     1      22.066  30.702   3.022  1.00  0.00     0.300 C
HETATM   46  N7  UNL     1      23.296  30.731   2.348  1.00  0.00    -0.054 NA
HETATM   47  O4  UNL     1      21.343  29.688   2.998  1.00  0.00    -0.268 OA
ENDBRANCH  39  45
ENDBRANCH   4  37
TORSDOF 12
ENDMDL