MODEL 4
REMARK VINA RESULT: -8.369375386      5.132      8.121
REMARK  8 active torsions:
REMARK  status: ('A' for Active; 'I' for Inactive)
REMARK       I    between atoms: N1_1  and  C1_5
REMARK       I    between atoms: C1_5  and  N2_6
REMARK       I    between atoms: C1_5  and  N3_10
REMARK    1  A    between atoms: C4_18  and  S1_19
REMARK    2  A    between atoms: C6_26  and  C7_27
REMARK    3  A    between atoms: C7_27  and  O4_28
REMARK    4  A    between atoms: C7_27  and  O5_30
REMARK    5  A    between atoms: O5_30  and  C8_31
REMARK    6  A    between atoms: C9_35  and  O7_36
REMARK    7  A    between atoms: C9_35  and  O8_38
REMARK    8  A    between atoms: C10_40  and  O9_41
ROOT
HETATM    1  N1  UNL     1      20.620  31.055   0.588  1.00  0.00    -0.032 N
ATOM      2  H11 UNL     1      20.735  31.895   0.021  1.00  0.00     0.278 HD
ATOM      3  H12 UNL     1      19.946  31.193   1.341  1.00  0.00     0.278 HD
ATOM      4  H13 UNL     1      20.131  30.317   0.081  1.00  0.00     0.278 HD
HETATM    5  C1  UNL     1      21.899  30.609   1.086  1.00  0.00     0.494 C
HETATM    6  N2  UNL     1      21.735  29.409   1.896  1.00  0.00    -0.032 N
ATOM      7  H21 UNL     1      22.639  29.094   2.248  1.00  0.00     0.278 HD
ATOM      8  H22 UNL     1      21.246  28.671   1.390  1.00  0.00     0.278 HD
ATOM      9  H23 UNL     1      21.061  29.547   2.649  1.00  0.00     0.278 HD
HETATM   10  N3  UNL     1      22.583  31.591   1.857  1.00  0.00    -0.173 N
ATOM     11  H3  UNL     1      23.494  31.881   1.502  1.00  0.00     0.181 HD
HETATM   12  C2  UNL     1      22.202  32.155   2.937  1.00  0.00     0.683 A
HETATM   13  N4  UNL     1      23.070  33.069   3.465  1.00  0.00    -0.174 N
ATOM     14  H4  UNL     1      23.950  33.245   2.980  1.00  0.00     0.186 HD
HETATM   15  C3  UNL     1      22.810  33.741   4.592  1.00  0.00     0.152 A
HETATM   16  N5  UNL     1      23.381  34.663   5.376  1.00  0.00    -0.314 N
ATOM     17  H5  UNL     1      24.292  35.085   5.200  1.00  0.00     0.170 HD
HETATM   18  C4  UNL     1      22.589  34.963   6.437  1.00  0.00     0.227 A
HETATM   19  N6  UNL     1      21.453  34.213   6.352  1.00  0.00    -0.326 N
ATOM     20  H6  UNL     1      20.677  34.230   7.014  1.00  0.00     0.168 HD
HETATM   21  C5  UNL     1      21.529  33.451   5.253  1.00  0.00     0.108 A
HETATM   22  C6  UNL     1      20.682  32.530   4.700  1.00  0.00     0.111 A
HETATM   23  N9  UNL     1      21.034  31.899   3.551  1.00  0.00    -0.188 N
ATOM     24  H9  UNL     1      20.398  31.215   3.144  1.00  0.00     0.184 HD
ENDROOT
BRANCH  22  25
HETATM   25  C7  UNL     1      19.403  32.239   5.356  1.00  0.00     0.313 C
BRANCH  25  26
HETATM   26  O4  UNL     1      18.801  33.493   5.618  1.00  0.00    -0.366 OA
ATOM     27  H4  UNL     1      19.507  34.128   5.629  1.00  0.00     0.213 HD
ENDBRANCH  25  26
BRANCH  25  28
HETATM   28  O5  UNL     1      18.544  31.480   4.604  1.00  0.00    -0.330 OA
BRANCH  28  29
HETATM   29  C8  UNL     1      17.812  30.664   5.460  1.00  0.00     0.272 C
HETATM   30  N7  UNL     1      17.462  31.456   6.634  1.00  0.00    -0.084 NA
HETATM   31  N8  UNL     1      16.719  30.694   7.536  1.00  0.00     0.019 NA
HETATM   32  O6  UNL     1      17.345  29.592   7.950  1.00  0.00    -0.200 OA
HETATM   33  C9  UNL     1      17.717  28.733   6.936  1.00  0.00     0.328 C
HETATM   34  C10 UNL     1      18.606  29.480   5.956  1.00  0.00     0.258 C
BRANCH  33  35
HETATM   35  O7  UNL     1      18.484  27.717   7.494  1.00  0.00    -0.340 OA
ATOM     36  H7  UNL     1      19.378  27.821   7.190  1.00  0.00     0.215 HD
ENDBRANCH  33  35
BRANCH  33  37
HETATM   37  O8  UNL     1      16.600  28.251   6.263  1.00  0.00    -0.340 OA
ATOM     38  H8  UNL     1      16.387  27.372   6.552  1.00  0.00     0.215 HD
ENDBRANCH  33  37
BRANCH  34  39
HETATM   39  O9  UNL     1      18.928  28.664   4.867  1.00  0.00    -0.383 OA
ATOM     40  H9  UNL     1      19.528  27.988   5.158  1.00  0.00     0.210 HD
ENDBRANCH  34  39
ENDBRANCH  28  29
ENDBRANCH  25  28
ENDBRANCH  22  25
BRANCH  18  41
HETATM   41  S1  UNL     1      23.031  36.125   7.652  1.00  0.00     0.172 S
HETATM   42  O1  UNL     1      24.341  35.779   8.299  1.00  0.00    -0.589 OA
HETATM   43  O2  UNL     1      22.005  36.188   8.753  1.00  0.00    -0.589 OA
HETATM   44  O3  UNL     1      23.167  37.662   7.009  1.00  0.00    -0.589 OA
ENDBRANCH  18  41
TORSDOF 8
ENDMDL