MODEL 1
REMARK VINA RESULT: -7.400629064      0.000      0.000
REMARK  14 active torsions:
REMARK  status: ('A' for Active; 'I' for Inactive)
REMARK    1  A    between atoms: N1_1  and  N2_4
REMARK    2  A    between atoms: N2_4  and  N3_5
REMARK    3  A    between atoms: N3_5  and  N4_6
REMARK    4  A    between atoms: N4_6  and  C1_8
REMARK    5  A    between atoms: N6_11  and  N7_12
REMARK    6  A    between atoms: C3_16  and  O1_17
REMARK    7  A    between atoms: C5_21  and  O2_22
REMARK    8  A    between atoms: C6_24  and  C7_25
REMARK    9  A    between atoms: C7_25  and  O3_26
REMARK   10  A    between atoms: C7_25  and  C8_28
REMARK   11  A    between atoms: C8_28  and  O4_29
REMARK   12  A    between atoms: C8_28  and  C9_31
REMARK   13  A    between atoms: C9_31  and  O5_32
REMARK   14  A    between atoms: C9_31  and  O6_34
ROOT
HETATM    1  N7  UNL     1      20.035  31.924   4.879  1.00  0.00    -0.118 N
HETATM    2  N8  UNL     1      21.206  31.566   4.361  1.00  0.00    -0.271 N
ATOM      3  H8  UNL     1      21.414  30.655   3.953  1.00  0.00     0.189 HD
HETATM    4  C2  UNL     1      22.071  32.584   4.454  1.00  0.00     0.101 A
HETATM    5  C3  UNL     1      23.361  32.695   4.014  1.00  0.00     0.115 A
HETATM    6  C4  UNL     1      24.051  33.865   4.166  1.00  0.00     0.080 A
HETATM    7 BR1  UNL     1      25.860  34.042   3.578  1.00  0.00    -0.045 Br
HETATM    8  C5  UNL     1      23.490  34.961   4.758  1.00  0.00     0.096 A
HETATM    9  C6  UNL     1      22.143  34.859   5.224  1.00  0.00     0.026 A
HETATM   10  C10 UNL     1      21.452  33.692   5.069  1.00  0.00     0.078 A
HETATM   11  C11 UNL     1      20.185  33.189   5.296  1.00  0.00     0.297 A
HETATM   12  O7  UNL     1      19.208  33.773   5.829  1.00  0.00    -0.264 OA
ENDROOT
BRANCH   1  13
HETATM   13  N6  UNL     1      18.880  31.118   4.969  1.00  0.00     0.022 N
HETATM   14  C1  UNL     1      17.798  30.656   5.677  1.00  0.00     0.750 A
HETATM   15  N5  UNL     1      17.983  30.229   4.382  1.00  0.00    -0.090 N
ATOM     16  H5  UNL     1      17.683  29.672   3.582  1.00  0.00     0.208 HD
BRANCH  14  17
HETATM   17  N4  UNL     1      16.904  30.478   6.733  1.00  0.00    -0.113 N
ATOM     18  H4  UNL     1      16.111  31.115   6.805  1.00  0.00     0.203 HD
BRANCH  17  19
HETATM   19  N3  UNL     1      17.037  29.458   7.716  1.00  0.00     0.006 NA
BRANCH  19  20
HETATM   20  N2  UNL     1      18.277  28.798   7.607  1.00  0.00    -0.015 NA
BRANCH  20  21
HETATM   21  N1  UNL     1      18.137  27.529   7.027  1.00  0.00    -0.330 N
ATOM     22  H12 UNL     1      18.326  26.659   7.525  1.00  0.00     0.173 HD
ATOM     23  H11 UNL     1      17.826  27.592   6.057  1.00  0.00     0.173 HD
ENDBRANCH  20  21
ENDBRANCH  19  20
ENDBRANCH  17  19
ENDBRANCH  14  17
ENDBRANCH   1  13
BRANCH   5  24
HETATM   24  O1  UNL     1      23.970  31.583   3.400  1.00  0.00    -0.357 OA
ATOM     25  H1  UNL     1      23.593  30.720   3.534  1.00  0.00     0.217 HD
ENDBRANCH   5  24
BRANCH   9  26
HETATM   26  C7  UNL     1      21.549  36.054   5.762  1.00  0.00     0.188 C
BRANCH  26  27
HETATM   27  O3  UNL     1      20.298  36.172   5.065  1.00  0.00    -0.388 OA
ATOM     28  H3  UNL     1      20.518  36.641   4.268  1.00  0.00     0.210 HD
ENDBRANCH  26  27
BRANCH  26  29
HETATM   29  C8  UNL     1      21.279  36.343   7.148  1.00  0.00     0.206 C
BRANCH  29  30
HETATM   30  O4  UNL     1      19.975  35.878   7.428  1.00  0.00    -0.388 OA
ATOM     31  H4  UNL     1      19.723  36.235   8.271  1.00  0.00     0.210 HD
ENDBRANCH  29  30
BRANCH  29  32
HETATM   32  C9  UNL     1      22.110  35.933   8.287  1.00  0.00     0.285 C
BRANCH  32  33
HETATM   33  O5  UNL     1      22.192  34.589   8.539  1.00  0.00    -0.369 OA
ATOM     34  H5  UNL     1      22.552  34.045   7.847  1.00  0.00     0.212 HD
ENDBRANCH  32  33
BRANCH  32  35
HETATM   35  O6  UNL     1      23.446  36.379   8.068  1.00  0.00    -0.369 OA
ATOM     36  H6  UNL     1      24.000  36.046   8.764  1.00  0.00     0.212 HD
ENDBRANCH  32  35
ENDBRANCH  29  32
ENDBRANCH  26  29
ENDBRANCH   9  26
BRANCH   8  37
HETATM   37  O2  UNL     1      24.109  36.165   4.946  1.00  0.00    -0.359 OA
ATOM     38  H2  UNL     1      23.838  36.833   5.564  1.00  0.00     0.217 HD
ENDBRANCH   8  37
TORSDOF 14
ENDMDL