MODEL 1
REMARK VINA RESULT: -6.977047975      0.000      0.000
REMARK  15 active torsions:
REMARK  status: ('A' for Active; 'I' for Inactive)
REMARK    1  A    between atoms: N1_1  and  N2_4
REMARK    2  A    between atoms: N2_4  and  O1_6
REMARK    3  A    between atoms: O1_6  and  C1_7
REMARK    4  A    between atoms: C1_7  and  O2_8
REMARK    5  A    between atoms: C1_7  and  C2_10
REMARK    6  A    between atoms: C1_7  and  C3_15
REMARK    7  A    between atoms: C2_10  and  O3_11
REMARK    8  A    between atoms: C2_10  and  O4_13
REMARK    9  A    between atoms: C3_15  and  O5_16
REMARK   10  A    between atoms: C4_18  and  C5_19
REMARK   11  A    between atoms: C6_23  and  N3_24
REMARK   12  A    between atoms: C9_29  and  N5_30
REMARK   13  A    between atoms: C10_35  and  N7_36
REMARK   14  A    between atoms: C12_42  and  O9_43
REMARK   15  A    between atoms: C12_42  and  O10_45
ROOT
HETATM    1  C3  UNL     1      23.845  35.826   5.466  1.00  0.00     0.218 C
HETATM    2  C4  UNL     1      22.996  34.889   6.289  1.00  0.00     0.271 C
HETATM    3  O8  UNL     1      21.964  34.481   5.398  1.00  0.00    -0.341 OA
HETATM    4  C6  UNL     1      21.617  35.584   4.674  1.00  0.00     0.297 C
HETATM    5  C12 UNL     1      22.891  36.402   4.513  1.00  0.00     0.246 C
ENDROOT
BRANCH   4   6
HETATM    6  N3  UNL     1      21.020  35.224   3.411  1.00  0.00    -0.294 N
HETATM    7  C7  UNL     1      20.810  33.960   2.942  1.00  0.00     0.188 A
HETATM    8  N4  UNL     1      20.240  33.979   1.746  1.00  0.00    -0.346 N
HETATM    9  C8  UNL     1      20.063  35.259   1.402  1.00  0.00     0.123 A
ATOM     10  H4  UNL     1      19.983  33.165   1.188  1.00  0.00     0.167 HD
HETATM   11  C9  UNL     1      19.524  35.830   0.283  1.00  0.00     0.145 A
HETATM   12  C11 UNL     1      20.549  36.025   2.439  1.00  0.00     0.157 A
HETATM   13  N6  UNL     1      19.479  37.167   0.217  1.00  0.00    -0.175 N
HETATM   14  C10 UNL     1      19.951  37.919   1.224  1.00  0.00     0.679 A
ATOM     15  H6  UNL     1      19.082  37.619  -0.606  1.00  0.00     0.186 HD
HETATM   16  N8  UNL     1      20.477  37.360   2.320  1.00  0.00    -0.174 N
ATOM     17  H8  UNL     1      20.827  37.955   3.071  1.00  0.00     0.186 HD
BRANCH  11  18
HETATM   18  N5  UNL     1      19.081  35.086  -0.666  1.00  0.00    -0.383 N
ATOM     19  H52 UNL     1      19.687  34.450  -1.183  1.00  0.00     0.157 HD
ATOM     20  H51 UNL     1      18.094  35.121  -0.922  1.00  0.00     0.157 HD
ENDBRANCH  11  18
BRANCH  14  21
HETATM   21  N7  UNL     1      19.883  39.201   1.112  1.00  0.00    -0.234 N
ATOM     22  H72 UNL     1      18.983  39.677   1.159  1.00  0.00     0.174 HD
ATOM     23  H71 UNL     1      20.750  39.720   0.976  1.00  0.00     0.174 HD
ENDBRANCH  14  21
ENDBRANCH   4   6
BRANCH   5  24
HETATM   24  O9  UNL     1      23.230  36.216   3.150  1.00  0.00    -0.359 OA
ATOM     25  H9  UNL     1      22.575  36.519   2.533  1.00  0.00     0.213 HD
ENDBRANCH   5  24
BRANCH   5  26
HETATM   26  O10 UNL     1      22.623  37.762   4.640  1.00  0.00    -0.359 OA
ATOM     27  H10 UNL     1      22.798  38.305   3.880  1.00  0.00     0.213 HD
ENDBRANCH   5  26
BRANCH   2  28
HETATM   28  C5  UNL     1      22.312  35.435   7.443  1.00  0.00     0.206 C
HETATM   29  O6  UNL     1      22.088  34.747   8.468  1.00  0.00    -0.646 OA
HETATM   30  O7  UNL     1      21.838  36.761   7.542  1.00  0.00    -0.646 OA
ENDBRANCH   2  28
BRANCH   1  31
HETATM   31  C1  UNL     1      24.747  36.722   6.227  1.00  0.00     0.279 C
BRANCH  31  32
HETATM   32  O1  UNL     1      25.432  36.024   7.276  1.00  0.00    -0.217 OA
BRANCH  32  33
HETATM   33  N2  UNL     1      26.189  36.743   8.148  1.00  0.00    -0.210 N
ATOM     34  H2  UNL     1      25.708  37.383   8.780  1.00  0.00     0.215 HD
BRANCH  33  35
HETATM   35  N1  UNL     1      27.452  36.673   8.228  1.00  0.00    -0.326 N
ATOM     36  H12 UNL     1      27.977  37.499   7.941  1.00  0.00     0.178 HD
ATOM     37  H11 UNL     1      27.965  35.854   8.557  1.00  0.00     0.178 HD
ENDBRANCH  33  35
ENDBRANCH  32  33
ENDBRANCH  31  32
BRANCH  31  38
HETATM   38  O2  UNL     1      24.196  37.843   6.778  1.00  0.00    -0.357 OA
ATOM     39  H2  UNL     1      23.286  37.648   6.965  1.00  0.00     0.213 HD
ENDBRANCH  31  38
BRANCH  31  40
HETATM   40  C2  UNL     1      25.920  37.171   5.341  1.00  0.00     0.323 C
BRANCH  40  41
HETATM   41  O3  UNL     1      25.513  37.587   4.092  1.00  0.00    -0.366 OA
ATOM     42  H3  UNL     1      26.073  38.264   3.732  1.00  0.00     0.212 HD
ENDBRANCH  40  41
BRANCH  40  43
HETATM   43  O4  UNL     1      26.971  36.301   5.322  1.00  0.00    -0.366 OA
ATOM     44  H4  UNL     1      27.625  36.496   4.661  1.00  0.00     0.212 HD
ENDBRANCH  40  43
ENDBRANCH  31  40
ENDBRANCH   1  31
BRANCH   1  45
HETATM   45  O5  UNL     1      24.708  34.955   4.740  1.00  0.00    -0.376 OA
ATOM     46  H5  UNL     1      24.274  34.110   4.748  1.00  0.00     0.211 HD
ENDBRANCH   1  45
TORSDOF 15
ENDMDL