MODEL 4
REMARK VINA RESULT: -7.649955208      2.445      3.597
REMARK  12 active torsions:
REMARK  status: ('A' for Active; 'I' for Inactive)
REMARK    1  A    between atoms: N1_1  and  C1_4
REMARK    2  A    between atoms: N5_15  and  C5_16
REMARK    3  A    between atoms: C6_18  and  O3_19
REMARK    4  A    between atoms: C6_18  and  C7_21
REMARK       I    between atoms: C7_21  and  N6_23
REMARK    5  A    between atoms: N6_23  and  C8_25
REMARK    6  A    between atoms: C8_25  and  C9_26
REMARK    7  A    between atoms: C10_29  and  O7_30
REMARK    8  A    between atoms: C10_29  and  O8_32
REMARK    9  A    between atoms: O8_32  and  N7_33
REMARK   10  A    between atoms: N7_33  and  O9_34
REMARK   11  A    between atoms: C11_36  and  O10_37
REMARK   12  A    between atoms: C11_36  and  O11_39
ROOT
HETATM    1  C5  UNL     1      24.853  36.309   5.977  1.00  0.00     0.318 C
HETATM    2  O2  UNL     1      24.596  35.013   5.542  1.00  0.00    -0.310 OA
HETATM    3  C6  UNL     1      23.237  35.024   5.241  1.00  0.00     0.313 C
HETATM    4  C10 UNL     1      22.591  35.768   6.372  1.00  0.00     0.313 C
HETATM    5  C11 UNL     1      23.748  36.506   6.995  1.00  0.00     0.273 C
ENDROOT
BRANCH   1   6
HETATM    6  N5  UNL     1      26.141  36.484   6.561  1.00  0.00    -0.233 N
HETATM    7  C3  UNL     1      27.310  36.613   5.937  1.00  0.00     0.169 A
HETATM    8  C2  UNL     1      27.727  36.629   4.608  1.00  0.00     0.292 A
HETATM    9  C4  UNL     1      28.283  36.759   6.899  1.00  0.00     0.171 A
HETATM   10  N2  UNL     1      29.037  36.784   4.332  1.00  0.00    -0.154 N
HETATM   11  O1  UNL     1      26.841  36.496   3.742  1.00  0.00    -0.265 OA
HETATM   12  C1  UNL     1      29.941  36.922   5.306  1.00  0.00     0.680 A
ATOM     13  H2  UNL     1      29.345  36.795   3.359  1.00  0.00     0.187 HD
HETATM   14  N8  UNL     1      29.575  36.911   6.614  1.00  0.00    -0.173 N
ATOM     15  H8  UNL     1      30.268  37.016   7.355  1.00  0.00     0.186 HD
HETATM   16  N3  UNL     1      27.671  36.716   8.094  1.00  0.00    -0.268 N
HETATM   17  N4  UNL     1      26.389  36.551   7.855  1.00  0.00    -0.236 N
ATOM     18  H3  UNL     1      28.114  36.795   9.008  1.00  0.00     0.190 HD
ATOM     19  H4  UNL     1      25.675  36.483   8.580  1.00  0.00     0.208 HD
BRANCH  12  20
HETATM   20  N1  UNL     1      31.203  37.072   5.079  1.00  0.00    -0.234 N
ATOM     21  H12 UNL     1      31.522  36.785   4.154  1.00  0.00     0.174 HD
ATOM     22  H11 UNL     1      31.850  37.451   5.770  1.00  0.00     0.174 HD
ENDBRANCH  12  20
ENDBRANCH   1   6
BRANCH   5  23
HETATM   23  O10 UNL     1      24.134  35.866   8.172  1.00  0.00    -0.358 OA
ATOM     24  H10 UNL     1      23.749  34.997   8.171  1.00  0.00     0.213 HD
ENDBRANCH   5  23
BRANCH   5  25
HETATM   25  O11 UNL     1      23.535  37.853   7.146  1.00  0.00    -0.358 OA
ATOM     26  H11 UNL     1      22.641  37.982   7.439  1.00  0.00     0.213 HD
ENDBRANCH   5  25
BRANCH   3  27
HETATM   27  O3  UNL     1      23.051  35.747   4.053  1.00  0.00    -0.354 OA
ATOM     28  H3  UNL     1      23.871  35.757   3.576  1.00  0.00     0.213 HD
ENDBRANCH   3  27
BRANCH   3  29
HETATM   29  C7  UNL     1      22.696  33.658   5.075  1.00  0.00     0.287 C
HETATM   30  O4  UNL     1      23.464  32.673   5.072  1.00  0.00    -0.267 OA
HETATM   31  N6  UNL     1      21.299  33.445   4.915  1.00  0.00    -0.346 N
ATOM     32  H6  UNL     1      20.673  34.251   4.917  1.00  0.00     0.163 HD
BRANCH  31  33
HETATM   33  C8  UNL     1      20.739  32.126   4.750  1.00  0.00     0.235 C
BRANCH  33  34
HETATM   34  C9  UNL     1      19.516  32.008   5.546  1.00  0.00     0.191 C
HETATM   35  O5  UNL     1      18.681  32.928   5.588  1.00  0.00    -0.647 OA
HETATM   36  O6  UNL     1      19.297  30.834   6.268  1.00  0.00    -0.647 OA
ENDBRANCH  33  34
ENDBRANCH  31  33
ENDBRANCH   3  29
BRANCH   4  37
HETATM   37  O7  UNL     1      22.078  34.869   7.303  1.00  0.00    -0.355 OA
ATOM     38  H7  UNL     1      21.320  35.245   7.734  1.00  0.00     0.213 HD
ENDBRANCH   4  37
BRANCH   4  39
HETATM   39  O8  UNL     1      21.565  36.601   5.973  1.00  0.00    -0.208 OA
BRANCH  39  40
HETATM   40  N7  UNL     1      20.427  36.202   6.531  1.00  0.00     0.067 NA
BRANCH  40  41
HETATM   41  O9  UNL     1      19.605  35.533   5.704  1.00  0.00    -0.271 OA
ATOM     42  H9  UNL     1      18.882  35.095   6.137  1.00  0.00     0.241 HD
ENDBRANCH  40  41
ENDBRANCH  39  40
ENDBRANCH   4  39
TORSDOF 12
ENDMDL