MODEL 5
REMARK VINA RESULT: -6.890855378      4.432      8.455
REMARK  14 active torsions:
REMARK  status: ('A' for Active; 'I' for Inactive)
REMARK    1  A    between atoms: N1_1  and  C1_4
REMARK    2  A    between atoms: C2_7  and  N3_8
REMARK    3  A    between atoms: N6_16  and  C4_17
REMARK    4  A    between atoms: C5_19  and  C6_20
REMARK    5  A    between atoms: C6_20  and  O2_21
REMARK    6  A    between atoms: C6_20  and  C7_23
REMARK    7  A    between atoms: C7_23  and  O3_24
REMARK    8  A    between atoms: C7_23  and  C8_26
REMARK    9  A    between atoms: C8_26  and  O4_27
REMARK   10  A    between atoms: C9_30  and  O6_31
REMARK   11  A    between atoms: C9_30  and  C10_33
REMARK       I    between atoms: C10_33  and  N7_35
REMARK   12  A    between atoms: N7_35  and  N8_37
REMARK   13  A    between atoms: C11_40  and  O8_41
REMARK   14  A    between atoms: C11_40  and  O9_43
ROOT
HETATM    1  C4  UNL     1      20.087  33.040   4.889  1.00  0.00     0.319 C
HETATM    2  O1  UNL     1      20.867  33.324   5.963  1.00  0.00    -0.326 OA
HETATM    3  C5  UNL     1      21.662  34.415   5.943  1.00  0.00     0.298 C
HETATM    4  O5  UNL     1      22.158  34.832   4.734  1.00  0.00    -0.310 OA
HETATM    5  C9  UNL     1      22.103  33.806   3.808  1.00  0.00     0.312 C
HETATM    6  C11 UNL     1      20.601  33.582   3.578  1.00  0.00     0.275 C
ENDROOT
BRANCH   1   7
HETATM    7  N6  UNL     1      19.902  31.592   4.840  1.00  0.00    -0.224 N
HETATM    8  N5  UNL     1      20.639  30.657   4.319  1.00  0.00    -0.236 N
HETATM    9  N4  UNL     1      20.133  29.468   4.481  1.00  0.00    -0.279 N
ATOM     10  H5  UNL     1      21.519  30.835   3.835  1.00  0.00     0.208 HD
HETATM   11  C3  UNL     1      18.982  29.625   5.156  1.00  0.00     0.140 A
ATOM     12  H4  UNL     1      20.534  28.587   4.159  1.00  0.00     0.189 HD
HETATM   13  C2  UNL     1      18.040  28.734   5.598  1.00  0.00     0.147 A
HETATM   14  C12 UNL     1      18.848  30.979   5.377  1.00  0.00     0.173 A
HETATM   15  N2  UNL     1      16.965  29.144   6.256  1.00  0.00    -0.175 N
HETATM   16  C1  UNL     1      16.828  30.470   6.476  1.00  0.00     0.679 A
ATOM     17  H2  UNL     1      16.265  28.481   6.586  1.00  0.00     0.186 HD
HETATM   18  N9  UNL     1      17.737  31.366   6.052  1.00  0.00    -0.173 N
ATOM     19  H9  UNL     1      17.588  32.358   6.242  1.00  0.00     0.186 HD
BRANCH  13  20
HETATM   20  N3  UNL     1      18.218  27.471   5.363  1.00  0.00    -0.383 N
ATOM     21  H32 UNL     1      18.020  27.115   4.427  1.00  0.00     0.157 HD
ATOM     22  H31 UNL     1      18.552  26.852   6.102  1.00  0.00     0.157 HD
ENDBRANCH  13  20
BRANCH  16  23
HETATM   23  N1  UNL     1      15.775  30.847   7.117  1.00  0.00    -0.234 N
ATOM     24  H12 UNL     1      15.343  30.243   7.816  1.00  0.00     0.174 HD
ATOM     25  H11 UNL     1      15.404  31.770   6.890  1.00  0.00     0.174 HD
ENDBRANCH  16  23
ENDBRANCH   1   7
BRANCH   6  26
HETATM   26  O8  UNL     1      20.056  34.845   3.360  1.00  0.00    -0.357 OA
ATOM     27  H8  UNL     1      19.111  34.796   3.439  1.00  0.00     0.213 HD
ENDBRANCH   6  26
BRANCH   6  28
HETATM   28  O9  UNL     1      20.341  32.797   2.496  1.00  0.00    -0.357 OA
ATOM     29  H9  UNL     1      20.823  33.029   1.710  1.00  0.00     0.213 HD
ENDBRANCH   6  28
BRANCH   3  30
HETATM   30  C6  UNL     1      21.003  35.640   6.595  1.00  0.00     0.204 C
BRANCH  30  31
HETATM   31  O2  UNL     1      21.055  36.735   5.738  1.00  0.00    -0.388 OA
ATOM     32  H2  UNL     1      20.241  36.817   5.254  1.00  0.00     0.210 HD
ENDBRANCH  30  31
BRANCH  30  33
HETATM   33  C7  UNL     1      21.796  35.968   7.846  1.00  0.00     0.175 C
BRANCH  33  34
HETATM   34  O3  UNL     1      21.826  34.773   8.602  1.00  0.00    -0.391 OA
ATOM     35  H3  UNL     1      21.851  35.046   9.511  1.00  0.00     0.210 HD
ENDBRANCH  33  34
BRANCH  33  36
HETATM   36  C8  UNL     1      23.219  36.318   7.543  1.00  0.00     0.198 C
BRANCH  36  37
HETATM   37  O4  UNL     1      23.250  37.653   7.138  1.00  0.00    -0.398 OA
ATOM     38  H4  UNL     1      23.510  38.176   7.888  1.00  0.00     0.209 HD
ENDBRANCH  36  37
ENDBRANCH  33  36
ENDBRANCH  30  33
ENDBRANCH   3  30
BRANCH   5  39
HETATM   39  O6  UNL     1      22.589  32.660   4.466  1.00  0.00    -0.354 OA
ATOM     40  H6  UNL     1      21.947  32.447   5.133  1.00  0.00     0.213 HD
ENDBRANCH   5  39
BRANCH   5  41
HETATM   41  C10 UNL     1      22.842  34.054   2.566  1.00  0.00     0.304 C
HETATM   42  O7  UNL     1      22.314  34.841   1.716  1.00  0.00    -0.265 OA
HETATM   43  N7  UNL     1      24.087  33.453   2.306  1.00  0.00    -0.272 N
ATOM     44  H7  UNL     1      24.518  32.820   2.981  1.00  0.00     0.189 HD
BRANCH  43  45
HETATM   45  N8  UNL     1      24.722  33.755   1.081  1.00  0.00    -0.342 N
ATOM     46  H82 UNL     1      24.845  34.726   0.794  1.00  0.00     0.176 HD
ATOM     47  H81 UNL     1      25.044  32.975   0.507  1.00  0.00     0.176 HD
ENDBRANCH  43  45
ENDBRANCH   5  41
TORSDOF 14
ENDMDL