MODEL 4
REMARK VINA RESULT: -7.680957296      1.690      4.213
REMARK  11 active torsions:
REMARK  status: ('A' for Active; 'I' for Inactive)
REMARK    1  A    between atoms: N1_1  and  O1_4
REMARK    2  A    between atoms: O1_4  and  C1_5
REMARK       I    between atoms: C1_5  and  N2_7
REMARK    3  A    between atoms: N2_7  and  C2_9
REMARK    4  A    between atoms: N4_12  and  C3_13
REMARK    5  A    between atoms: C4_17  and  O3_18
REMARK    6  A    between atoms: N6_22  and  C6_24
REMARK    7  A    between atoms: C7_27  and  C8_28
REMARK       I    between atoms: C8_28  and  N9_30
REMARK    8  A    between atoms: N9_30  and  C9_32
REMARK    9  A    between atoms: C9_32  and  O6_33
REMARK   10  A    between atoms: C9_32  and  C10_35
REMARK   11  A    between atoms: C11_39  and  O10_40
ROOT
HETATM    1  C2  UNL     1      29.436  33.991   6.323  1.00  0.00     0.162 A
HETATM    2  N3  UNL     1      30.262  35.006   6.509  1.00  0.00    -0.275 N
ATOM      3  H3  UNL     1      31.177  34.910   6.949  1.00  0.00     0.189 HD
HETATM    4  N4  UNL     1      29.793  36.135   6.074  1.00  0.00    -0.217 N
HETATM    5  C5  UNL     1      28.554  35.890   5.549  1.00  0.00     0.163 A
HETATM    6  N6  UNL     1      27.882  36.837   5.056  1.00  0.00    -0.332 N
ATOM      7  H6  UNL     1      28.361  37.736   5.104  1.00  0.00     0.165 HD
HETATM    8  C11 UNL     1      28.304  34.548   5.694  1.00  0.00     0.157 A
ENDROOT
BRANCH   4   9
HETATM    9  C3  UNL     1      30.469  37.442   6.134  1.00  0.00     0.461 C
HETATM   10  N5  UNL     1      31.492  37.475   7.186  1.00  0.00     0.021 N
HETATM   11  C4  UNL     1      30.530  38.210   7.974  1.00  0.00     0.475 C
ATOM     12  H52 UNL     1      31.926  36.620   7.535  1.00  0.00     0.288 HD
ATOM     13  H51 UNL     1      32.429  37.839   7.010  1.00  0.00     0.288 HD
HETATM   14  O4  UNL     1      29.748  38.387   6.839  1.00  0.00    -0.287 OA
BRANCH  11  15
HETATM   15  O3  UNL     1      29.939  37.359   8.920  1.00  0.00    -0.349 OA
ATOM     16  H3  UNL     1      29.070  37.107   8.629  1.00  0.00     0.214 HD
ENDBRANCH  11  15
ENDBRANCH   4   9
BRANCH   6  17
HETATM   17  C6  UNL     1      26.616  36.918   4.456  1.00  0.00     0.340 C
HETATM   18  N7  UNL     1      26.287  38.269   3.998  1.00  0.00    -0.092 NA
HETATM   19  N8  UNL     1      24.920  38.449   4.218  1.00  0.00    -0.102 NA
HETATM   20  C7  UNL     1      24.477  37.120   4.581  1.00  0.00     0.326 C
HETATM   21  O9  UNL     1      25.557  36.685   5.367  1.00  0.00    -0.319 OA
BRANCH  20  22
HETATM   22  C8  UNL     1      23.223  37.192   5.315  1.00  0.00     0.266 C
HETATM   23  O5  UNL     1      22.328  37.992   4.965  1.00  0.00    -0.269 OA
HETATM   24  N9  UNL     1      23.002  36.359   6.432  1.00  0.00    -0.323 N
ATOM     25  H9  UNL     1      23.729  35.706   6.721  1.00  0.00     0.165 HD
BRANCH  24  26
HETATM   26  C9  UNL     1      21.764  36.417   7.173  1.00  0.00     0.323 C
BRANCH  26  27
HETATM   27  O6  UNL     1      20.711  35.946   6.373  1.00  0.00    -0.367 OA
ATOM     28  H6  UNL     1      20.380  35.129   6.729  1.00  0.00     0.212 HD
ENDBRANCH  26  27
BRANCH  26  29
HETATM   29  C10 UNL     1      21.912  35.560   8.365  1.00  0.00     0.224 C
HETATM   30  O7  UNL     1      22.902  34.815   8.464  1.00  0.00    -0.645 OA
HETATM   31  O8  UNL     1      20.966  35.588   9.358  1.00  0.00    -0.645 OA
ENDBRANCH  26  29
ENDBRANCH  24  26
ENDBRANCH  20  22
ENDBRANCH   6  17
BRANCH   8  32
HETATM   32  O10 UNL     1      27.182  33.826   5.314  1.00  0.00    -0.354 OA
ATOM     33  H10 UNL     1      26.752  33.906   4.471  1.00  0.00     0.218 HD
ENDBRANCH   8  32
BRANCH   1  34
HETATM   34  N2  UNL     1      29.570  32.620   6.651  1.00  0.00    -0.283 N
HETATM   35  C1  UNL     1      30.323  32.133   7.749  1.00  0.00     0.388 C
HETATM   36  O2  UNL     1      30.960  32.836   8.566  1.00  0.00    -0.236 OA
ATOM     37  H2  UNL     1      29.096  31.939   6.058  1.00  0.00     0.172 HD
BRANCH  35  38
HETATM   38  O1  UNL     1      30.402  30.743   8.000  1.00  0.00    -0.188 OA
BRANCH  38  39
HETATM   39  N1  UNL     1      29.628  30.134   8.943  1.00  0.00    -0.301 N
ATOM     40  H12 UNL     1      28.718  29.773   8.656  1.00  0.00     0.184 HD
ATOM     41  H11 UNL     1      29.935  30.033   9.911  1.00  0.00     0.184 HD
ENDBRANCH  38  39
ENDBRANCH  35  38
ENDBRANCH   1  34
TORSDOF 11
ENDMDL