MODEL 5
REMARK VINA RESULT: -7.832016438      6.187     10.149
REMARK  13 active torsions:
REMARK  status: ('A' for Active; 'I' for Inactive)
REMARK    1  A    between atoms: N2_5  and  N3_6
REMARK    2  A    between atoms: C3_9  and  C4_10
REMARK    3  A    between atoms: C4_10  and  O2_11
REMARK    4  A    between atoms: C4_10  and  O3_13
REMARK    5  A    between atoms: C6_18  and  C7_19
REMARK    6  A    between atoms: C7_19  and  N5_20
REMARK    7  A    between atoms: N6_22  and  N7_24
REMARK    8  A    between atoms: N7_24  and  C8_26
REMARK    9  A    between atoms: C8_26  and  C9_27
REMARK   10  A    between atoms: C8_26  and  C10_30
REMARK   11  A    between atoms: C10_30  and  O6_31
REMARK   12  A    between atoms: C11_36  and  O7_37
REMARK   13  A    between atoms: N9_39  and  N10_40
ROOT
HETATM    1  N5  UNL     1      20.460  33.716   4.106  1.00  0.00    -0.315 N
ATOM      2  H5  UNL     1      20.118  33.464   3.179  1.00  0.00     0.182 HD
HETATM    3  N6  UNL     1      20.564  34.923   4.398  1.00  0.00    -0.250 N
ATOM      4  H6  UNL     1      20.300  35.604   3.686  1.00  0.00     0.207 HD
ENDROOT
BRANCH   1   5
HETATM    5  C7  UNL     1      20.804  32.657   5.031  1.00  0.00     0.217 C
BRANCH   5   6
HETATM    6  C6  UNL     1      19.919  31.482   4.848  1.00  0.00     0.102 A
HETATM    7  N4  UNL     1      19.392  30.800   5.878  1.00  0.00    -0.341 N
HETATM    8  C5  UNL     1      18.640  29.797   5.393  1.00  0.00     0.092 A
ATOM      9  H4  UNL     1      19.539  31.008   6.866  1.00  0.00     0.167 HD
HETATM   10  C3  UNL     1      17.877  28.795   5.942  1.00  0.00     0.120 A
HETATM   11  C12 UNL     1      18.707  29.862   4.001  1.00  0.00     0.093 A
HETATM   12  N2  UNL     1      17.198  27.884   5.223  1.00  0.00    -0.222 N
HETATM   13  C2  UNL     1      17.257  27.941   3.888  1.00  0.00     0.293 A
HETATM   14  C1  UNL     1      18.006  28.923   3.276  1.00  0.00     0.145 A
HETATM   15  O1  UNL     1      16.622  27.090   3.199  1.00  0.00    -0.264 OA
HETATM   16  N1  UNL     1      18.045  28.952   1.857  1.00  0.00    -0.094 NA
HETATM   17  N11 UNL     1      19.498  30.906   3.698  1.00  0.00    -0.341 N
ATOM     18  H11 UNL     1      19.742  31.213   2.757  1.00  0.00     0.167 HD
BRANCH  10  19
HETATM   19  C4  UNL     1      17.787  28.699   7.431  1.00  0.00     0.309 C
BRANCH  19  20
HETATM   20  O2  UNL     1      17.065  29.761   7.961  1.00  0.00    -0.366 OA
ATOM     21  H2  UNL     1      16.132  29.580   7.957  1.00  0.00     0.213 HD
ENDBRANCH  19  20
BRANCH  19  22
HETATM   22  O3  UNL     1      19.066  28.624   7.941  1.00  0.00    -0.366 OA
ATOM     23  H3  UNL     1      19.054  28.051   8.698  1.00  0.00     0.213 HD
ENDBRANCH  19  22
ENDBRANCH  10  19
BRANCH  12  24
HETATM   24  N3  UNL     1      16.444  26.895   5.832  1.00  0.00    -0.335 N
ATOM     25  H32 UNL     1      15.431  26.850   5.721  1.00  0.00     0.177 HD
ATOM     26  H31 UNL     1      16.909  26.191   6.406  1.00  0.00     0.177 HD
ENDBRANCH  12  24
ENDBRANCH   5   6
ENDBRANCH   1   5
BRANCH   3  27
HETATM   27  N7  UNL     1      21.016  35.414   5.626  1.00  0.00    -0.301 N
ATOM     28  H7  UNL     1      21.117  34.764   6.406  1.00  0.00     0.183 HD
BRANCH  27  29
HETATM   29  C8  UNL     1      21.347  36.810   5.839  1.00  0.00     0.282 C
BRANCH  29  30
HETATM   30  C9  UNL     1      21.658  37.414   4.550  1.00  0.00     0.204 C
HETATM   31  O4  UNL     1      20.755  37.954   3.870  1.00  0.00    -0.646 OA
HETATM   32  O5  UNL     1      22.950  37.410   4.047  1.00  0.00    -0.646 OA
ENDBRANCH  29  30
BRANCH  29  33
HETATM   33  C10 UNL     1      22.450  36.860   6.843  1.00  0.00     0.342 C
HETATM   34  N8  UNL     1      23.317  35.681   6.663  1.00  0.00     0.017 N
HETATM   35  C11 UNL     1      23.378  35.531   8.108  1.00  0.00     0.428 C
ATOM     36  H82 UNL     1      23.014  34.904   6.077  1.00  0.00     0.287 HD
ATOM     37  H81 UNL     1      24.174  35.751   6.115  1.00  0.00     0.287 HD
HETATM   38  N9  UNL     1      22.234  36.435   8.162  1.00  0.00    -0.122 NA
BRANCH  33  39
HETATM   39  O6  UNL     1      23.223  38.013   6.759  1.00  0.00    -0.349 OA
ATOM     40  H6  UNL     1      23.691  38.213   7.562  1.00  0.00     0.214 HD
ENDBRANCH  33  39
BRANCH  35  41
HETATM   41  O7  UNL     1      24.535  36.061   8.626  1.00  0.00    -0.357 OA
ATOM     42  H7  UNL     1      24.388  36.918   9.011  1.00  0.00     0.213 HD
ENDBRANCH  35  41
BRANCH  38  43
HETATM   43  N10 UNL     1      21.039  35.812   8.490  1.00  0.00    -0.356 NA
ATOM     44 2H10 UNL     1      20.891  35.699   9.494  1.00  0.00     0.171 HD
ATOM     45 1H10 UNL     1      20.936  34.809   8.330  1.00  0.00     0.171 HD
ENDBRANCH  38  43
ENDBRANCH  29  33
ENDBRANCH  27  29
ENDBRANCH   3  27
TORSDOF 13
ENDMDL