MODEL 4
REMARK VINA RESULT: -6.946883936      3.141      5.880
REMARK  13 active torsions:
REMARK  status: ('A' for Active; 'I' for Inactive)
REMARK    1  A    between atoms: N1_1  and  C1_4
REMARK    2  A    between atoms: C4_12  and  N4_13
REMARK    3  A    between atoms: N4_13  and  C5_15
REMARK    4  A    between atoms: C6_17  and  C7_18
REMARK    5  A    between atoms: C7_18  and  O3_19
REMARK    6  A    between atoms: C8_21  and  O4_22
REMARK    7  A    between atoms: C9_24  and  O5_25
REMARK    8  A    between atoms: C9_24  and  C10_27
REMARK    9  A    between atoms: C10_27  and  O6_28
REMARK   10  A    between atoms: C11_30  and  N5_31
REMARK   11  A    between atoms: N5_31  and  N6_33
REMARK   12  A    between atoms: N6_33  and  C12_35
REMARK   13  A    between atoms: N9_41  and  N10_42
ROOT
HETATM    1  C1  UNL     1      21.871  31.906  -0.390  1.00  0.00     0.679 A
HETATM    2  N2  UNL     1      22.444  30.843   0.193  1.00  0.00    -0.154 N
ATOM      3  H2  UNL     1      22.560  29.959  -0.303  1.00  0.00     0.187 HD
HETATM    4  C2  UNL     1      22.858  30.997   1.461  1.00  0.00     0.288 A
HETATM    5  O1  UNL     1      23.410  30.051   2.097  1.00  0.00    -0.265 OA
HETATM    6  C3  UNL     1      22.703  32.198   2.136  1.00  0.00     0.133 A
HETATM    7  N3  UNL     1      23.024  32.586   3.363  1.00  0.00    -0.334 N
ATOM      8  H3  UNL     1      23.480  31.979   4.044  1.00  0.00     0.168 HD
HETATM    9  C4  UNL     1      22.685  33.867   3.613  1.00  0.00     0.135 A
HETATM   10  C11 UNL     1      22.100  34.310   2.427  1.00  0.00     0.122 A
HETATM   11  C14 UNL     1      22.118  33.271   1.528  1.00  0.00     0.113 A
HETATM   12  N11 UNL     1      21.706  33.096   0.249  1.00  0.00    -0.187 N
ATOM     13  H11 UNL     1      21.263  33.871  -0.244  1.00  0.00     0.184 HD
ENDROOT
BRANCH   9  14
HETATM   14  N4  UNL     1      22.879  34.656   4.780  1.00  0.00    -0.345 N
ATOM     15  H4  UNL     1      23.660  35.312   4.758  1.00  0.00     0.163 HD
BRANCH  14  16
HETATM   16  C5  UNL     1      22.107  34.632   5.974  1.00  0.00     0.262 C
HETATM   17  O2  UNL     1      22.965  34.288   7.029  1.00  0.00    -0.353 OA
HETATM   18  C6  UNL     1      23.215  35.386   7.789  1.00  0.00     0.179 C
HETATM   19  C8  UNL     1      22.212  36.444   7.494  1.00  0.00     0.190 C
HETATM   20  C9  UNL     1      21.389  35.845   6.381  1.00  0.00     0.150 C
BRANCH  18  21
HETATM   21  C7  UNL     1      24.617  35.962   7.535  1.00  0.00     0.198 C
BRANCH  21  22
HETATM   22  O3  UNL     1      25.231  36.365   8.695  1.00  0.00    -0.398 OA
ATOM     23  H3  UNL     1      25.878  35.738   8.996  1.00  0.00     0.209 HD
ENDBRANCH  21  22
ENDBRANCH  18  21
BRANCH  19  24
HETATM   24  O4  UNL     1      22.840  37.626   7.110  1.00  0.00    -0.390 OA
ATOM     25  H4  UNL     1      22.207  38.249   6.773  1.00  0.00     0.210 HD
ENDBRANCH  19  24
BRANCH  20  26
HETATM   26  O5  UNL     1      20.172  35.435   6.988  1.00  0.00    -0.380 OA
ATOM     27  H5  UNL     1      19.463  35.825   6.493  1.00  0.00     0.211 HD
ENDBRANCH  20  26
BRANCH  20  28
HETATM   28  C10 UNL     1      21.001  36.848   5.355  1.00  0.00     0.209 C
BRANCH  28  29
HETATM   29  O6  UNL     1      21.978  37.292   4.515  1.00  0.00    -0.398 OA
ATOM     30  H6  UNL     1      21.928  38.196   4.229  1.00  0.00     0.209 HD
ENDBRANCH  28  29
ENDBRANCH  20  28
ENDBRANCH  14  16
ENDBRANCH   9  14
BRANCH  10  31
HETATM   31  N5  UNL     1      21.581  35.601   2.198  1.00  0.00    -0.281 N
ATOM     32  H5  UNL     1      22.256  36.365   2.175  1.00  0.00     0.188 HD
BRANCH  31  33
HETATM   33  N6  UNL     1      20.265  35.941   2.004  1.00  0.00    -0.128 N
ATOM     34  H6  UNL     1      19.554  35.261   2.271  1.00  0.00     0.205 HD
BRANCH  33  35
HETATM   35  C12 UNL     1      19.827  37.177   1.455  1.00  0.00     0.733 A
HETATM   36  N7  UNL     1      20.414  38.349   1.701  1.00  0.00    -0.128 N
HETATM   37  N8  UNL     1      19.772  39.295   1.048  1.00  0.00    -0.279 N
ATOM     38  H7  UNL     1      21.228  38.491   2.299  1.00  0.00     0.205 HD
HETATM   39  C13 UNL     1      18.761  38.739   0.373  1.00  0.00     0.241 A
ATOM     40  H8  UNL     1      20.007  40.287   1.055  1.00  0.00     0.188 HD
HETATM   41  N9  UNL     1      18.808  37.404   0.638  1.00  0.00    -0.085 N
BRANCH  41  42
HETATM   42  N10 UNL     1      17.926  36.455   0.129  1.00  0.00    -0.323 N
ATOM     43 2H10 UNL     1      18.100  35.450   0.098  1.00  0.00     0.178 HD
ATOM     44 1H10 UNL     1      17.006  36.635  -0.274  1.00  0.00     0.178 HD
ENDBRANCH  41  42
ENDBRANCH  33  35
ENDBRANCH  31  33
ENDBRANCH  10  31
BRANCH   1  45
HETATM   45  N1  UNL     1      21.457  31.805  -1.608  1.00  0.00    -0.234 N
ATOM     46  H12 UNL     1      21.851  31.066  -2.192  1.00  0.00     0.174 HD
ATOM     47  H11 UNL     1      20.754  32.461  -1.948  1.00  0.00     0.174 HD
ENDBRANCH   1  45
TORSDOF 13
ENDMDL