MODEL 3
REMARK VINA RESULT: -6.585747571      1.445      3.470
REMARK  12 active torsions:
REMARK  status: ('A' for Active; 'I' for Inactive)
REMARK    1  A    between atoms: N1_1  and  C1_4
REMARK    2  A    between atoms: C2_7  and  N3_8
REMARK    3  A    between atoms: N5_15  and  C5_16
REMARK    4  A    between atoms: C6_17  and  O1_18
REMARK    5  A    between atoms: O1_18  and  C7_19
REMARK    6  A    between atoms: C7_19  and  C8_20
REMARK    7  A    between atoms: C7_19  and  C10_29
REMARK    8  A    between atoms: C10_29  and  N10_30
REMARK    9  A    between atoms: C10_29  and  N11_34
REMARK   10  A    between atoms: C11_42  and  C12_43
REMARK   11  A    between atoms: C12_43  and  O2_44
REMARK   12  A    between atoms: C13_46  and  O3_47
ROOT
HETATM    1  C5  UNL     1      21.897  36.860   2.821  1.00  0.00     0.199 C
HETATM    2  C6  UNL     1      21.357  35.486   2.731  1.00  0.00     0.159 C
HETATM    3  N12 UNL     1      20.504  35.257   1.791  1.00  0.00    -0.285 N
ATOM      4  H12 UNL     1      20.084  34.337   1.661  1.00  0.00     0.188 HD
HETATM    5  N13 UNL     1      20.188  36.332   0.965  1.00  0.00    -0.325 N
ATOM      6  H13 UNL     1      20.171  36.239  -0.051  1.00  0.00     0.180 HD
HETATM    7  C11 UNL     1      19.881  37.589   1.620  1.00  0.00     0.154 C
HETATM    8  C13 UNL     1      20.762  37.845   2.824  1.00  0.00     0.175 C
ENDROOT
BRANCH   2   9
HETATM    9  O1  UNL     1      21.659  34.431   3.532  1.00  0.00    -0.319 OA
BRANCH   9  10
HETATM   10  C7  UNL     1      21.023  34.014   4.678  1.00  0.00     0.256 C
BRANCH  10  11
HETATM   11  C8  UNL     1      21.205  34.760   5.918  1.00  0.00     0.132 A
HETATM   12  N6  UNL     1      20.397  35.686   6.505  1.00  0.00    -0.284 N
HETATM   13  N7  UNL     1      20.891  36.147   7.613  1.00  0.00    -0.272 N
ATOM     14  H6  UNL     1      19.502  35.985   6.117  1.00  0.00     0.188 HD
HETATM   15  C9  UNL     1      22.059  35.538   7.805  1.00  0.00     0.208 A
ATOM     16  H7  UNL     1      20.465  36.845   8.222  1.00  0.00     0.189 HD
HETATM   17  N8  UNL     1      22.922  35.765   8.913  1.00  0.00    -0.062 NA
HETATM   18  N9  UNL     1      22.251  34.683   6.761  1.00  0.00    -0.316 N
ATOM     19  H9  UNL     1      23.063  34.079   6.638  1.00  0.00     0.170 HD
ENDBRANCH  10  11
BRANCH  10  20
HETATM   20  C10 UNL     1      21.539  32.583   4.894  1.00  0.00     0.414 C
BRANCH  20  21
HETATM   21  N10 UNL     1      22.708  32.314   4.139  1.00  0.00    -0.047 N
ATOM     22 3H10 UNL     1      23.076  33.166   3.712  1.00  0.00     0.276 HD
ATOM     23 2H10 UNL     1      23.495  32.084   4.746  1.00  0.00     0.276 HD
ATOM     24 1H10 UNL     1      22.558  31.587   3.439  1.00  0.00     0.276 HD
ENDBRANCH  20  21
BRANCH  20  25
HETATM   25  N11 UNL     1      20.439  31.677   4.712  1.00  0.00    -0.047 N
ATOM     26 3H11 UNL     1      20.033  31.369   5.595  1.00  0.00     0.276 HD
ATOM     27 2H11 UNL     1      19.610  32.136   4.333  1.00  0.00     0.276 HD
ATOM     28 1H11 UNL     1      20.759  30.900   4.133  1.00  0.00     0.276 HD
ENDBRANCH  20  25
ENDBRANCH  10  20
ENDBRANCH   9  10
ENDBRANCH   2   9
BRANCH   1  29
HETATM   29  N5  UNL     1      22.790  37.036   3.944  1.00  0.00    -0.311 N
HETATM   30  C4  UNL     1      22.649  37.950   4.915  1.00  0.00     0.186 A
HETATM   31  N4  UNL     1      23.680  37.777   5.755  1.00  0.00    -0.346 N
HETATM   32  C3  UNL     1      24.475  36.781   5.350  1.00  0.00     0.123 A
ATOM     33  H4  UNL     1      23.837  38.334   6.594  1.00  0.00     0.167 HD
HETATM   34  C2  UNL     1      25.641  36.236   5.872  1.00  0.00     0.145 A
HETATM   35  C14 UNL     1      23.898  36.314   4.192  1.00  0.00     0.155 A
HETATM   36  N2  UNL     1      26.192  35.219   5.194  1.00  0.00    -0.175 N
HETATM   37  C1  UNL     1      25.624  34.767   4.065  1.00  0.00     0.679 A
ATOM     38  H2  UNL     1      27.049  34.786   5.539  1.00  0.00     0.186 HD
HETATM   39  N14 UNL     1      24.502  35.281   3.549  1.00  0.00    -0.174 N
ATOM     40  H14 UNL     1      24.107  34.905   2.687  1.00  0.00     0.186 HD
BRANCH  34  41
HETATM   41  N3  UNL     1      26.170  36.683   6.955  1.00  0.00    -0.383 N
ATOM     42  H32 UNL     1      25.917  37.594   7.337  1.00  0.00     0.157 HD
ATOM     43  H31 UNL     1      26.864  36.141   7.470  1.00  0.00     0.157 HD
ENDBRANCH  34  41
BRANCH  37  44
HETATM   44  N1  UNL     1      26.189  33.784   3.441  1.00  0.00    -0.234 N
ATOM     45  H12 UNL     1      25.926  32.833   3.703  1.00  0.00     0.174 HD
ATOM     46  H11 UNL     1      26.872  33.998   2.714  1.00  0.00     0.174 HD
ENDBRANCH  37  44
ENDBRANCH   1  29
BRANCH   8  47
HETATM   47  O3  UNL     1      20.100  37.739   4.023  1.00  0.00    -0.391 OA
ATOM     48  H3  UNL     1      20.468  37.007   4.505  1.00  0.00     0.210 HD
ENDBRANCH   8  47
BRANCH   7  49
HETATM   49  C12 UNL     1      19.930  38.726   0.647  1.00  0.00     0.193 C
BRANCH  49  50
HETATM   50  O2  UNL     1      18.984  39.673   1.014  1.00  0.00    -0.399 OA
ATOM     51  H2  UNL     1      18.117  39.294   0.922  1.00  0.00     0.209 HD
ENDBRANCH  49  50
ENDBRANCH   7  49
TORSDOF 12
ENDMDL