MODEL 2
REMARK VINA RESULT: -7.067705814      3.434      6.358
REMARK  10 active torsions:
REMARK  status: ('A' for Active; 'I' for Inactive)
REMARK    1  A    between atoms: C2_2  and  C4_12
REMARK    2  A    between atoms: N1_3  and  N2_5
REMARK       I    between atoms: N2_5  and  C3_7
REMARK    3  A    between atoms: C4_12  and  O2_14
REMARK    4  A    between atoms: O2_14  and  C5_15
REMARK    5  A    between atoms: C5_15  and  C7_17
REMARK    6  A    between atoms: C7_17  and  N7_25
REMARK    7  A    between atoms: N5_18  and  O3_20
REMARK    8  A    between atoms: O3_20  and  N6_21
REMARK    9  A    between atoms: N6_21  and  O4_23
REMARK   10  A    between atoms: N7_25  and  C8_27
ROOT
HETATM    1  C7  UNL     1      20.850  40.890  -1.804  1.00  0.00     0.129 C
HETATM    2  N5  UNL     1      21.032  39.805  -1.142  1.00  0.00    -0.225 N
ATOM      3  H5  UNL     1      21.747  39.809  -0.414  1.00  0.00     0.198 HD
ENDROOT
BRANCH   1   4
HETATM    4  C5  UNL     1      21.644  42.115  -1.536  1.00  0.00     0.197 C
HETATM    5  C6  UNL     1      23.017  42.093  -2.128  1.00  0.00     0.048 C
BRANCH   4   6
HETATM    6  O2  UNL     1      20.887  43.204  -2.046  1.00  0.00    -0.304 OA
BRANCH   6   7
HETATM    7  C4  UNL     1      19.986  43.858  -1.255  1.00  0.00     0.307 C
HETATM    8  O1  UNL     1      20.105  43.820  -0.008  1.00  0.00    -0.258 OA
BRANCH   7   9
HETATM    9  C2  UNL     1      18.884  44.602  -1.833  1.00  0.00     0.097 C
HETATM   10  C1  UNL     1      19.081  46.066  -2.086  1.00  0.00     0.076 C
HETATM   11  N1  UNL     1      17.787  44.010  -2.108  1.00  0.00    -0.297 N
ATOM     12  H1  UNL     1      17.029  44.561  -2.510  1.00  0.00     0.187 HD
BRANCH  11  13
HETATM   13  N2  UNL     1      17.567  42.652  -1.887  1.00  0.00    -0.274 N
HETATM   14  C3  UNL     1      16.272  42.066  -1.975  1.00  0.00     0.200 C
HETATM   15  N3  UNL     1      16.068  40.930  -1.432  1.00  0.00    -0.372 N
HETATM   16  N4  UNL     1      15.212  42.729  -2.657  1.00  0.00    -0.062 NA
ATOM     17  H32 UNL     1      16.828  40.455  -0.944  1.00  0.00     0.158 HD
ATOM     18  H31 UNL     1      15.141  40.510  -1.495  1.00  0.00     0.158 HD
ATOM     19  H2  UNL     1      18.362  42.056  -1.655  1.00  0.00     0.189 HD
ENDBRANCH  11  13
ENDBRANCH   7   9
ENDBRANCH   6   7
ENDBRANCH   4   6
ENDBRANCH   1   4
BRANCH   1  20
HETATM   20  N7  UNL     1      19.874  40.904  -2.824  1.00  0.00    -0.371 N
ATOM     21  H7  UNL     1      18.893  40.993  -2.556  1.00  0.00     0.161 HD
BRANCH  20  22
HETATM   22  C8  UNL     1      20.193  40.800  -4.212  1.00  0.00     0.087 C
HETATM   23  C9  UNL     1      19.499  41.910  -4.959  1.00  0.00     0.031 C
HETATM   24  C10 UNL     1      19.793  41.845  -6.444  1.00  0.00     0.060 C
HETATM   25  C11 UNL     1      19.215  40.557  -6.924  1.00  0.00     0.027 A
HETATM   26  C12 UNL     1      19.229  39.490  -6.087  1.00  0.00     0.035 A
HETATM   27  N9  UNL     1      18.703  40.533  -8.185  1.00  0.00    -0.307 N
HETATM   28  C13 UNL     1      18.683  38.290  -6.551  1.00  0.00     0.257 A
HETATM   29  C16 UNL     1      19.761  39.438  -4.710  1.00  0.00     0.071 C
HETATM   30  O5  UNL     1      18.653  37.249  -5.849  1.00  0.00    -0.267 OA
HETATM   31  N8  UNL     1      18.181  38.273  -7.796  1.00  0.00    -0.275 N
HETATM   32  C14 UNL     1      18.188  39.365  -8.599  1.00  0.00     0.329 A
ATOM     33  H8  UNL     1      17.780  37.405  -8.152  1.00  0.00     0.173 HD
HETATM   34  O6  UNL     1      17.710  39.329  -9.765  1.00  0.00    -0.246 OA
HETATM   35  C15 UNL     1      18.743  41.726  -8.982  1.00  0.00     0.161 C
ENDBRANCH  20  22
ENDBRANCH   1  20
BRANCH   2  36
HETATM   36  O3  UNL     1      20.339  38.646  -1.339  1.00  0.00    -0.134 OA
BRANCH  36  37
HETATM   37  N6  UNL     1      19.166  38.390  -0.636  1.00  0.00    -0.149 N
ATOM     38  H6  UNL     1      19.204  37.853   0.230  1.00  0.00     0.226 HD
BRANCH  37  39
HETATM   39  O4  UNL     1      18.080  38.806  -1.048  1.00  0.00    -0.268 OA
ATOM     40  H4  UNL     1      17.451  38.213  -1.442  1.00  0.00     0.246 HD
ENDBRANCH  37  39
ENDBRANCH  36  37
ENDBRANCH   2  36
TORSDOF 10
ENDMDL