MODEL 4
REMARK VINA RESULT: -6.901992082      1.673      2.988
REMARK  7 active torsions:
REMARK  status: ('A' for Active; 'I' for Inactive)
REMARK    1  A    between atoms: C2_3  and  C3_4
REMARK    2  A    between atoms: C3_4  and  S1_5
REMARK    3  A    between atoms: S1_5  and  C4_6
REMARK    4  A    between atoms: C6_13  and  N4_14
REMARK    5  A    between atoms: C8_18  and  N5_19
REMARK       I    between atoms: N6_23  and  C10_24
REMARK    6  A    between atoms: C11_29  and  C12_30
REMARK    7  A    between atoms: C13_33  and  N9_34
ROOT
HETATM    1  N1  UNL     1      17.931  48.693  -3.849  1.00  0.00    -0.196 NA
HETATM    2  C1  UNL     1      16.925  48.315  -3.453  1.00  0.00     0.074 C
HETATM    3  C2  UNL     1      15.613  47.847  -2.947  1.00  0.00     0.104 C
HETATM    4  C9  UNL     1      14.770  47.405  -4.128  1.00  0.00     0.154 C
HETATM    5  N6  UNL     1      13.696  48.348  -4.256  1.00  0.00    -0.337 N
HETATM    6  C10 UNL     1      12.849  48.450  -5.375  1.00  0.00     0.184 C
HETATM    7  N7  UNL     1      12.283  47.378  -5.812  1.00  0.00    -0.374 N
ATOM      8  H71 UNL     1      11.670  47.452  -6.623  1.00  0.00     0.158 HD
ATOM      9  H72 UNL     1      12.423  46.464  -5.381  1.00  0.00     0.158 HD
HETATM   10  N8  UNL     1      12.653  49.725  -5.976  1.00  0.00    -0.064 NA
HETATM   11  C11 UNL     1      13.593  49.182  -3.084  1.00  0.00     0.220 C
HETATM   12  C13 UNL     1      14.889  48.936  -2.304  1.00  0.00     0.241 C
ENDROOT
BRANCH   3  13
HETATM   13  C3  UNL     1      15.897  46.622  -2.126  1.00  0.00     0.109 C
BRANCH  13  14
HETATM   14  S1  UNL     1      17.077  45.676  -3.135  1.00  0.00    -0.108 SA
BRANCH  14  15
HETATM   15  C4  UNL     1      17.359  44.046  -2.495  1.00  0.00     0.104 A
HETATM   16  N2  UNL     1      16.376  43.151  -2.328  1.00  0.00    -0.333 N
HETATM   17  C5  UNL     1      16.631  41.903  -1.832  1.00  0.00     0.133 A
ATOM     18  H2  UNL     1      15.420  43.405  -2.576  1.00  0.00     0.168 HD
HETATM   19  N3  UNL     1      15.678  41.047  -1.675  1.00  0.00    -0.383 N
HETATM   20  C6  UNL     1      17.900  41.496  -1.478  1.00  0.00     0.148 A
ATOM     21  H32 UNL     1      14.739  41.348  -1.937  1.00  0.00     0.157 HD
ATOM     22  H31 UNL     1      15.868  40.116  -1.304  1.00  0.00     0.157 HD
HETATM   23  C7  UNL     1      18.921  42.407  -1.645  1.00  0.00     0.079 A
HETATM   24  C8  UNL     1      18.640  43.678  -2.153  1.00  0.00     0.138 A
BRANCH  20  25
HETATM   25  N4  UNL     1      18.142  40.180  -0.959  1.00  0.00    -0.112 N
HETATM   26  O1  UNL     1      17.499  39.733  -0.007  1.00  0.00    -0.532 OA
HETATM   27  O2  UNL     1      19.107  39.412  -1.536  1.00  0.00    -0.532 OA
ENDBRANCH  20  25
BRANCH  24  28
HETATM   28  N5  UNL     1      19.762  44.545  -2.288  1.00  0.00    -0.113 N
HETATM   29  O3  UNL     1      20.423  44.484  -3.341  1.00  0.00    -0.532 OA
HETATM   30  O4  UNL     1      20.119  45.431  -1.293  1.00  0.00    -0.532 OA
ENDBRANCH  24  28
ENDBRANCH  14  15
ENDBRANCH  13  14
ENDBRANCH   3  13
BRANCH  12  31
HETATM   31  N9  UNL     1      14.595  48.793  -0.908  1.00  0.00    -0.071 N
ATOM     32  H93 UNL     1      13.939  49.520  -0.623  1.00  0.00     0.274 HD
ATOM     33  H92 UNL     1      14.026  47.958  -0.765  1.00  0.00     0.274 HD
ATOM     34  H91 UNL     1      15.386  48.778  -0.264  1.00  0.00     0.274 HD
ENDBRANCH  12  31
BRANCH  11  35
HETATM   35  C12 UNL     1      12.410  48.900  -2.278  1.00  0.00     0.199 C
HETATM   36  O5  UNL     1      11.985  47.735  -2.147  1.00  0.00    -0.646 OA
HETATM   37  O6  UNL     1      11.750  49.934  -1.650  1.00  0.00    -0.646 OA
ENDBRANCH  11  35
TORSDOF 7
ENDMDL