MODEL 2
REMARK VINA RESULT: -6.946585605      1.192      1.495
REMARK  9 active torsions:
REMARK  status: ('A' for Active; 'I' for Inactive)
REMARK    1  A    between atoms: N1_2  and  C2_4
REMARK    2  A    between atoms: C2_4  and  C3_5
REMARK    3  A    between atoms: C2_4  and  C15_37
REMARK    4  A    between atoms: C3_5  and  S1_6
REMARK    5  A    between atoms: S1_6  and  C4_7
REMARK    6  A    between atoms: C4_7  and  C5_8
REMARK    7  A    between atoms: C6_11  and  C7_12
REMARK    8  A    between atoms: C9_16  and  N4_17
REMARK    9  A    between atoms: C10_22  and  N6_23
ROOT
HETATM    1  C5  UNL     1      20.488  43.459  -1.590  1.00  0.00     0.070 A
HETATM    2  N2  UNL     1      19.426  43.908  -2.216  1.00  0.00    -0.339 N
ATOM      3  H2  UNL     1      19.075  43.381  -3.015  1.00  0.00     0.167 HD
HETATM    4  C6  UNL     1      18.783  45.021  -1.860  1.00  0.00     0.121 A
HETATM    5  N7  UNL     1      19.256  45.754  -0.763  1.00  0.00    -0.340 N
ATOM      6  H7  UNL     1      18.764  46.603  -0.482  1.00  0.00     0.167 HD
HETATM    7  C11 UNL     1      20.340  45.369  -0.073  1.00  0.00     0.069 A
HETATM    8  C12 UNL     1      20.762  46.025   1.052  1.00  0.00     0.107 A
HETATM    9  C13 UNL     1      21.870  45.461   1.756  1.00  0.00     0.261 A
HETATM   10  O1  UNL     1      22.221  46.076   2.780  1.00  0.00    -0.267 OA
HETATM   11  N8  UNL     1      22.466  44.334   1.320  1.00  0.00    -0.266 N
ATOM     12  H8  UNL     1      23.259  43.943   1.830  1.00  0.00     0.190 HD
HETATM   13  N9  UNL     1      22.021  43.737   0.230  1.00  0.00    -0.293 N
ATOM     14  H9  UNL     1      22.481  42.886  -0.093  1.00  0.00     0.187 HD
HETATM   15  C14 UNL     1      20.959  44.229  -0.478  1.00  0.00     0.102 A
ENDROOT
BRANCH   1  16
HETATM   16  C4  UNL     1      21.431  42.328  -1.796  1.00  0.00     0.077 C
BRANCH  16  17
HETATM   17  S1  UNL     1      21.490  41.355  -3.119  1.00  0.00    -0.133 SA
BRANCH  17  18
HETATM   18  C3  UNL     1      20.605  40.594  -4.293  1.00  0.00     0.139 C
BRANCH  18  19
HETATM   19  C2  UNL     1      19.612  39.573  -3.754  1.00  0.00     0.061 C
BRANCH  19  20
HETATM   20  N1  UNL     1      19.235  38.468  -4.492  1.00  0.00    -0.394 N
HETATM   21  C1  UNL     1      18.904  38.692  -5.882  1.00  0.00     0.146 C
ATOM     22  H1  UNL     1      19.191  37.537  -4.076  1.00  0.00     0.159 HD
ENDBRANCH  19  20
BRANCH  19  23
HETATM   23  C15 UNL     1      18.718  39.976  -2.680  1.00  0.00     0.162 A
HETATM   24  N10 UNL     1      17.716  40.900  -2.857  1.00  0.00    -0.267 N
HETATM   25  N11 UNL     1      17.084  41.070  -1.733  1.00  0.00    -0.226 N
ATOM     26  H10 UNL     1      17.502  41.378  -3.732  1.00  0.00     0.190 HD
HETATM   27  N12 UNL     1      17.624  40.302  -0.838  1.00  0.00    -0.225 N
ATOM     28  H11 UNL     1      16.296  41.701  -1.581  1.00  0.00     0.210 HD
HETATM   29  N13 UNL     1      18.604  39.636  -1.381  1.00  0.00    -0.263 N
ATOM     30  H12 UNL     1      17.328  40.231   0.136  1.00  0.00     0.210 HD
HETATM   31  C16 UNL     1      19.499  38.677  -0.732  1.00  0.00     0.181 C
ENDBRANCH  19  23
ENDBRANCH  18  19
ENDBRANCH  17  18
ENDBRANCH  16  17
ENDBRANCH   1  16
BRANCH   4  32
HETATM   32  C7  UNL     1      17.584  45.581  -2.482  1.00  0.00     0.068 A
HETATM   33  C8  UNL     1      16.519  44.610  -2.557  1.00  0.00     0.125 A
HETATM   34  N3  UNL     1      15.303  44.935  -3.055  1.00  0.00    -0.201 N
HETATM   35  C9  UNL     1      15.077  46.158  -3.478  1.00  0.00     0.677 A
ATOM     36  H3  UNL     1      14.565  44.233  -3.102  1.00  0.00     0.183 HD
HETATM   37  N5  UNL     1      16.066  47.122  -3.411  1.00  0.00    -0.176 N
HETATM   38  C10 UNL     1      17.310  46.820  -2.915  1.00  0.00     0.130 A
ATOM     39  H5  UNL     1      15.868  48.069  -3.733  1.00  0.00     0.186 HD
BRANCH  35  40
HETATM   40  N4  UNL     1      13.903  46.467  -3.933  1.00  0.00    -0.234 N
ATOM     41  H42 UNL     1      13.069  46.081  -3.491  1.00  0.00     0.174 HD
ATOM     42  H41 UNL     1      13.826  47.076  -4.747  1.00  0.00     0.174 HD
ENDBRANCH  35  40
BRANCH  38  43
HETATM   43  N6  UNL     1      18.167  47.795  -2.862  1.00  0.00    -0.384 N
ATOM     44  H62 UNL     1      18.800  47.803  -2.062  1.00  0.00     0.157 HD
ATOM     45  H61 UNL     1      18.241  48.511  -3.584  1.00  0.00     0.157 HD
ENDBRANCH  38  43
ENDBRANCH   4  32
TORSDOF 9
ENDMDL