MODEL 1
REMARK VINA RESULT: -7.335321000      0.000      0.000
REMARK  10 active torsions:
REMARK  status: ('A' for Active; 'I' for Inactive)
REMARK    1  A    between atoms: O1_2  and  N1_3
REMARK       I    between atoms: N1_3  and  C2_5
REMARK       I    between atoms: C2_5  and  N2_7
REMARK    2  A    between atoms: N2_7  and  C3_9
REMARK    3  A    between atoms: C3_9  and  C4_10
REMARK    4  A    between atoms: C3_9  and  C10_32
REMARK    5  A    between atoms: C4_10  and  C6_15
REMARK       I    between atoms: C6_15  and  N5_17
REMARK    6  A    between atoms: N5_17  and  C7_19
REMARK    7  A    between atoms: C8_24  and  N8_25
REMARK    8  A    between atoms: N8_25  and  O4_26
REMARK    9  A    between atoms: C13_35  and  O5_36
REMARK   10  A    between atoms: C14_38  and  O6_39
ROOT
HETATM    1  C4  UNL     1      22.478  39.946  -2.942  1.00  0.00     0.115 C
HETATM    2  N3  UNL     1      23.185  38.951  -2.953  1.00  0.00    -0.290 N
ATOM      3  H3  UNL     1      22.712  38.175  -3.414  1.00  0.00     0.178 HD
HETATM    4  C5  UNL     1      24.391  38.588  -2.540  1.00  0.00     0.182 C
HETATM    5  N4  UNL     1      25.446  38.239  -2.192  1.00  0.00    -0.172 NA
ENDROOT
BRANCH   1   6
HETATM    6  C3  UNL     1      22.820  41.233  -2.369  1.00  0.00     0.176 C
BRANCH   6   7
HETATM    7  N2  UNL     1      21.640  42.082  -2.208  1.00  0.00    -0.327 N
HETATM    8  C2  UNL     1      21.401  42.823  -1.035  1.00  0.00     0.340 C
HETATM    9  N1  UNL     1      20.253  43.643  -0.881  1.00  0.00    -0.217 N
HETATM   10  O2  UNL     1      22.223  42.761  -0.098  1.00  0.00    -0.245 OA
ATOM     11  H1  UNL     1      19.574  43.701  -1.640  1.00  0.00     0.199 HD
ATOM     12  H2  UNL     1      20.967  42.138  -2.971  1.00  0.00     0.165 HD
BRANCH   9  13
HETATM   13  O1  UNL     1      20.039  44.358   0.264  1.00  0.00    -0.281 OA
HETATM   14  C1  UNL     1      20.122  45.710  -0.035  1.00  0.00     0.237 C
ENDBRANCH   9  13
ENDBRANCH   6   7
BRANCH   6  15
HETATM   15  C10 UNL     1      23.755  42.038  -3.198  1.00  0.00    -0.027 A
HETATM   16  C11 UNL     1      25.071  42.095  -2.805  1.00  0.00     0.012 A
HETATM   17  C12 UNL     1      26.026  42.813  -3.511  1.00  0.00     0.040 A
HETATM   18  C13 UNL     1      25.645  43.501  -4.658  1.00  0.00     0.098 A
HETATM   19  C14 UNL     1      24.323  43.457  -5.073  1.00  0.00     0.099 A
HETATM   20  C15 UNL     1      23.407  42.718  -4.321  1.00  0.00     0.049 A
BRANCH  18  21
HETATM   21  O5  UNL     1      26.577  44.229  -5.388  1.00  0.00    -0.358 OA
ATOM     22  H5  UNL     1      26.845  43.940  -6.252  1.00  0.00     0.217 HD
ENDBRANCH  18  21
BRANCH  19  23
HETATM   23  O6  UNL     1      23.924  44.131  -6.206  1.00  0.00    -0.358 OA
ATOM     24  H6  UNL     1      23.025  44.072  -6.510  1.00  0.00     0.217 HD
ENDBRANCH  19  23
ENDBRANCH   6  15
ENDBRANCH   1   6
BRANCH   1  25
HETATM   25  C6  UNL     1      21.145  39.773  -3.595  1.00  0.00     0.285 C
HETATM   26  O3  UNL     1      20.801  40.436  -4.576  1.00  0.00    -0.265 OA
HETATM   27  N5  UNL     1      20.196  38.808  -3.086  1.00  0.00    -0.153 N
ATOM     28  H5  UNL     1      20.209  37.846  -3.428  1.00  0.00     0.187 HD
BRANCH  27  29
HETATM   29  C7  UNL     1      19.335  39.168  -2.200  1.00  0.00     0.702 A
HETATM   30  N6  UNL     1      18.809  38.403  -1.233  1.00  0.00    -0.129 N
HETATM   31  N7  UNL     1      17.955  39.131  -0.518  1.00  0.00    -0.258 N
ATOM     32  H6  UNL     1      19.028  37.420  -1.072  1.00  0.00     0.205 HD
HETATM   33  C8  UNL     1      17.941  40.367  -1.039  1.00  0.00     0.228 A
ATOM     34  H7  UNL     1      17.410  38.808   0.282  1.00  0.00     0.190 HD
HETATM   35  N10 UNL     1      18.791  40.372  -2.067  1.00  0.00    -0.160 N
ATOM     36  H10 UNL     1      18.992  41.177  -2.660  1.00  0.00     0.187 HD
BRANCH  33  37
HETATM   37  N8  UNL     1      17.177  41.491  -0.604  1.00  0.00    -0.026 NA
HETATM   38  C9  UNL     1      16.236  41.818  -1.575  1.00  0.00     0.187 C
HETATM   39  N9  UNL     1      15.475  42.095  -2.381  1.00  0.00    -0.176 NA
BRANCH  37  40
HETATM   40  O4  UNL     1      16.542  41.119   0.551  1.00  0.00    -0.292 OA
ATOM     41  H4  UNL     1      17.140  41.303   1.267  1.00  0.00     0.238 HD
ENDBRANCH  37  40
ENDBRANCH  33  37
ENDBRANCH  27  29
ENDBRANCH   1  25
TORSDOF 10
ENDMDL