MODEL 4
REMARK VINA RESULT: -7.180214370      7.262      9.250
REMARK  7 active torsions:
REMARK  status: ('A' for Active; 'I' for Inactive)
REMARK    1  A    between atoms: C2_2  and  O1_3
REMARK    2  A    between atoms: C2_2  and  C3_5
REMARK    3  A    between atoms: C2_2  and  S1_14
REMARK    4  A    between atoms: S1_14  and  C6_17
REMARK    5  A    between atoms: C9_20  and  N4_21
REMARK    6  A    between atoms: N4_21  and  C10_23
REMARK    7  A    between atoms: C11_24  and  N5_25
REMARK       I    between atoms: N5_25  and  C12_27
ROOT
HETATM    1  C6  UNL     1      15.450  47.567  -3.536  1.00  0.00     0.062 A
HETATM    2  C7  UNL     1      16.363  47.188  -4.497  1.00  0.00     0.026 A
HETATM    3  C8  UNL     1      17.283  46.189  -4.286  1.00  0.00     0.031 A
HETATM    4  C9  UNL     1      17.348  45.492  -3.068  1.00  0.00     0.032 A
HETATM    5  C15 UNL     1      16.442  45.867  -2.111  1.00  0.00     0.031 A
HETATM    6  C16 UNL     1      15.510  46.887  -2.341  1.00  0.00     0.026 A
ENDROOT
BRANCH   1   7
HETATM    7  S1  UNL     1      14.284  48.824  -3.790  1.00  0.00     0.215 S
HETATM    8  O2  UNL     1      14.171  49.633  -2.536  1.00  0.00    -0.219 OA
HETATM    9  O3  UNL     1      14.763  49.761  -4.875  1.00  0.00    -0.219 OA
BRANCH   7  10
HETATM   10  C2  UNL     1      12.697  48.241  -4.228  1.00  0.00     0.221 C
HETATM   11  C1  UNL     1      11.671  48.472  -3.130  1.00  0.00     0.073 C
BRANCH  10  12
HETATM   12  O1  UNL     1      12.675  46.871  -4.497  1.00  0.00    -0.368 OA
ATOM     13  H1  UNL     1      12.514  46.441  -3.665  1.00  0.00     0.212 HD
ENDBRANCH  10  12
BRANCH  10  14
HETATM   14  C3  UNL     1      12.225  48.981  -5.426  1.00  0.00     0.142 C
HETATM   15  N1  UNL     1      12.252  48.426  -6.590  1.00  0.00    -0.290 N
HETATM   16  N2  UNL     1      11.833  49.038  -7.757  1.00  0.00    -0.333 N
ATOM     17  H1  UNL     1      12.605  47.471  -6.653  1.00  0.00     0.188 HD
HETATM   18  C4  UNL     1      10.934  50.152  -7.678  1.00  0.00     0.159 C
ATOM     19  H2  UNL     1      12.159  48.701  -8.662  1.00  0.00     0.180 HD
HETATM   20  C5  UNL     1      11.292  51.031  -6.505  1.00  0.00     0.142 C
HETATM   21  N3  UNL     1      11.728  50.313  -5.348  1.00  0.00    -0.374 N
ATOM     22  H3  UNL     1      11.682  50.770  -4.437  1.00  0.00     0.161 HD
ENDBRANCH  10  14
ENDBRANCH   7  10
ENDBRANCH   1   7
BRANCH   4  23
HETATM   23  N4  UNL     1      18.297  44.438  -2.914  1.00  0.00    -0.351 N
ATOM     24  H4  UNL     1      19.260  44.580  -3.216  1.00  0.00     0.166 HD
BRANCH  23  25
HETATM   25  C10 UNL     1      17.924  43.209  -2.353  1.00  0.00     0.119 A
HETATM   26  C11 UNL     1      18.679  42.247  -1.673  1.00  0.00     0.122 A
HETATM   27  C13 UNL     1      17.536  41.515  -1.493  1.00  0.00     0.253 A
HETATM   28  O5  UNL     1      17.295  40.418  -0.933  1.00  0.00    -0.281 OA
HETATM   29  C14 UNL     1      16.779  42.467  -2.169  1.00  0.00     0.253 A
HETATM   30  O6  UNL     1      15.551  42.505  -2.428  1.00  0.00    -0.281 OA
BRANCH  26  31
HETATM   31  N5  UNL     1      20.049  42.090  -1.316  1.00  0.00    -0.306 N
HETATM   32  C12 UNL     1      20.694  43.066  -0.511  1.00  0.00     0.333 C
HETATM   33  N6  UNL     1      22.065  42.861  -0.184  1.00  0.00    -0.040 NA
HETATM   34  O4  UNL     1      20.065  44.062  -0.114  1.00  0.00    -0.251 OA
ATOM     35  H5  UNL     1      20.568  41.273  -1.640  1.00  0.00     0.170 HD
ENDBRANCH  26  31
ENDBRANCH  23  25
ENDBRANCH   4  23
TORSDOF 7
ENDMDL