MODEL 4
REMARK VINA RESULT: -6.806869662      1.848      4.534
REMARK  11 active torsions:
REMARK  status: ('A' for Active; 'I' for Inactive)
REMARK    1  A    between atoms: O1_2  and  C2_3
REMARK    2  A    between atoms: C2_3  and  C3_5
REMARK    3  A    between atoms: C4_7  and  N1_8
REMARK       I    between atoms: N1_8  and  C5_10
REMARK    4  A    between atoms: C5_10  and  C6_12
REMARK    5  A    between atoms: C7_15  and  N3_16
REMARK    6  A    between atoms: C8_21  and  N5_22
REMARK    7  A    between atoms: C9_28  and  C10_29
REMARK    8  A    between atoms: C10_29  and  O5_31
REMARK    9  A    between atoms: O5_31  and  C11_32
REMARK   10  A    between atoms: C11_32  and  C12_33
REMARK   11  A    between atoms: C12_33  and  C13_34
ROOT
HETATM    1  N1  UNL     1      17.399  44.632  -2.919  1.00  0.00    -0.309 N
ATOM      2  H1  UNL     1      17.184  44.562  -3.913  1.00  0.00     0.170 HD
HETATM    3  C5  UNL     1      16.571  45.432  -2.137  1.00  0.00     0.292 C
HETATM    4  O3  UNL     1      16.516  45.282  -0.897  1.00  0.00    -0.264 OA
ENDROOT
BRANCH   1   5
HETATM    5  C4  UNL     1      18.410  43.975  -2.485  1.00  0.00     0.120 A
HETATM    6  S1  UNL     1      18.667  42.309  -2.547  1.00  0.00    -0.057 SA
HETATM    7  C3  UNL     1      20.190  41.904  -1.829  1.00  0.00     0.105 A
HETATM    8  C9  UNL     1      20.825  43.033  -1.378  1.00  0.00     0.105 A
HETATM    9  S2  UNL     1      19.845  44.427  -1.712  1.00  0.00    -0.057 SA
BRANCH   7  10
HETATM   10  C2  UNL     1      20.642  40.521  -1.763  1.00  0.00     0.301 C
HETATM   11  O2  UNL     1      21.560  40.144  -2.588  1.00  0.00    -0.259 OA
BRANCH  10  12
HETATM   12  O1  UNL     1      20.225  39.536  -0.936  1.00  0.00    -0.322 OA
HETATM   13  C1  UNL     1      19.209  38.606  -1.254  1.00  0.00     0.213 C
ENDBRANCH  10  12
ENDBRANCH   7  10
BRANCH   8  14
HETATM   14  C10 UNL     1      22.102  43.196  -0.713  1.00  0.00     0.301 C
HETATM   15  O4  UNL     1      23.180  43.114  -1.303  1.00  0.00    -0.259 OA
BRANCH  14  16
HETATM   16  O5  UNL     1      22.188  43.464   0.660  1.00  0.00    -0.317 OA
BRANCH  16  17
HETATM   17  C11 UNL     1      21.604  44.674   1.178  1.00  0.00     0.189 C
BRANCH  17  18
HETATM   18  C12 UNL     1      22.521  45.350   2.126  1.00  0.00     0.140 C
BRANCH  18  19
HETATM   19  C13 UNL     1      23.214  46.523   1.503  1.00  0.00     0.174 C
HETATM   20  O6  UNL     1      22.617  47.132   0.549  1.00  0.00    -0.648 OA
HETATM   21  O7  UNL     1      24.462  46.961   1.920  1.00  0.00    -0.648 OA
ENDBRANCH  18  19
ENDBRANCH  17  18
ENDBRANCH  16  17
ENDBRANCH  14  16
ENDBRANCH   8  14
ENDBRANCH   1   5
BRANCH   3  22
HETATM   22  C6  UNL     1      15.749  46.460  -2.750  1.00  0.00     0.204 A
HETATM   23  N2  UNL     1      15.361  47.573  -2.117  1.00  0.00    -0.170 N
HETATM   24  C7  UNL     1      14.602  48.484  -2.723  1.00  0.00     0.692 A
ATOM     25  H2  UNL     1      15.651  47.725  -1.151  1.00  0.00     0.186 HD
HETATM   26  N4  UNL     1      14.202  48.307  -4.006  1.00  0.00    -0.023 N
HETATM   27  C8  UNL     1      14.575  47.200  -4.673  1.00  0.00     0.692 A
ATOM     28  H4  UNL     1      13.622  49.010  -4.464  1.00  0.00     0.203 HD
HETATM   29  N6  UNL     1      15.324  46.316  -4.049  1.00  0.00    -0.170 N
ATOM     30  H6  UNL     1      15.606  45.478  -4.559  1.00  0.00     0.186 HD
BRANCH  24  31
HETATM   31  N3  UNL     1      14.210  49.570  -2.136  1.00  0.00    -0.234 N
ATOM     32  H32 UNL     1      14.800  49.923  -1.383  1.00  0.00     0.174 HD
ATOM     33  H31 UNL     1      13.355  50.061  -2.401  1.00  0.00     0.174 HD
ENDBRANCH  24  31
BRANCH  27  34
HETATM   34  N5  UNL     1      14.214  46.995  -5.894  1.00  0.00    -0.234 N
ATOM     35  H52 UNL     1      13.291  47.292  -6.212  1.00  0.00     0.174 HD
ATOM     36  H51 UNL     1      14.833  46.538  -6.564  1.00  0.00     0.174 HD
ENDBRANCH  27  34
ENDBRANCH   3  22
TORSDOF 11
ENDMDL