MODEL 2
REMARK VINA RESULT: -6.750466963      3.433      7.112
REMARK  10 active torsions:
REMARK  status: ('A' for Active; 'I' for Inactive)
REMARK    1  A    between atoms: C2_2  and  O1_3
REMARK    2  A    between atoms: C2_2  and  N1_5
REMARK    3  A    between atoms: N1_5  and  C3_7
REMARK    4  A    between atoms: C5_9  and  C6_10
REMARK       I    between atoms: C6_10  and  N2_12
REMARK    5  A    between atoms: N2_12  and  C7_14
REMARK    6  A    between atoms: N4_21  and  C11_22
REMARK    7  A    between atoms: C11_22  and  C12_23
REMARK    8  A    between atoms: C13_24  and  O3_25
REMARK    9  A    between atoms: N6_31  and  N7_32
REMARK   10  A    between atoms: N7_32  and  C15_34
ROOT
HETATM    1  C3  UNL     1      22.272  39.292  -2.959  1.00  0.00     0.106 A
HETATM    2  C4  UNL     1      22.220  38.630  -4.182  1.00  0.00     0.067 A
HETATM    3  C5  UNL     1      20.918  38.465  -4.575  1.00  0.00     0.051 A
HETATM    4  C10 UNL     1      20.173  39.038  -3.569  1.00  0.00     0.110 A
HETATM    5  N4  UNL     1      21.004  39.535  -2.589  1.00  0.00    -0.338 N
ENDROOT
BRANCH   5   6
HETATM    6  C11 UNL     1      20.485  40.120  -1.393  1.00  0.00     0.178 C
BRANCH   6   7
HETATM    7  C12 UNL     1      19.085  40.665  -1.487  1.00  0.00     0.081 A
HETATM    8  C13 UNL     1      17.989  39.940  -1.134  1.00  0.00     0.157 A
HETATM    9  N5  UNL     1      16.789  40.525  -1.272  1.00  0.00    -0.287 N
HETATM   10  C14 UNL     1      16.675  41.785  -1.742  1.00  0.00     0.350 A
ATOM     11  H5  UNL     1      15.947  40.008  -1.016  1.00  0.00     0.172 HD
HETATM   12  O4  UNL     1      15.497  42.224  -1.826  1.00  0.00    -0.244 OA
HETATM   13  N6  UNL     1      17.700  42.558  -2.107  1.00  0.00    -0.165 N
HETATM   14  C16 UNL     1      18.932  41.962  -1.968  1.00  0.00     0.282 A
HETATM   15  O6  UNL     1      19.956  42.595  -2.276  1.00  0.00    -0.265 OA
BRANCH   8  16
HETATM   16  O3  UNL     1      18.064  38.636  -0.640  1.00  0.00    -0.345 OA
ATOM     17  H3  UNL     1      18.448  37.918  -1.128  1.00  0.00     0.219 HD
ENDBRANCH   8  16
BRANCH  13  18
HETATM   18  N7  UNL     1      17.651  43.846  -2.600  1.00  0.00    -0.264 N
ATOM     19  H7  UNL     1      17.848  43.913  -3.598  1.00  0.00     0.190 HD
BRANCH  18  20
HETATM   20  C15 UNL     1      17.391  45.044  -2.012  1.00  0.00     0.369 C
HETATM   21  O5  UNL     1      16.688  45.308  -1.037  1.00  0.00    -0.282 OA
ENDBRANCH  18  20
ENDBRANCH  13  18
ENDBRANCH   6   7
ENDBRANCH   5   6
BRANCH   1  22
HETATM   22  N1  UNL     1      23.468  39.681  -2.293  1.00  0.00    -0.350 N
ATOM     23  H1  UNL     1      23.897  39.077  -1.592  1.00  0.00     0.163 HD
BRANCH  22  24
HETATM   24  C2  UNL     1      24.064  40.958  -2.635  1.00  0.00     0.214 C
HETATM   25  C1  UNL     1      25.575  40.907  -2.541  1.00  0.00     0.063 C
BRANCH  24  26
HETATM   26  O1  UNL     1      23.546  41.892  -1.712  1.00  0.00    -0.377 OA
ATOM     27  H1  UNL     1      22.816  42.364  -2.094  1.00  0.00     0.212 HD
ENDBRANCH  24  26
ENDBRANCH  22  24
ENDBRANCH   1  22
BRANCH   3  28
HETATM   28  C6  UNL     1      20.406  37.830  -5.781  1.00  0.00     0.259 C
HETATM   29  O2  UNL     1      21.212  37.340  -6.612  1.00  0.00    -0.267 OA
HETATM   30  N2  UNL     1      19.020  37.737  -6.069  1.00  0.00    -0.303 N
ATOM     31  H2  UNL     1      18.398  37.183  -5.479  1.00  0.00     0.171 HD
BRANCH  30  32
HETATM   32  C7  UNL     1      18.556  38.385  -7.119  1.00  0.00     0.151 A
HETATM   33  N3  UNL     1      18.912  39.595  -7.546  1.00  0.00    -0.346 N
HETATM   34  C8  UNL     1      18.340  40.077  -8.611  1.00  0.00     0.097 A
ATOM     35  H3  UNL     1      19.620  40.134  -7.048  1.00  0.00     0.167 HD
HETATM   36  C9  UNL     1      17.395  39.302  -9.235  1.00  0.00     0.070 A
HETATM   37  S1  UNL     1      17.376  37.908  -8.253  1.00  0.00    -0.064 SA
ENDBRANCH  30  32
ENDBRANCH   3  28
TORSDOF 10
ENDMDL