MODEL 2
REMARK VINA RESULT: -6.465425277      5.871      9.184
REMARK  8 active torsions:
REMARK  status: ('A' for Active; 'I' for Inactive)
REMARK    1  A    between atoms: N1_1  and  C1_4
REMARK    2  A    between atoms: C2_7  and  C3_8
REMARK    3  A    between atoms: C3_8  and  C4_13
REMARK    4  A    between atoms: N3_9  and  O1_11
REMARK       I    between atoms: C4_13  and  N4_15
REMARK    5  A    between atoms: N4_15  and  C5_17
REMARK    6  A    between atoms: C7_21  and  C8_22
REMARK    7  A    between atoms: C9_25  and  C10_26
REMARK    8  A    between atoms: C10_26  and  N6_27
ROOT
HETATM    1  C4  UNL     1      22.556  46.563   0.298  1.00  0.00     0.273 C
HETATM    2  O2  UNL     1      22.030  47.615  -0.136  1.00  0.00    -0.266 OA
HETATM    3  N4  UNL     1      22.122  45.367  -0.325  1.00  0.00    -0.340 N
ATOM      4  H4  UNL     1      22.495  44.462  -0.036  1.00  0.00     0.163 HD
ENDROOT
BRANCH   3   5
HETATM    5  C5  UNL     1      21.125  45.460  -1.392  1.00  0.00     0.211 C
HETATM    6  C6  UNL     1      19.752  45.107  -1.029  1.00  0.00     0.251 C
HETATM    7  O3  UNL     1      18.778  45.693  -0.446  1.00  0.00    -0.271 OA
HETATM    8  N5  UNL     1      19.972  43.831  -1.608  1.00  0.00    -0.293 N
HETATM    9  C7  UNL     1      19.546  42.454  -1.715  1.00  0.00     0.120 C
HETATM   10  C12 UNL     1      21.110  44.298  -2.358  1.00  0.00     0.187 C
HETATM   11  C9  UNL     1      20.437  41.481  -1.475  1.00  0.00    -0.013 C
HETATM   12  C11 UNL     1      21.852  41.833  -1.042  1.00  0.00     0.114 C
HETATM   13  S1  UNL     1      22.448  43.113  -2.168  1.00  0.00    -0.136 SA
BRANCH   9  14
HETATM   14  C8  UNL     1      18.148  42.216  -2.010  1.00  0.00     0.227 C
HETATM   15  O4  UNL     1      17.215  42.590  -1.288  1.00  0.00    -0.643 OA
HETATM   16  O5  UNL     1      17.788  41.533  -3.164  1.00  0.00    -0.643 OA
ENDBRANCH   9  14
BRANCH  11  17
HETATM   17  C10 UNL     1      20.132  40.074  -1.558  1.00  0.00     0.238 C
BRANCH  17  18
HETATM   18  N6  UNL     1      20.939  39.416  -2.598  1.00  0.00    -0.151 N
HETATM   19  O6  UNL     1      21.672  38.493  -2.260  1.00  0.00    -0.536 OA
HETATM   20  O7  UNL     1      20.825  39.872  -3.870  1.00  0.00    -0.536 OA
ENDBRANCH  17  18
ENDBRANCH  11  17
ENDBRANCH   3   5
BRANCH   1  21
HETATM   21  C3  UNL     1      23.534  46.554   1.354  1.00  0.00     0.149 C
HETATM   22  N3  UNL     1      23.447  45.833   2.387  1.00  0.00    -0.262 N
ATOM     23  H3  UNL     1      24.240  45.975   3.012  1.00  0.00     0.194 HD
BRANCH  21  24
HETATM   24  C2  UNL     1      24.779  47.420   1.330  1.00  0.00     0.075 A
HETATM   25  N2  UNL     1      25.037  48.292   0.386  1.00  0.00    -0.335 N
HETATM   26  C1  UNL     1      26.166  49.010   0.455  1.00  0.00     0.142 A
ATOM     27  H2  UNL     1      24.388  48.422  -0.389  1.00  0.00     0.168 HD
HETATM   28  S2  UNL     1      26.896  48.457   1.879  1.00  0.00    -0.064 SA
HETATM   29  C13 UNL     1      25.716  47.314   2.339  1.00  0.00     0.085 A
BRANCH  26  30
HETATM   30  N1  UNL     1      26.600  49.926  -0.387  1.00  0.00    -0.380 N
ATOM     31  H12 UNL     1      26.079  50.690  -0.818  1.00  0.00     0.158 HD
ATOM     32  H11 UNL     1      27.540  50.039  -0.764  1.00  0.00     0.158 HD
ENDBRANCH  26  30
ENDBRANCH  21  24
BRANCH  22  33
HETATM   33  O1  UNL     1      22.616  44.963   2.861  1.00  0.00    -0.289 OA
ATOM     34  H1  UNL     1      22.659  44.073   3.192  1.00  0.00     0.244 HD
ENDBRANCH  22  33
ENDBRANCH   1  21
TORSDOF 8
ENDMDL