MODEL 1
REMARK VINA RESULT: -6.446347704      0.000      0.000
REMARK  10 active torsions:
REMARK  status: ('A' for Active; 'I' for Inactive)
REMARK    1  A    between atoms: C2_2  and  N1_3
REMARK       I    between atoms: N1_3  and  C3_5
REMARK    2  A    between atoms: C3_5  and  C4_7
REMARK    3  A    between atoms: N3_10  and  C5_11
REMARK    4  A    between atoms: C8_14  and  N4_15
REMARK    5  A    between atoms: C9_18  and  N5_19
REMARK    6  A    between atoms: C10_23  and  C11_24
REMARK    7  A    between atoms: C11_24  and  N8_25
REMARK    8  A    between atoms: N9_28  and  C12_30
REMARK    9  A    between atoms: C13_31  and  C14_32
REMARK   10  A    between atoms: C14_32  and  N10_33
ROOT
HETATM    1  N8  UNL     1      18.583  45.360  -1.124  1.00  0.00    -0.262 NA
HETATM    2  O2  UNL     1      19.092  45.845  -0.088  1.00  0.00    -0.217 OA
ATOM      3  H2  UNL     1      19.435  46.285   0.681  1.00  0.00     0.261 HD
ENDROOT
BRANCH   1   4
HETATM    4  C11 UNL     1      18.143  44.794  -2.114  1.00  0.00     0.243 C
HETATM    5  N9  UNL     1      17.837  43.494  -2.260  1.00  0.00    -0.310 N
ATOM      6  H9  UNL     1      16.982  43.434  -2.812  1.00  0.00     0.170 HD
BRANCH   4   7
HETATM    7  C10 UNL     1      17.866  45.723  -3.265  1.00  0.00     0.131 A
HETATM    8  N7  UNL     1      18.702  46.260  -4.090  1.00  0.00    -0.277 N
HETATM    9  N6  UNL     1      18.007  47.112  -4.878  1.00  0.00    -0.014 NA
ATOM     10  H7  UNL     1      19.704  46.076  -4.138  1.00  0.00     0.184 HD
HETATM   11  N5  UNL     1      16.711  47.109  -4.542  1.00  0.00    -0.236 N
HETATM   12  C16 UNL     1      16.595  46.231  -3.524  1.00  0.00     0.062 A
HETATM   13  C17 UNL     1      15.438  45.736  -2.776  1.00  0.00     0.072 C
BRANCH  11  14
HETATM   14  C9  UNL     1      15.720  47.925  -5.136  1.00  0.00     0.133 A
HETATM   15  C4  UNL     1      15.239  49.134  -4.668  1.00  0.00     0.148 A
HETATM   16  N2  UNL     1      14.396  49.656  -5.488  1.00  0.00    -0.289 N
HETATM   17  N3  UNL     1      14.292  48.798  -6.518  1.00  0.00    -0.270 N
ATOM     18  H2  UNL     1      13.905  50.543  -5.380  1.00  0.00     0.187 HD
HETATM   19  C8  UNL     1      15.063  47.729  -6.345  1.00  0.00     0.147 A
BRANCH  15  20
HETATM   20  C3  UNL     1      15.435  49.524  -3.208  1.00  0.00     0.272 C
HETATM   21  N1  UNL     1      14.328  49.107  -2.503  1.00  0.00    -0.356 N
ATOM     22  H1  UNL     1      13.736  48.773  -3.263  1.00  0.00     0.162 HD
HETATM   23  O1  UNL     1      16.418  50.062  -2.827  1.00  0.00    -0.266 OA
BRANCH  21  24
HETATM   24  C2  UNL     1      13.509  48.853  -1.412  1.00  0.00     0.118 C
HETATM   25  C1  UNL     1      12.199  48.171  -1.953  1.00  0.00     0.026 C
ENDBRANCH  21  24
ENDBRANCH  15  20
BRANCH  17  26
HETATM   26  C5  UNL     1      13.477  49.059  -7.662  1.00  0.00     0.102 C
HETATM   27  C6  UNL     1      14.079  50.395  -8.192  1.00  0.00     0.034 C
HETATM   28  C7  UNL     1      12.030  49.316  -7.362  1.00  0.00     0.034 C
ENDBRANCH  17  26
BRANCH  19  29
HETATM   29  N4  UNL     1      15.042  46.668  -7.105  1.00  0.00    -0.382 N
ATOM     30  H42 UNL     1      15.062  46.608  -8.123  1.00  0.00     0.157 HD
ATOM     31  H41 UNL     1      15.133  45.710  -6.766  1.00  0.00     0.157 HD
ENDBRANCH  19  29
ENDBRANCH  11  14
ENDBRANCH   4   7
BRANCH   5  32
HETATM   32  C12 UNL     1      18.188  42.352  -1.986  1.00  0.00     0.151 A
HETATM   33  C13 UNL     1      19.394  41.756  -1.707  1.00  0.00     0.098 A
HETATM   34  N11 UNL     1      19.141  40.437  -1.418  1.00  0.00    -0.285 N
HETATM   35  N12 UNL     1      17.845  40.217  -1.519  1.00  0.00    -0.239 N
ATOM     36  H11 UNL     1      19.843  39.742  -1.165  1.00  0.00     0.188 HD
HETATM   37  N13 UNL     1      17.253  41.337  -1.847  1.00  0.00    -0.265 N
ATOM     38  H12 UNL     1      17.380  39.321  -1.367  1.00  0.00     0.208 HD
HETATM   39  C15 UNL     1      15.809  41.581  -1.906  1.00  0.00     0.181 C
BRANCH  33  40
HETATM   40  C14 UNL     1      20.709  42.396  -1.892  1.00  0.00     0.292 C
BRANCH  40  41
HETATM   41  N10 UNL     1      20.985  43.266  -0.696  1.00  0.00    -0.074 N
ATOM     42 3H10 UNL     1      20.222  43.254  -0.018  1.00  0.00     0.274 HD
ATOM     43 2H10 UNL     1      21.712  42.883  -0.093  1.00  0.00     0.274 HD
ATOM     44 1H10 UNL     1      21.202  44.206  -1.026  1.00  0.00     0.274 HD
ENDBRANCH  40  41
ENDBRANCH  33  40
ENDBRANCH   5  32
ENDBRANCH   1   4
TORSDOF 10
ENDMDL