MODEL 1
REMARK VINA RESULT: -7.216927045      0.000      0.000
REMARK  8 active torsions:
REMARK  status: ('A' for Active; 'I' for Inactive)
REMARK    1  A    between atoms: C4_10  and  C5_11
REMARK    2  A    between atoms: N4_16  and  C7_17
REMARK    3  A    between atoms: C7_17  and  C8_18
REMARK    4  A    between atoms: C8_18  and  C9_19
REMARK    5  A    between atoms: C9_19  and  C10_20
REMARK       I    between atoms: C10_20  and  N5_22
REMARK    6  A    between atoms: N5_22  and  N6_24
REMARK    7  A    between atoms: C11_27  and  O4_28
REMARK    8  A    between atoms: C13_33  and  N8_34
ROOT
HETATM    1  C5  UNL     1      13.800  47.611  -2.555  1.00  0.00     0.088 A
HETATM    2  N3  UNL     1      13.500  48.578  -1.692  1.00  0.00    -0.305 N
ATOM      3  H3  UNL     1      14.023  48.781  -0.841  1.00  0.00     0.171 HD
HETATM    4  C6  UNL     1      12.400  49.255  -2.106  1.00  0.00     0.329 A
HETATM    5  O2  UNL     1      11.944  50.221  -1.427  1.00  0.00    -0.246 OA
HETATM    6  N4  UNL     1      11.972  48.730  -3.248  1.00  0.00    -0.278 N
HETATM    7  C11 UNL     1      12.816  47.717  -3.548  1.00  0.00     0.173 A
ENDROOT
BRANCH   1   8
HETATM    8  C4  UNL     1      14.893  46.679  -2.503  1.00  0.00     0.053 C
HETATM    9  C3  UNL     1      16.185  46.879  -2.613  1.00  0.00     0.062 A
HETATM   10  C2  UNL     1      16.760  48.183  -2.833  1.00  0.00     0.259 A
HETATM   11  C12 UNL     1      17.136  45.725  -2.471  1.00  0.00     0.071 A
HETATM   12  N2  UNL     1      18.169  48.463  -2.924  1.00  0.00    -0.308 N
HETATM   13  O1  UNL     1      16.052  49.232  -2.974  1.00  0.00    -0.267 OA
HETATM   14  C1  UNL     1      19.033  47.347  -2.784  1.00  0.00     0.121 A
ATOM     15  H2  UNL     1      18.523  49.406  -3.080  1.00  0.00     0.170 HD
HETATM   16  N1  UNL     1      20.311  47.434  -2.842  1.00  0.00    -0.384 N
HETATM   17  C14 UNL     1      18.476  46.001  -2.561  1.00  0.00     0.080 A
ATOM     18  H12 UNL     1      20.697  48.365  -2.996  1.00  0.00     0.157 HD
ATOM     19  H11 UNL     1      20.933  46.631  -2.741  1.00  0.00     0.157 HD
HETATM   20  S1  UNL     1      19.159  44.431  -2.346  1.00  0.00    -0.042 SA
HETATM   21  C13 UNL     1      17.712  43.543  -2.160  1.00  0.00     0.217 A
HETATM   22  N7  UNL     1      16.805  44.481  -2.271  1.00  0.00    -0.330 N
ATOM     23  H7  UNL     1      15.818  44.233  -2.201  1.00  0.00     0.168 HD
BRANCH  21  24
HETATM   24  N8  UNL     1      17.467  42.163  -1.943  1.00  0.00    -0.090 N
HETATM   25  O5  UNL     1      17.728  41.364  -2.849  1.00  0.00    -0.530 OA
HETATM   26  O6  UNL     1      16.954  41.710  -0.766  1.00  0.00    -0.530 OA
ENDBRANCH  21  24
ENDBRANCH   1   8
BRANCH   7  27
HETATM   27  O4  UNL     1      12.786  46.863  -4.645  1.00  0.00    -0.344 OA
ATOM     28  H4  UNL     1      12.622  45.932  -4.551  1.00  0.00     0.219 HD
ENDBRANCH   7  27
BRANCH   6  29
HETATM   29  C7  UNL     1      10.849  49.107  -4.031  1.00  0.00     0.136 C
BRANCH  29  30
HETATM   30  C8  UNL     1      11.072  50.074  -5.129  1.00  0.00     0.030 C
BRANCH  30  31
HETATM   31  C9  UNL     1      10.561  49.766  -6.475  1.00  0.00     0.106 C
BRANCH  31  32
HETATM   32  C10 UNL     1      11.531  49.407  -7.505  1.00  0.00     0.235 C
HETATM   33  O3  UNL     1      11.346  49.746  -8.694  1.00  0.00    -0.272 OA
HETATM   34  N5  UNL     1      12.693  48.671  -7.164  1.00  0.00    -0.277 N
ATOM     35  H5  UNL     1      12.834  48.401  -6.191  1.00  0.00     0.189 HD
BRANCH  34  36
HETATM   36  N6  UNL     1      13.657  48.300  -8.115  1.00  0.00    -0.343 N
ATOM     37  H62 UNL     1      14.058  49.036  -8.697  1.00  0.00     0.176 HD
ATOM     38  H61 UNL     1      13.961  47.334  -8.238  1.00  0.00     0.176 HD
ENDBRANCH  34  36
ENDBRANCH  31  32
ENDBRANCH  30  31
ENDBRANCH  29  30
ENDBRANCH   6  29
TORSDOF 8
ENDMDL