MODEL 5
REMARK VINA RESULT: -7.641505384      2.548      3.391
REMARK  4 active torsions:
REMARK  status: ('A' for Active; 'I' for Inactive)
REMARK       I    between atoms: C1_2  and  N1_3
REMARK    1  A    between atoms: C1_2  and  C8_16
REMARK    2  A    between atoms: N1_3  and  N2_5
REMARK    3  A    between atoms: N2_5  and  C2_7
REMARK    4  A    between atoms: C6_11  and  N3_12
ROOT
HETATM    1  N2  UNL     1      34.131  48.420  21.319  1.00  0.00    -0.298 N
ATOM      2  H2  UNL     1      33.916  48.405  22.315  1.00  0.00     0.187 HD
ENDROOT
BRANCH   1   3
HETATM    3  N1  UNL     1      34.139  47.244  20.597  1.00  0.00    -0.264 N
HETATM    4  C1  UNL     1      32.955  46.746  20.017  1.00  0.00     0.293 C
HETATM    5  O1  UNL     1      31.888  47.393  20.171  1.00  0.00    -0.264 OA
ATOM      6  H1  UNL     1      35.012  46.730  20.482  1.00  0.00     0.190 HD
BRANCH   4   7
HETATM    7  C8  UNL     1      32.966  45.507  19.256  1.00  0.00     0.144 A
HETATM    8  C9  UNL     1      32.910  45.433  17.883  1.00  0.00     0.045 A
HETATM    9  C10 UNL     1      32.945  44.083  17.598  1.00  0.00     0.027 A
HETATM   10  C11 UNL     1      33.020  43.411  18.790  1.00  0.00     0.143 A
HETATM   11  O4  UNL     1      33.030  44.319  19.748  1.00  0.00    -0.317 OA
ENDBRANCH   4   7
ENDBRANCH   1   3
BRANCH   1  12
HETATM   12  C2  UNL     1      34.420  49.649  20.675  1.00  0.00     0.050 A
HETATM   13  C3  UNL     1      33.789  50.822  20.991  1.00  0.00     0.031 A
HETATM   14  C4  UNL     1      34.126  51.983  20.328  1.00  0.00     0.005 A
HETATM   15  C5  UNL     1      35.098  51.989  19.341  1.00  0.00     0.036 A
HETATM   16  C6  UNL     1      35.730  50.812  19.025  1.00  0.00     0.105 A
HETATM   17  C7  UNL     1      35.386  49.647  19.697  1.00  0.00     0.067 A
BRANCH  16  18
HETATM   18  N3  UNL     1      36.735  50.760  18.033  1.00  0.00    -0.116 N
HETATM   19  O2  UNL     1      37.689  51.550  18.074  1.00  0.00    -0.532 OA
HETATM   20  O3  UNL     1      36.657  49.844  17.023  1.00  0.00    -0.532 OA
ENDBRANCH  16  18
ENDBRANCH   1  12
TORSDOF 4
ENDMDL