MODEL 5
REMARK VINA RESULT: -7.211252591      4.913      8.022
REMARK  5 active torsions:
REMARK  status: ('A' for Active; 'I' for Inactive)
REMARK    1  A    between atoms: C5_5  and  C6_6
REMARK    2  A    between atoms: C6_6  and  N2_11
REMARK    3  A    between atoms: N1_7  and  O1_9
REMARK    4  A    between atoms: N2_11  and  N3_13
REMARK    5  A    between atoms: C7_15  and  C8_16
ROOT
HETATM    1  C6  UNL     1      34.324  49.665  21.830  1.00  0.00     0.174 C
HETATM    2  N1  UNL     1      33.765  50.776  22.125  1.00  0.00    -0.249 N
ATOM      3  H1  UNL     1      33.423  50.946  23.071  1.00  0.00     0.196 HD
ENDROOT
BRANCH   1   4
HETATM    4  C5  UNL     1      34.800  49.459  20.473  1.00  0.00     0.122 A
HETATM    5  C4  UNL     1      34.502  48.420  19.603  1.00  0.00     0.043 A
HETATM    6  C3  UNL     1      35.202  48.685  18.443  1.00  0.00     0.035 A
HETATM    7  C2  UNL     1      35.891  49.858  18.645  1.00  0.00     0.050 A
HETATM    8  C1  UNL     1      36.780  50.503  17.625  1.00  0.00     0.076 C
HETATM    9  O3  UNL     1      35.624  50.269  19.842  1.00  0.00    -0.312 OA
ENDBRANCH   1   4
BRANCH   1  10
HETATM   10  N2  UNL     1      34.448  48.696  22.853  1.00  0.00    -0.282 N
ATOM     11  H2  UNL     1      35.320  48.623  23.377  1.00  0.00     0.188 HD
BRANCH  10  12
HETATM   12  N3  UNL     1      33.399  47.846  23.149  1.00  0.00    -0.307 N
HETATM   13  C7  UNL     1      32.620  47.989  24.167  1.00  0.00     0.144 C
ATOM     14  H3  UNL     1      33.230  47.058  22.524  1.00  0.00     0.186 HD
BRANCH  13  15
HETATM   15  C8  UNL     1      31.549  47.000  24.346  1.00  0.00     0.091 A
HETATM   16  C9  UNL     1      31.548  45.709  23.814  1.00  0.00     0.040 A
HETATM   17  C10 UNL     1      30.387  45.092  24.197  1.00  0.00     0.027 A
HETATM   18  C11 UNL     1      29.711  46.040  24.962  1.00  0.00     0.142 A
HETATM   19  O2  UNL     1      30.436  47.127  25.012  1.00  0.00    -0.321 OA
ENDBRANCH  13  15
ENDBRANCH  10  12
ENDBRANCH   1  10
BRANCH   2  20
HETATM   20  O1  UNL     1      33.630  51.733  21.157  1.00  0.00    -0.288 OA
ATOM     21  H1  UNL     1      33.272  52.582  21.391  1.00  0.00     0.244 HD
ENDBRANCH   2  20
TORSDOF 5
ENDMDL