MODEL 5
REMARK VINA RESULT: -7.894173200      3.462      7.429
REMARK  5 active torsions:
REMARK  status: ('A' for Active; 'I' for Inactive)
REMARK    1  A    between atoms: N1_1  and  C1_4
REMARK    2  A    between atoms: N2_7  and  C4_8
REMARK    3  A    between atoms: C5_9  and  C6_10
REMARK    4  A    between atoms: C6_10  and  C7_12
REMARK    5  A    between atoms: C11_16  and  O2_17
ROOT
HETATM    1  C4  UNL     1      35.032  47.913  16.746  1.00  0.00     0.108 C
HETATM    2  C5  UNL     1      34.448  47.047  17.553  1.00  0.00     0.073 C
ENDROOT
BRANCH   2   3
HETATM    3  C6  UNL     1      34.007  45.775  17.040  1.00  0.00     0.183 C
HETATM    4  O1  UNL     1      34.287  45.445  15.835  1.00  0.00    -0.288 OA
BRANCH   3   5
HETATM    5  C7  UNL     1      33.243  44.811  17.825  1.00  0.00     0.017 A
HETATM    6  C8  UNL     1      32.816  45.075  19.108  1.00  0.00     0.015 A
HETATM    7  C9  UNL     1      32.084  44.121  19.827  1.00  0.00     0.004 A
HETATM    8  C10 UNL     1      31.765  42.893  19.288  1.00  0.00     0.036 A
HETATM    9  C11 UNL     1      32.187  42.626  18.010  1.00  0.00     0.066 A
HETATM   10  C12 UNL     1      32.906  43.573  17.313  1.00  0.00     0.052 A
BRANCH   9  11
HETATM   11  O2  UNL     1      31.874  41.388  17.442  1.00  0.00    -0.361 OA
ATOM     12  H2  UNL     1      32.424  40.640  17.641  1.00  0.00     0.217 HD
ENDBRANCH   9  11
ENDBRANCH   3   5
ENDBRANCH   2   3
BRANCH   1  13
HETATM   13  N2  UNL     1      35.473  49.191  17.266  1.00  0.00    -0.302 N
HETATM   14  C3  UNL     1      36.702  49.695  17.240  1.00  0.00     0.107 A
HETATM   15  C2  UNL     1      36.891  50.904  17.783  1.00  0.00     0.056 A
HETATM   16  C1  UNL     1      35.796  51.524  18.322  1.00  0.00     0.086 A
HETATM   17  S1  UNL     1      34.562  50.386  18.043  1.00  0.00     0.009 SA
BRANCH  16  18
HETATM   18  N1  UNL     1      35.752  52.703  18.900  1.00  0.00    -0.392 N
ATOM     19  H12 UNL     1      35.289  53.565  18.610  1.00  0.00     0.156 HD
ATOM     20  H11 UNL     1      36.192  52.977  19.779  1.00  0.00     0.156 HD
ENDBRANCH  16  18
ENDBRANCH   1  13
TORSDOF 5
ENDMDL