MODEL 4
REMARK VINA RESULT: -7.595249915      2.870      6.618
REMARK  5 active torsions:
REMARK  status: ('A' for Active; 'I' for Inactive)
REMARK    1  A    between atoms: C2_2  and  N1_5
REMARK    2  A    between atoms: N1_5  and  N2_7
REMARK    3  A    between atoms: C5_9  and  C6_10
REMARK    4  A    between atoms: C8_12  and  N3_13
REMARK    5  A    between atoms: C11_18  and  O3_19
ROOT
HETATM    1  C6  UNL     1      33.644  46.554  17.518  1.00  0.00     0.016 A
HETATM    2  C7  UNL     1      32.903  45.595  18.203  1.00  0.00     0.051 A
HETATM    3  C8  UNL     1      32.907  44.254  17.900  1.00  0.00     0.103 A
HETATM    4  C9  UNL     1      33.698  43.848  16.852  1.00  0.00     0.039 A
HETATM    5  C10 UNL     1      34.434  44.770  16.165  1.00  0.00     0.040 A
HETATM    6  C11 UNL     1      34.436  46.150  16.470  1.00  0.00     0.077 A
ENDROOT
BRANCH   1   7
HETATM    7  C5  UNL     1      33.558  47.927  17.927  1.00  0.00     0.121 C
HETATM    8  N2  UNL     1      34.180  48.940  17.525  1.00  0.00    -0.315 N
ATOM      9  H2  UNL     1      34.857  48.753  16.785  1.00  0.00     0.185 HD
BRANCH   8  10
HETATM   10  N1  UNL     1      34.108  50.249  17.904  1.00  0.00    -0.328 N
ATOM     11  H1  UNL     1      33.252  50.749  17.666  1.00  0.00     0.181 HD
BRANCH  10  12
HETATM   12  C2  UNL     1      35.128  50.998  18.611  1.00  0.00     0.035 C
HETATM   13  C1  UNL     1      36.486  50.903  17.903  1.00  0.00     0.039 C
HETATM   14  C3  UNL     1      35.286  50.378  19.992  1.00  0.00     0.039 C
HETATM   15  C4  UNL     1      34.825  52.461  18.745  1.00  0.00     0.039 C
ENDBRANCH  10  12
ENDBRANCH   8  10
ENDBRANCH   1   7
BRANCH   6  16
HETATM   16  O3  UNL     1      35.225  46.964  15.695  1.00  0.00    -0.360 OA
ATOM     17  H3  UNL     1      36.164  47.078  15.782  1.00  0.00     0.217 HD
ENDBRANCH   6  16
BRANCH   3  18
HETATM   18  N3  UNL     1      32.131  43.312  18.631  1.00  0.00    -0.116 N
HETATM   19  O1  UNL     1      32.602  42.765  19.644  1.00  0.00    -0.532 OA
HETATM   20  O2  UNL     1      30.877  43.015  18.217  1.00  0.00    -0.532 OA
ENDBRANCH   3  18
TORSDOF 5
ENDMDL