MODEL 5
REMARK VINA RESULT: -6.672716483      2.490      5.298
REMARK  5 active torsions:
REMARK  status: ('A' for Active; 'I' for Inactive)
REMARK    1  A    between atoms: O1_2  and  C2_3
REMARK       I    between atoms: C2_3  and  N1_5
REMARK    2  A    between atoms: N1_5  and  C3_7
REMARK    3  A    between atoms: C3_7  and  C4_8
REMARK    4  A    between atoms: C3_7  and  C8_15
REMARK    5  A    between atoms: N2_11  and  O3_12
ROOT
HETATM    1  C3  UNL     1      33.654  47.679  20.149  1.00  0.00     0.161 C
ENDROOT
BRANCH   1   2
HETATM    2  N1  UNL     1      33.893  48.583  19.062  1.00  0.00    -0.324 N
HETATM    3  C2  UNL     1      34.938  49.533  19.106  1.00  0.00     0.360 C
HETATM    4  O2  UNL     1      35.678  49.591  20.119  1.00  0.00    -0.239 OA
ATOM      5  H1  UNL     1      33.295  48.538  18.236  1.00  0.00     0.165 HD
BRANCH   3   6
HETATM    6  O1  UNL     1      35.139  50.389  18.038  1.00  0.00    -0.309 OA
HETATM    7  C1  UNL     1      36.395  51.066  17.946  1.00  0.00     0.215 C
ENDBRANCH   3   6
ENDBRANCH   1   2
BRANCH   1   8
HETATM    8  C4  UNL     1      33.281  46.353  19.609  1.00  0.00    -0.011 A
HETATM    9  C5  UNL     1      32.990  46.051  18.292  1.00  0.00     0.030 A
HETATM   10  C6  UNL     1      32.699  44.715  18.245  1.00  0.00     0.123 A
HETATM   11  N2  UNL     1      32.796  44.166  19.475  1.00  0.00    -0.247 N
HETATM   12  C7  UNL     1      33.149  45.166  20.298  1.00  0.00     0.132 A
BRANCH  11  13
HETATM   13  O3  UNL     1      32.579  42.845  19.836  1.00  0.00    -0.284 OA
ATOM     14  H3  UNL     1      32.006  42.514  20.518  1.00  0.00     0.245 HD
ENDBRANCH  11  13
ENDBRANCH   1   8
BRANCH   1  15
HETATM   15  C8  UNL     1      32.538  48.178  21.031  1.00  0.00     0.010 A
HETATM   16  C9  UNL     1      31.191  48.042  20.838  1.00  0.00     0.017 A
HETATM   17  C10 UNL     1      30.378  48.569  21.757  1.00  0.00     0.008 A
HETATM   18  C11 UNL     1      30.961  49.204  22.823  1.00  0.00     0.050 A
HETATM   19  S1  UNL     1      32.629  49.040  22.497  1.00  0.00    -0.104 SA
ENDBRANCH   1  15
TORSDOF 5
ENDMDL