MODEL 5
REMARK VINA RESULT: -6.844736230      2.583      6.075
REMARK  3 active torsions:
REMARK  status: ('A' for Active; 'I' for Inactive)
REMARK       I    between atoms: N1_2  and  C2_4
REMARK       I    between atoms: C2_4  and  N2_6
REMARK    1  A    between atoms: N2_6  and  C3_8
REMARK    2  A    between atoms: C6_11  and  N3_12
REMARK    3  A    between atoms: C8_16  and  N4_17
ROOT
HETATM    1  C3  UNL     1      34.379  47.656  20.631  1.00  0.00     0.069 A
HETATM    2  C4  UNL     1      35.170  48.631  21.184  1.00  0.00     0.034 A
HETATM    3  C5  UNL     1      35.829  49.580  20.410  1.00  0.00     0.038 A
HETATM    4  C6  UNL     1      35.690  49.548  19.041  1.00  0.00     0.105 A
HETATM    5  C7  UNL     1      34.899  48.573  18.487  1.00  0.00     0.074 A
HETATM    6  C8  UNL     1      34.239  47.627  19.243  1.00  0.00     0.132 A
ENDROOT
BRANCH   1   7
HETATM    7  N2  UNL     1      33.773  46.677  21.437  1.00  0.00    -0.307 N
HETATM    8  C2  UNL     1      32.596  46.748  22.195  1.00  0.00     0.320 C
HETATM    9  N1  UNL     1      32.184  45.586  22.960  1.00  0.00    -0.347 N
HETATM   10  O1  UNL     1      31.890  47.768  22.239  1.00  0.00    -0.247 OA
HETATM   11  C1  UNL     1      30.966  45.675  23.737  1.00  0.00     0.151 C
ATOM     12  H1  UNL     1      32.738  44.730  22.952  1.00  0.00     0.163 HD
ATOM     13  H2  UNL     1      34.262  45.782  21.476  1.00  0.00     0.170 HD
ENDBRANCH   1   7
BRANCH   6  14
HETATM   14  N4  UNL     1      33.461  46.698  18.538  1.00  0.00    -0.113 N
HETATM   15  O4  UNL     1      32.266  46.441  18.723  1.00  0.00    -0.532 OA
HETATM   16  O5  UNL     1      34.032  45.977  17.472  1.00  0.00    -0.532 OA
ENDBRANCH   6  14
BRANCH   4  17
HETATM   17  N3  UNL     1      36.363  50.515  18.244  1.00  0.00    -0.116 N
HETATM   18  O2  UNL     1      36.939  50.139  17.212  1.00  0.00    -0.532 OA
HETATM   19  O3  UNL     1      36.384  51.843  18.597  1.00  0.00    -0.532 OA
ENDBRANCH   4  17
TORSDOF 3
ENDMDL