MODEL 3
REMARK VINA RESULT: -7.760847214      1.392      2.211
REMARK  5 active torsions:
REMARK  status: ('A' for Active; 'I' for Inactive)
REMARK    1  A    between atoms: S1_3  and  C2_4
REMARK    2  A    between atoms: C2_4  and  N3_8
REMARK    3  A    between atoms: N3_8  and  N4_10
REMARK    4  A    between atoms: C3_12  and  C4_13
REMARK    5  A    between atoms: C8_17  and  N5_18
ROOT
HETATM    1  N1  UNL     1      31.091  41.658  19.449  1.00  0.00    -0.184 NA
HETATM    2  C1  UNL     1      31.778  42.610  19.389  1.00  0.00     0.141 C
HETATM    3  S1  UNL     1      32.806  44.035  19.293  1.00  0.00     0.027 SA
ENDROOT
BRANCH   3   4
HETATM    4  C2  UNL     1      33.553  44.175  17.687  1.00  0.00     0.167 C
HETATM    5  N2  UNL     1      34.246  43.214  17.198  1.00  0.00    -0.378 N
ATOM      6  H22 UNL     1      34.380  42.353  17.728  1.00  0.00     0.158 HD
ATOM      7  H21 UNL     1      34.675  43.295  16.276  1.00  0.00     0.158 HD
BRANCH   4   8
HETATM    8  N3  UNL     1      33.368  45.367  16.955  1.00  0.00    -0.280 N
ATOM      9  H3  UNL     1      32.630  45.378  16.251  1.00  0.00     0.189 HD
BRANCH   8  10
HETATM   10  N4  UNL     1      34.108  46.518  17.119  1.00  0.00    -0.309 N
HETATM   11  C3  UNL     1      33.699  47.621  17.604  1.00  0.00     0.118 C
ATOM     12  H4  UNL     1      35.083  46.482  16.821  1.00  0.00     0.186 HD
BRANCH  11  13
HETATM   13  C4  UNL     1      34.625  48.732  17.700  1.00  0.00    -0.017 A
HETATM   14  C5  UNL     1      35.772  48.754  16.945  1.00  0.00     0.013 A
HETATM   15  C6  UNL     1      36.683  49.806  17.012  1.00  0.00     0.003 A
HETATM   16  C7  UNL     1      36.385  50.829  17.870  1.00  0.00     0.036 A
HETATM   17  C8  UNL     1      35.245  50.851  18.647  1.00  0.00     0.103 A
HETATM   18  C9  UNL     1      34.373  49.783  18.544  1.00  0.00     0.048 A
BRANCH  17  19
HETATM   19  N5  UNL     1      34.972  51.938  19.529  1.00  0.00    -0.116 N
HETATM   20  O1  UNL     1      35.556  53.018  19.396  1.00  0.00    -0.532 OA
HETATM   21  O2  UNL     1      34.066  51.799  20.529  1.00  0.00    -0.532 OA
ENDBRANCH  17  19
ENDBRANCH  11  13
ENDBRANCH   8  10
ENDBRANCH   4   8
ENDBRANCH   3   4
TORSDOF 5
ENDMDL