MODEL 1
REMARK VINA RESULT: -7.467143086      0.000      0.000
REMARK  5 active torsions:
REMARK  status: ('A' for Active; 'I' for Inactive)
REMARK    1  A    between atoms: C2_2  and  C3_3
REMARK    2  A    between atoms: C3_3  and  O1_5
REMARK    3  A    between atoms: C3_3  and  C11_14
REMARK    4  A    between atoms: O1_5  and  C4_6
REMARK    5  A    between atoms: C4_6  and  C5_8
ROOT
HETATM    1  O1  UNL     1      35.000  48.998  18.950  1.00  0.00    -0.279 OA
ENDROOT
BRANCH   1   2
HETATM    2  C3  UNL     1      35.089  50.274  18.355  1.00  0.00     0.234 C
HETATM    3  S1  UNL     1      34.798  51.485  19.701  1.00  0.00    -0.039 SA
BRANCH   2   4
HETATM    4  C2  UNL     1      34.032  50.504  17.347  1.00  0.00     0.025 C
HETATM    5  C1  UNL     1      33.371  51.645  17.310  1.00  0.00     0.011 C
ENDBRANCH   2   4
BRANCH   2   6
HETATM    6  C11 UNL     1      36.438  50.555  17.822  1.00  0.00     0.226 C
HETATM    7  O3  UNL     1      36.933  49.793  16.977  1.00  0.00    -0.645 OA
HETATM    8  O4  UNL     1      37.124  51.651  18.268  1.00  0.00    -0.645 OA
ENDBRANCH   2   6
ENDBRANCH   1   2
BRANCH   1   9
HETATM    9  C4  UNL     1      33.867  48.203  18.916  1.00  0.00     0.295 C
HETATM   10  O2  UNL     1      32.894  48.550  19.628  1.00  0.00    -0.259 OA
BRANCH   9  11
HETATM   11  C5  UNL     1      33.871  47.023  18.068  1.00  0.00     0.039 A
HETATM   12  C6  UNL     1      33.135  45.911  18.387  1.00  0.00     0.017 A
HETATM   13  C7  UNL     1      33.125  44.766  17.584  1.00  0.00     0.001 A
HETATM   14  C8  UNL     1      33.871  44.748  16.446  1.00  0.00     0.000 A
HETATM   15  C9  UNL     1      34.628  45.850  16.088  1.00  0.00     0.001 A
HETATM   16  C10 UNL     1      34.616  46.960  16.899  1.00  0.00     0.017 A
ENDBRANCH   9  11
ENDBRANCH   1   9
TORSDOF 5
ENDMDL