MODEL 1
REMARK VINA RESULT: -7.633648457      0.000      0.000
REMARK  3 active torsions:
REMARK  status: ('A' for Active; 'I' for Inactive)
REMARK       I    between atoms: C2_4  and  N2_5
REMARK       I    between atoms: C2_4  and  N3_8
REMARK    1  A    between atoms: N3_8  and  C4_10
REMARK    2  A    between atoms: C7_13  and  N4_14
REMARK    3  A    between atoms: C9_18  and  N5_19
ROOT
HETATM    1  C4  UNL     1      32.963  48.633  20.017  1.00  0.00     0.082 A
HETATM    2  C5  UNL     1      33.708  48.638  18.826  1.00  0.00     0.035 A
HETATM    3  C6  UNL     1      34.589  49.623  18.502  1.00  0.00     0.038 A
HETATM    4  C7  UNL     1      34.764  50.671  19.385  1.00  0.00     0.105 A
HETATM    5  C8  UNL     1      34.064  50.703  20.549  1.00  0.00     0.074 A
HETATM    6  C9  UNL     1      33.154  49.667  20.863  1.00  0.00     0.132 A
ENDROOT
BRANCH   1   7
HETATM    7  N3  UNL     1      32.062  47.597  20.238  1.00  0.00    -0.190 N
HETATM    8  C2  UNL     1      32.278  46.593  21.247  1.00  0.00     0.673 C
HETATM    9  N1  UNL     1      32.555  45.415  20.879  1.00  0.00    -0.231 N
HETATM   10  N2  UNL     1      32.175  46.953  22.591  1.00  0.00    -0.231 N
HETATM   11  C1  UNL     1      32.687  44.931  19.540  1.00  0.00     0.165 C
ATOM     12  H1  UNL     1      32.702  44.732  21.623  1.00  0.00     0.177 HD
HETATM   13  C3  UNL     1      32.312  46.013  23.700  1.00  0.00     0.165 C
ATOM     14  H2  UNL     1      31.994  47.931  22.813  1.00  0.00     0.177 HD
ATOM     15  H3  UNL     1      31.219  47.546  19.666  1.00  0.00     0.184 HD
ENDBRANCH   1   7
BRANCH   6  16
HETATM   16  N5  UNL     1      32.489  49.803  22.083  1.00  0.00    -0.113 N
HETATM   17  O3  UNL     1      33.184  49.803  23.146  1.00  0.00    -0.532 OA
HETATM   18  O4  UNL     1      31.146  49.939  22.194  1.00  0.00    -0.532 OA
ENDBRANCH   6  16
BRANCH   4  19
HETATM   19  N4  UNL     1      35.695  51.706  19.036  1.00  0.00    -0.116 N
HETATM   20  O1  UNL     1      35.457  52.892  19.266  1.00  0.00    -0.532 OA
HETATM   21  O2  UNL     1      36.886  51.387  18.429  1.00  0.00    -0.532 OA
ENDBRANCH   4  19
TORSDOF 3
ENDMDL