MODEL 1
REMARK VINA RESULT: -7.592847650      0.000      0.000
REMARK  6 active torsions:
REMARK  status: ('A' for Active; 'I' for Inactive)
REMARK    1  A    between atoms: N1_3  and  C1_4
REMARK    2  A    between atoms: C1_4  and  N2_5
REMARK    3  A    between atoms: C1_4  and  O3_15
REMARK    4  A    between atoms: N2_5  and  N3_7
REMARK    5  A    between atoms: C2_9  and  C3_10
REMARK    6  A    between atoms: O3_15  and  C7_16
ROOT
HETATM    1  O1  UNL     1      34.402  50.038  22.841  1.00  0.00    -0.215 OA
ATOM      2  H1  UNL     1      34.852  50.306  23.633  1.00  0.00     0.262 HD
HETATM    3  N1  UNL     1      33.813  49.676  21.793  1.00  0.00    -0.235 NA
ENDROOT
BRANCH   3   4
HETATM    4  C1  UNL     1      33.243  49.338  20.794  1.00  0.00     0.349 C
BRANCH   4   5
HETATM    5  N2  UNL     1      32.403  48.144  20.698  1.00  0.00    -0.251 N
ATOM      6  H2  UNL     1      31.487  48.097  21.144  1.00  0.00     0.191 HD
BRANCH   5   7
HETATM    7  N3  UNL     1      32.910  47.085  19.975  1.00  0.00    -0.305 N
HETATM    8  C2  UNL     1      32.401  46.758  18.844  1.00  0.00     0.144 C
ATOM      9  H3  UNL     1      33.700  46.555  20.344  1.00  0.00     0.186 HD
BRANCH   8  10
HETATM   10  C3  UNL     1      32.978  45.635  18.128  1.00  0.00     0.091 A
HETATM   11  C4  UNL     1      33.644  45.737  16.934  1.00  0.00     0.040 A
HETATM   12  C5  UNL     1      34.048  44.473  16.557  1.00  0.00     0.027 A
HETATM   13  C6  UNL     1      33.597  43.641  17.567  1.00  0.00     0.142 A
HETATM   14  O2  UNL     1      32.971  44.378  18.470  1.00  0.00    -0.321 OA
ENDBRANCH   8  10
ENDBRANCH   5   7
ENDBRANCH   4   5
BRANCH   4  15
HETATM   15  O3  UNL     1      33.326  50.064  19.586  1.00  0.00    -0.266 OA
BRANCH  15  16
HETATM   16  C7  UNL     1      34.517  50.202  18.911  1.00  0.00     0.080 A
HETATM   17  C8  UNL     1      35.096  49.239  18.151  1.00  0.00     0.037 A
HETATM   18  C9  UNL     1      36.299  49.482  17.506  1.00  0.00     0.003 A
HETATM   19  C10 UNL     1      36.915  50.701  17.633  1.00  0.00     0.000 A
HETATM   20  C11 UNL     1      36.314  51.684  18.416  1.00  0.00     0.003 A
HETATM   21  C12 UNL     1      35.131  51.461  19.056  1.00  0.00     0.037 A
ENDBRANCH  15  16
ENDBRANCH   4  15
ENDBRANCH   3   4
TORSDOF 6
ENDMDL