MODEL 5
REMARK VINA RESULT: -8.152106883      1.952      5.376
REMARK  9 active torsions:
REMARK  status: ('A' for Active; 'I' for Inactive)
REMARK    1  A    between atoms: C2_2  and  C3_3
REMARK    2  A    between atoms: C3_3  and  N1_4
REMARK    3  A    between atoms: C11_12  and  C12_13
REMARK    4  A    between atoms: C12_13  and  O1_14
REMARK    5  A    between atoms: N2_17  and  C15_18
REMARK    6  A    between atoms: C16_20  and  C17_21
REMARK    7  A    between atoms: C17_21  and  O3_22
REMARK    8  A    between atoms: C18_24  and  O4_25
REMARK    9  A    between atoms: C22_30  and  O5_31
ROOT
HETATM    1  N1  UNL     1       5.631  42.779  50.544  1.00  0.00    -0.336 N
HETATM    2  C4  UNL     1       4.894  43.391  51.547  1.00  0.00     0.107 A
HETATM    3  C5  UNL     1       5.476  44.554  51.878  1.00  0.00     0.022 A
HETATM    4  C6  UNL     1       6.620  44.667  51.045  1.00  0.00     0.035 A
HETATM    5  C7  UNL     1       7.489  45.724  51.188  1.00  0.00    -0.046 A
HETATM    6  C8  UNL     1       8.644  45.896  50.281  1.00  0.00     0.049 C
HETATM    7  C9  UNL     1       7.218  46.639  52.165  1.00  0.00     0.022 A
HETATM    8  C10 UNL     1       6.094  46.516  52.978  1.00  0.00     0.002 A
HETATM    9  C11 UNL     1       5.718  47.347  54.058  1.00  0.00    -0.006 A
HETATM   10  C14 UNL     1       4.594  46.751  54.520  1.00  0.00     0.104 A
HETATM   11  N2  UNL     1       4.254  45.626  53.806  1.00  0.00    -0.327 N
HETATM   12  C21 UNL     1       5.216  45.495  52.847  1.00  0.00     0.060 A
HETATM   13  C22 UNL     1       6.655  43.536  50.240  1.00  0.00     0.154 A
ENDROOT
BRANCH  11  14
HETATM   14  C15 UNL     1       3.022  44.901  53.881  1.00  0.00     0.234 C
HETATM   15  O2  UNL     1       2.359  44.764  55.055  1.00  0.00    -0.356 OA
HETATM   16  C16 UNL     1       1.059  44.320  54.649  1.00  0.00     0.176 C
HETATM   17  C18 UNL     1       0.739  45.562  53.771  1.00  0.00     0.157 C
HETATM   18  C19 UNL     1       1.988  45.623  52.943  1.00  0.00     0.062 C
HETATM   19  C20 UNL     1       1.775  44.845  51.673  1.00  0.00     0.017 C
BRANCH  16  20
HETATM   20  C17 UNL     1       0.121  44.216  55.797  1.00  0.00     0.198 C
BRANCH  20  21
HETATM   21  O3  UNL     1       0.581  44.871  56.957  1.00  0.00    -0.398 OA
ATOM     22  H3  UNL     1       1.226  45.546  56.779  1.00  0.00     0.209 HD
ENDBRANCH  20  21
ENDBRANCH  16  20
BRANCH  17  23
HETATM   23  O4  UNL     1       0.627  46.689  54.604  1.00  0.00    -0.392 OA
ATOM     24  H4  UNL     1       1.305  47.311  54.370  1.00  0.00     0.210 HD
ENDBRANCH  17  23
ENDBRANCH  11  14
BRANCH   9  25
HETATM   25  C12 UNL     1       6.421  48.622  54.262  1.00  0.00     0.208 C
BRANCH  25  26
HETATM   26  O1  UNL     1       7.063  48.896  55.424  1.00  0.00    -0.391 OA
HETATM   27  C13 UNL     1       8.468  48.968  55.035  1.00  0.00     0.201 C
ENDBRANCH  25  26
ENDBRANCH   9  25
BRANCH   1  28
HETATM   28  C3  UNL     1       5.230  41.449  50.105  1.00  0.00     0.130 C
BRANCH  28  29
HETATM   29  C2  UNL     1       3.759  41.333  50.611  1.00  0.00     0.016 C
HETATM   30  C1  UNL     1       2.931  40.559  49.639  1.00  0.00     0.006 C
ENDBRANCH  28  29
ENDBRANCH   1  28
BRANCH  13  31
HETATM   31  O5  UNL     1       7.646  43.296  49.276  1.00  0.00    -0.345 OA
ATOM     32  H5  UNL     1       8.032  43.918  48.670  1.00  0.00     0.219 HD
ENDBRANCH  13  31
TORSDOF 9
ENDMDL