MODEL 5
REMARK VINA RESULT: -8.430231338      1.892      2.512
REMARK  7 active torsions:
REMARK  status: ('A' for Active; 'I' for Inactive)
REMARK    1  A    between atoms: C2_2  and  C3_3
REMARK    2  A    between atoms: C3_3  and  C4_4
REMARK    3  A    between atoms: C4_4  and  O1_6
REMARK    4  A    between atoms: O1_6  and  C6_7
REMARK    5  A    between atoms: C7_8  and  C8_9
REMARK    6  A    between atoms: C9_13  and  C10_14
REMARK    7  A    between atoms: C12_17  and  N1_18
REMARK       I    between atoms: N1_18  and  C13_20
ROOT
HETATM    1  N1  UNL     1       0.040  42.866  50.297  1.00  0.00    -0.310 N
ATOM      2  H1  UNL     1      -0.872  43.192  49.978  1.00  0.00     0.170 HD
HETATM    3  C13 UNL     1       0.814  41.965  49.531  1.00  0.00     0.203 C
HETATM    4  N2  UNL     1       1.303  42.335  48.260  1.00  0.00    -0.062 NA
HETATM    5  N3  UNL     1       1.072  40.801  49.996  1.00  0.00    -0.267 N
ATOM      6  H3  UNL     1       0.714  40.544  50.916  1.00  0.00     0.180 HD
HETATM    7  C14 UNL     1       1.835  39.869  49.276  1.00  0.00     0.184 C
HETATM    8  N4  UNL     1       2.459  39.100  48.672  1.00  0.00    -0.172 NA
ENDROOT
BRANCH   1   9
HETATM    9  C12 UNL     1       0.557  43.269  51.453  1.00  0.00     0.151 A
HETATM   10  S2  UNL     1      -0.001  42.996  53.028  1.00  0.00    -0.063 SA
HETATM   11  C11 UNL     1       1.244  43.857  53.869  1.00  0.00     0.084 A
HETATM   12  C10 UNL     1       2.030  44.312  52.848  1.00  0.00     0.059 A
HETATM   13  N5  UNL     1       1.650  43.991  51.626  1.00  0.00    -0.335 N
ATOM     14  H5  UNL     1       2.195  44.299  50.821  1.00  0.00     0.168 HD
BRANCH  12  15
HETATM   15  C9  UNL     1       3.233  45.173  53.085  1.00  0.00     0.056 A
HETATM   16  S1  UNL     1       3.195  46.596  54.070  1.00  0.00    -0.077 SA
HETATM   17  C7  UNL     1       4.850  47.037  53.955  1.00  0.00     0.117 A
HETATM   18  C6  UNL     1       5.373  46.062  53.158  1.00  0.00     0.115 A
HETATM   19  C15 UNL     1       4.517  45.095  52.709  1.00  0.00     0.099 A
HETATM   20  C16 UNL     1       5.004  44.030  51.824  1.00  0.00     0.104 C
HETATM   21  N6  UNL     1       5.432  43.179  51.107  1.00  0.00    -0.191 NA
BRANCH  17  22
HETATM   22  C8  UNL     1       5.407  48.222  54.602  1.00  0.00     0.219 C
HETATM   23  O2  UNL     1       6.534  48.321  55.062  1.00  0.00    -0.643 OA
HETATM   24  O3  UNL     1       4.583  49.370  54.716  1.00  0.00    -0.643 OA
ENDBRANCH  17  22
BRANCH  18  25
HETATM   25  O1  UNL     1       6.732  46.105  52.847  1.00  0.00    -0.343 OA
BRANCH  25  26
HETATM   26  C4  UNL     1       7.382  46.713  51.801  1.00  0.00     0.125 C
HETATM   27  C5  UNL     1       8.031  45.657  50.927  1.00  0.00     0.040 C
BRANCH  26  28
HETATM   28  C3  UNL     1       8.435  47.751  52.190  1.00  0.00     0.032 C
BRANCH  28  29
HETATM   29  C2  UNL     1       9.645  47.042  52.799  1.00  0.00    -0.002 C
HETATM   30  C1  UNL     1       9.747  47.441  54.252  1.00  0.00     0.005 C
ENDBRANCH  28  29
ENDBRANCH  26  28
ENDBRANCH  25  26
ENDBRANCH  18  25
ENDBRANCH  12  15
ENDBRANCH   1   9
TORSDOF 7
ENDMDL