MODEL 2
REMARK VINA RESULT: -7.344888497      1.678      2.542
REMARK  8 active torsions:
REMARK  status: ('A' for Active; 'I' for Inactive)
REMARK    1  A    between atoms: O1_2  and  C2_3
REMARK    2  A    between atoms: C7_8  and  O2_9
REMARK    3  A    between atoms: C8_11  and  O3_12
REMARK    4  A    between atoms: C10_15  and  C11_16
REMARK    5  A    between atoms: C12_17  and  C13_18
REMARK    6  A    between atoms: C15_22  and  O6_23
REMARK    7  A    between atoms: C17_25  and  O7_26
REMARK    8  A    between atoms: C19_28  and  O8_29
ROOT
HETATM    1  C2  UNL     1      -1.976  43.227  52.839  1.00  0.00     0.103 A
HETATM    2  C3  UNL     1      -0.816  42.616  53.237  1.00  0.00     0.077 A
HETATM    3  C4  UNL     1       0.413  43.250  53.045  1.00  0.00     0.087 A
HETATM    4  C5  UNL     1       0.479  44.484  52.462  1.00  0.00     0.013 A
HETATM    5  C6  UNL     1      -0.704  45.080  52.069  1.00  0.00     0.052 A
HETATM    6  C7  UNL     1      -1.924  44.473  52.248  1.00  0.00     0.099 A
HETATM    7  C8  UNL     1       1.902  44.948  52.414  1.00  0.00     0.211 A
HETATM    8  C9  UNL     1       2.639  43.812  52.964  1.00  0.00     0.087 A
HETATM    9  C10 UNL     1       3.934  43.579  53.135  1.00  0.00     0.051 C
HETATM   10  O9  UNL     1       1.690  42.853  53.345  1.00  0.00    -0.311 OA
ENDROOT
BRANCH   9  11
HETATM   11  C11 UNL     1       5.025  44.470  52.789  1.00  0.00     0.020 A
HETATM   12  C12 UNL     1       5.517  45.425  53.670  1.00  0.00     0.056 A
HETATM   13  C14 UNL     1       6.557  46.267  53.267  1.00  0.00     0.059 A
HETATM   14  C15 UNL     1       7.138  46.206  52.026  1.00  0.00     0.105 A
HETATM   15  C17 UNL     1       6.651  45.260  51.163  1.00  0.00     0.136 A
HETATM   16  C19 UNL     1       5.605  44.395  51.533  1.00  0.00     0.115 A
BRANCH  12  17
HETATM   17  C13 UNL     1       5.051  45.519  55.023  1.00  0.00     0.210 C
HETATM   18  O4  UNL     1       5.605  44.834  55.912  1.00  0.00    -0.644 OA
HETATM   19  O5  UNL     1       4.006  46.339  55.380  1.00  0.00    -0.644 OA
ENDBRANCH  12  17
BRANCH  14  20
HETATM   20  O6  UNL     1       8.179  47.067  51.652  1.00  0.00    -0.353 OA
HETATM   21  C16 UNL     1       9.411  46.962  52.352  1.00  0.00     0.210 C
ENDBRANCH  14  20
BRANCH  15  22
HETATM   22  O7  UNL     1       7.186  45.132  49.888  1.00  0.00    -0.351 OA
HETATM   23  C18 UNL     1       8.364  44.352  49.727  1.00  0.00     0.210 C
ENDBRANCH  15  22
BRANCH  16  24
HETATM   24  O8  UNL     1       5.149  43.453  50.638  1.00  0.00    -0.352 OA
HETATM   25  C20 UNL     1       5.726  42.190  50.533  1.00  0.00     0.210 C
ENDBRANCH  16  24
ENDBRANCH   9  11
BRANCH   7  26
HETATM   26  O3  UNL     1       2.042  46.084  53.224  1.00  0.00    -0.384 OA
ATOM     27  H3  UNL     1       2.239  45.811  54.112  1.00  0.00     0.211 HD
ENDBRANCH   7  26
BRANCH   6  28
HETATM   28  O2  UNL     1      -3.107  45.091  51.844  1.00  0.00    -0.358 OA
ATOM     29  H2  UNL     1      -3.066  45.870  51.302  1.00  0.00     0.217 HD
ENDBRANCH   6  28
BRANCH   1  30
HETATM   30  O1  UNL     1      -3.183  42.587  53.035  1.00  0.00    -0.353 OA
HETATM   31  C1  UNL     1      -3.770  41.767  52.073  1.00  0.00     0.210 C
ENDBRANCH   1  30
TORSDOF 8
ENDMDL