MODEL 1
REMARK VINA RESULT: -8.578218315      0.000      0.000
REMARK  7 active torsions:
REMARK  status: ('A' for Active; 'I' for Inactive)
REMARK    1  A    between atoms: O1_2  and  C2_3
REMARK    2  A    between atoms: C7_8  and  O2_9
REMARK    3  A    between atoms: C8_11  and  C9_12
REMARK    4  A    between atoms: C10_15  and  C11_16
REMARK    5  A    between atoms: C16_22  and  O5_23
REMARK    6  A    between atoms: N2_25  and  C18_26
REMARK    7  A    between atoms: C18_26  and  C20_28
ROOT
HETATM    1  C2  UNL     1       4.440  41.488  50.389  1.00  0.00     0.103 A
HETATM    2  C3  UNL     1       4.146  42.323  51.438  1.00  0.00     0.070 A
HETATM    3  C4  UNL     1       4.901  43.461  51.665  1.00  0.00     0.050 A
HETATM    4  C5  UNL     1       5.958  43.763  50.831  1.00  0.00     0.011 A
HETATM    5  C6  UNL     1       6.281  42.950  49.772  1.00  0.00     0.054 A
HETATM    6  C7  UNL     1       5.497  41.809  49.573  1.00  0.00     0.100 A
HETATM    7  C8  UNL     1       6.493  44.935  51.319  1.00  0.00     0.071 A
HETATM    8  C10 UNL     1       5.749  45.335  52.446  1.00  0.00     0.089 A
HETATM    9  N2  UNL     1       4.789  44.420  52.635  1.00  0.00    -0.328 N
ENDROOT
BRANCH   8  10
HETATM   10  C11 UNL     1       5.999  46.563  53.222  1.00  0.00     0.137 A
HETATM   11  O4  UNL     1       5.155  47.516  53.497  1.00  0.00    -0.310 OA
HETATM   12  C12 UNL     1       5.702  48.462  54.203  1.00  0.00     0.059 A
HETATM   13  C13 UNL     1       5.039  49.721  54.706  1.00  0.00     0.077 C
HETATM   14  C14 UNL     1       7.008  48.121  54.418  1.00  0.00     0.004 A
HETATM   15  C15 UNL     1       8.038  48.905  55.185  1.00  0.00     0.054 C
HETATM   16  C16 UNL     1       7.208  46.897  53.789  1.00  0.00     0.112 A
BRANCH  16  17
HETATM   17  O5  UNL     1       8.409  46.227  53.781  1.00  0.00    -0.352 OA
HETATM   18  C17 UNL     1       9.644  46.814  53.579  1.00  0.00     0.210 C
ENDBRANCH  16  17
ENDBRANCH   8  10
BRANCH   7  19
HETATM   19  C9  UNL     1       7.637  45.688  50.832  1.00  0.00     0.268 C
HETATM   20  N1  UNL     1       8.877  45.056  50.602  1.00  0.00    -0.057 NA
HETATM   21  O3  UNL     1       7.558  46.919  50.604  1.00  0.00    -0.271 OA
ENDBRANCH   7  19
BRANCH   9  22
HETATM   22  C18 UNL     1       3.796  44.404  53.680  1.00  0.00     0.187 C
HETATM   23  C19 UNL     1       2.545  45.177  53.378  1.00  0.00     0.044 C
BRANCH  22  24
HETATM   24  C20 UNL     1       4.379  44.736  55.006  1.00  0.00     0.196 C
HETATM   25  O6  UNL     1       3.829  45.582  55.747  1.00  0.00    -0.646 OA
HETATM   26  O7  UNL     1       5.535  44.127  55.456  1.00  0.00    -0.646 OA
ENDBRANCH  22  24
ENDBRANCH   9  22
BRANCH   6  27
HETATM   27  O2  UNL     1       5.827  40.994  48.503  1.00  0.00    -0.358 OA
ATOM     28  H2  UNL     1       6.078  41.374  47.669  1.00  0.00     0.217 HD
ENDBRANCH   6  27
BRANCH   1  29
HETATM   29  O1  UNL     1       3.700  40.359  50.155  1.00  0.00    -0.353 OA
HETATM   30  C1  UNL     1       2.530  40.323  49.396  1.00  0.00     0.210 C
ENDBRANCH   1  29
TORSDOF 7
ENDMDL