MODEL 1
REMARK VINA RESULT: -8.232400490      0.000      0.000
REMARK  11 active torsions:
REMARK  status: ('A' for Active; 'I' for Inactive)
REMARK    1  A    between atoms: O1_2  and  C2_3
REMARK    2  A    between atoms: C2_3  and  C3_5
REMARK    3  A    between atoms: C4_6  and  C5_7
REMARK    4  A    between atoms: C7_10  and  O4_11
REMARK    5  A    between atoms: C8_13  and  C9_14
REMARK    6  A    between atoms: C9_14  and  C10_15
REMARK    7  A    between atoms: C14_19  and  C15_20
REMARK    8  A    between atoms: C15_20  and  O5_21
REMARK    9  A    between atoms: C15_20  and  C16_23
REMARK   10  A    between atoms: C16_23  and  O6_26
REMARK   11  A    between atoms: C19_28  and  O7_29
ROOT
HETATM    1  C5  UNL     1       7.110  48.870  54.667  1.00  0.00     0.227 C
HETATM    2  O3  UNL     1       7.160  47.483  55.120  1.00  0.00    -0.330 OA
HETATM    3  C6  UNL     1       6.096  46.841  54.480  1.00  0.00     0.120 A
HETATM    4  C7  UNL     1       5.881  45.541  54.087  1.00  0.00     0.107 A
HETATM    5  C8  UNL     1       4.684  45.175  53.447  1.00  0.00    -0.003 A
HETATM    6  C14 UNL     1       3.682  46.088  53.191  1.00  0.00     0.040 A
HETATM    7  C19 UNL     1       3.929  47.415  53.601  1.00  0.00     0.096 A
HETATM    8  C20 UNL     1       5.097  47.748  54.217  1.00  0.00     0.083 A
HETATM    9  C21 UNL     1       5.616  49.032  54.748  1.00  0.00     0.198 C
HETATM   10  O8  UNL     1       4.901  49.955  55.139  1.00  0.00    -0.289 OA
ENDROOT
BRANCH   6  11
HETATM   11  C15 UNL     1       2.456  45.892  52.497  1.00  0.00     0.090 C
BRANCH  11  12
HETATM   12  O5  UNL     1       2.513  46.327  51.232  1.00  0.00    -0.361 OA
ATOM     13  H5  UNL     1       1.652  46.525  50.879  1.00  0.00     0.217 HD
ENDBRANCH  11  12
BRANCH  11  14
HETATM   14  C16 UNL     1       1.144  45.348  52.816  1.00  0.00     0.100 C
HETATM   15  C17 UNL     1       1.226  44.338  53.965  1.00  0.00     0.053 C
HETATM   16  C18 UNL     1       0.657  44.458  51.625  1.00  0.00     0.053 C
BRANCH  14  17
HETATM   17  O6  UNL     1       0.104  46.222  53.004  1.00  0.00    -0.384 OA
ATOM     18  H6  UNL     1       0.112  46.777  53.775  1.00  0.00     0.211 HD
ENDBRANCH  14  17
ENDBRANCH  11  14
ENDBRANCH   6  11
BRANCH   5  19
HETATM   19  C9  UNL     1       4.635  43.793  52.960  1.00  0.00     0.070 C
BRANCH  19  20
HETATM   20  C10 UNL     1       5.320  43.664  51.633  1.00  0.00    -0.020 C
HETATM   21  C11 UNL     1       5.094  42.696  50.783  1.00  0.00    -0.091 C
HETATM   22  C12 UNL     1       4.130  41.595  51.007  1.00  0.00     0.042 C
HETATM   23  C13 UNL     1       5.850  42.669  49.483  1.00  0.00     0.042 C
ENDBRANCH  19  20
ENDBRANCH   5  19
BRANCH   7  24
HETATM   24  O7  UNL     1       2.941  48.398  53.363  1.00  0.00    -0.359 OA
ATOM     25  H7  UNL     1       3.075  49.275  53.702  1.00  0.00     0.217 HD
ENDBRANCH   7  24
BRANCH   4  26
HETATM   26  O4  UNL     1       6.852  44.583  54.326  1.00  0.00    -0.357 OA
ATOM     27  H4  UNL     1       6.743  43.972  55.044  1.00  0.00     0.217 HD
ENDBRANCH   4  26
BRANCH   1  28
HETATM   28  C4  UNL     1       7.488  48.865  53.265  1.00  0.00     0.019 C
HETATM   29  C3  UNL     1       8.490  48.238  52.735  1.00  0.00     0.081 C
BRANCH  29  30
HETATM   30  C2  UNL     1       9.417  47.424  53.467  1.00  0.00     0.282 C
HETATM   31  O2  UNL     1      10.112  47.846  54.390  1.00  0.00    -0.260 OA
BRANCH  30  32
HETATM   32  O1  UNL     1       9.546  46.080  53.128  1.00  0.00    -0.323 OA
HETATM   33  C1  UNL     1       9.785  45.691  51.786  1.00  0.00     0.213 C
ENDBRANCH  30  32
ENDBRANCH  29  30
ENDBRANCH   1  28
TORSDOF 11
ENDMDL