MODEL 4
REMARK VINA RESULT: -7.615969602      2.046      7.105
REMARK  10 active torsions:
REMARK  status: ('A' for Active; 'I' for Inactive)
REMARK    1  A    between atoms: C2_2  and  O1_3
REMARK    2  A    between atoms: O1_3  and  C3_4
REMARK    3  A    between atoms: C3_4  and  C4_6
REMARK    4  A    between atoms: C5_8  and  N1_9
REMARK    5  A    between atoms: N1_9  and  C6_11
REMARK    6  A    between atoms: C6_11  and  C7_12
REMARK    7  A    between atoms: C7_12  and  N2_13
REMARK    8  A    between atoms: N2_13  and  C8_15
REMARK    9  A    between atoms: C11_22  and  O3_23
REMARK   10  A    between atoms: C15_31  and  C16_32
ROOT
HETATM    1  C7  UNL     1       2.614  46.809  52.787  1.00  0.00     0.141 C
ENDROOT
BRANCH   1   2
HETATM    2  C6  UNL     1       1.998  45.512  52.251  1.00  0.00     0.141 C
BRANCH   2   3
HETATM    3  N1  UNL     1       2.722  44.360  52.679  1.00  0.00    -0.369 N
ATOM      4  H1  UNL     1       2.964  44.279  53.667  1.00  0.00     0.161 HD
BRANCH   3   5
HETATM    5  C5  UNL     1       3.090  43.402  51.868  1.00  0.00     0.145 A
HETATM    6  S1  UNL     1       2.098  42.355  50.969  1.00  0.00    -0.046 SA
HETATM    7  C4  UNL     1       3.336  41.436  50.201  1.00  0.00     0.106 A
HETATM    8  C15 UNL     1       4.469  42.022  50.710  1.00  0.00     0.034 A
HETATM    9  N5  UNL     1       4.320  43.009  51.546  1.00  0.00    -0.339 N
ATOM     10  H5  UNL     1       5.134  43.474  51.948  1.00  0.00     0.168 HD
BRANCH   7  11
HETATM   11  C3  UNL     1       3.183  40.322  49.253  1.00  0.00     0.302 C
HETATM   12  O2  UNL     1       2.552  39.315  49.649  1.00  0.00    -0.259 OA
BRANCH  11  13
HETATM   13  O1  UNL     1       3.684  40.325  47.979  1.00  0.00    -0.317 OA
BRANCH  13  14
HETATM   14  C2  UNL     1       3.580  41.455  47.110  1.00  0.00     0.174 C
HETATM   15  C1  UNL     1       4.977  41.794  46.654  1.00  0.00     0.034 C
ENDBRANCH  13  14
ENDBRANCH  11  13
ENDBRANCH   7  11
BRANCH   8  16
HETATM   16  C16 UNL     1       5.845  41.508  50.293  1.00  0.00     0.054 C
HETATM   17  C17 UNL     1       6.750  42.618  49.875  1.00  0.00     0.011 C
ENDBRANCH   8  16
ENDBRANCH   3   5
ENDBRANCH   2   3
ENDBRANCH   1   2
BRANCH   1  18
HETATM   18  N2  UNL     1       4.017  46.688  52.755  1.00  0.00    -0.373 N
ATOM     19  H2  UNL     1       4.385  45.998  52.101  1.00  0.00     0.161 HD
BRANCH  18  20
HETATM   20  C8  UNL     1       4.885  47.319  53.428  1.00  0.00     0.134 A
HETATM   21  N3  UNL     1       4.603  48.196  54.406  1.00  0.00    -0.285 N
HETATM   22  N4  UNL     1       5.615  48.771  55.013  1.00  0.00    -0.309 N
ATOM     23  H3  UNL     1       3.640  48.406  54.668  1.00  0.00     0.188 HD
HETATM   24  C9  UNL     1       6.895  48.560  54.743  1.00  0.00     0.122 A
ATOM     25  H4  UNL     1       5.398  49.436  55.755  1.00  0.00     0.186 HD
HETATM   26  C10 UNL     1       7.273  47.656  53.730  1.00  0.00     0.036 A
HETATM   27  C11 UNL     1       8.512  47.328  53.331  1.00  0.00     0.091 A
HETATM   28  C14 UNL     1       6.227  47.054  53.096  1.00  0.00     0.065 A
HETATM   29  C12 UNL     1       8.624  46.413  52.313  1.00  0.00     0.014 A
HETATM   30  C13 UNL     1       9.884  45.876  51.680  1.00  0.00     0.059 C
HETATM   31  S2  UNL     1       6.993  46.046  51.957  1.00  0.00    -0.087 SA
BRANCH  27  32
HETATM   32  O3  UNL     1       9.703  47.866  53.892  1.00  0.00    -0.359 OA
ATOM     33  H3  UNL     1      10.565  47.777  53.503  1.00  0.00     0.217 HD
ENDBRANCH  27  32
ENDBRANCH  18  20
ENDBRANCH   1  18
TORSDOF 10
ENDMDL