MODEL 5
REMARK VINA RESULT: -7.783024553      2.102      4.212
REMARK  11 active torsions:
REMARK  status: ('A' for Active; 'I' for Inactive)
REMARK    1  A    between atoms: C2_2  and  O1_4
REMARK    2  A    between atoms: O1_4  and  C4_5
REMARK       I    between atoms: C4_5  and  N1_7
REMARK    3  A    between atoms: N1_7  and  C5_9
REMARK    4  A    between atoms: C5_9  and  C7_11
REMARK    5  A    between atoms: C7_11  and  O4_13
REMARK    6  A    between atoms: O4_13  and  C8_14
REMARK    7  A    between atoms: C8_14  and  C9_15
REMARK    8  A    between atoms: C11_17  and  C12_18
REMARK    9  A    between atoms: C13_23  and  C14_24
REMARK   10  A    between atoms: C14_24  and  O8_26
REMARK   11  A    between atoms: O8_26  and  C15_27
ROOT
HETATM    1  C9  UNL     1       4.519  46.317  53.312  1.00  0.00     0.001 A
HETATM    2  C10 UNL     1       3.339  45.634  53.501  1.00  0.00     0.048 A
HETATM    3  C11 UNL     1       2.977  45.826  54.823  1.00  0.00     0.111 A
HETATM    4  N2  UNL     1       3.918  46.598  55.392  1.00  0.00    -0.345 N
ATOM      5  H2  UNL     1       3.902  46.899  56.367  1.00  0.00     0.166 HD
HETATM    6  C13 UNL     1       4.864  46.920  54.530  1.00  0.00     0.117 A
ENDROOT
BRANCH   1   7
HETATM    7  C8  UNL     1       5.340  46.415  52.104  1.00  0.00     0.220 C
BRANCH   7   8
HETATM    8  O4  UNL     1       6.209  45.330  51.945  1.00  0.00    -0.315 OA
BRANCH   8   9
HETATM    9  C7  UNL     1       7.201  45.198  51.006  1.00  0.00     0.281 C
HETATM   10  O3  UNL     1       7.927  46.191  50.750  1.00  0.00    -0.263 OA
BRANCH   9  11
HETATM   11  C5  UNL     1       7.424  43.893  50.294  1.00  0.00     0.182 C
HETATM   12  C6  UNL     1       8.346  44.119  49.133  1.00  0.00     0.043 C
BRANCH  11  13
HETATM   13  N1  UNL     1       6.193  43.341  49.817  1.00  0.00    -0.323 N
HETATM   14  C4  UNL     1       5.962  41.948  49.867  1.00  0.00     0.361 C
HETATM   15  O2  UNL     1       6.822  41.173  50.325  1.00  0.00    -0.238 OA
ATOM     16  H1  UNL     1       5.475  43.960  49.438  1.00  0.00     0.165 HD
BRANCH  14  17
HETATM   17  O1  UNL     1       4.770  41.444  49.402  1.00  0.00    -0.299 OA
BRANCH  17  18
HETATM   18  C2  UNL     1       3.714  41.017  50.240  1.00  0.00     0.125 C
HETATM   19  C1  UNL     1       2.642  40.281  49.468  1.00  0.00     0.040 C
HETATM   20  C3  UNL     1       3.122  42.140  51.036  1.00  0.00     0.040 C
ENDBRANCH  17  18
ENDBRANCH  14  17
ENDBRANCH  11  13
ENDBRANCH   9  11
ENDBRANCH   8   9
ENDBRANCH   7   8
ENDBRANCH   1   7
BRANCH   6  21
HETATM   21  C14 UNL     1       6.025  47.730  54.778  1.00  0.00     0.311 C
HETATM   22  O7  UNL     1       5.994  48.974  54.986  1.00  0.00    -0.258 OA
BRANCH  21  23
HETATM   23  O8  UNL     1       7.318  47.171  54.808  1.00  0.00    -0.306 OA
BRANCH  23  24
HETATM   24  C15 UNL     1       8.425  47.823  54.237  1.00  0.00     0.060 C
HETATM   25  C16 UNL     1       9.392  46.753  53.773  1.00  0.00     0.046 C
HETATM   26  C17 UNL     1       8.050  48.675  53.052  1.00  0.00     0.046 C
HETATM   27  C18 UNL     1       9.166  48.695  55.224  1.00  0.00     0.046 C
ENDBRANCH  23  24
ENDBRANCH  21  23
ENDBRANCH   6  21
BRANCH   3  28
HETATM   28  C12 UNL     1       1.782  45.272  55.447  1.00  0.00     0.226 C
HETATM   29  O5  UNL     1       1.299  44.171  55.085  1.00  0.00    -0.643 OA
HETATM   30  O6  UNL     1       1.141  45.955  56.468  1.00  0.00    -0.643 OA
ENDBRANCH   3  28
TORSDOF 11
ENDMDL