MODEL 3
REMARK VINA RESULT: -8.182051281      2.501      4.383
REMARK  8 active torsions:
REMARK  status: ('A' for Active; 'I' for Inactive)
REMARK    1  A    between atoms: C6_7  and  C7_8
REMARK    2  A    between atoms: C7_8  and  O2_9
REMARK    3  A    between atoms: C12_15  and  C13_16
REMARK    4  A    between atoms: C14_17  and  C15_18
REMARK    5  A    between atoms: C15_18  and  C16_22
REMARK    6  A    between atoms: C16_22  and  O3_23
REMARK    7  A    between atoms: O3_23  and  C17_24
REMARK       I    between atoms: C17_24  and  N2_26
REMARK    8  A    between atoms: C20_29  and  O5_30
ROOT
HETATM    1  C13 UNL     1       5.907  45.449  51.213  1.00  0.00    -0.015 C
HETATM    2  C14 UNL     1       6.274  44.785  50.170  1.00  0.00     0.023 C
ENDROOT
BRANCH   2   3
HETATM    3  C15 UNL     1       6.656  43.417  49.976  1.00  0.00     0.027 C
HETATM    4  N1  UNL     1       7.840  43.194  49.424  1.00  0.00    -0.401 N
ATOM      5  H12 UNL     1       8.371  44.032  49.185  1.00  0.00     0.156 HD
ATOM      6  H11 UNL     1       8.111  42.221  49.286  1.00  0.00     0.156 HD
BRANCH   3   7
HETATM    7  C16 UNL     1       5.889  42.208  50.321  1.00  0.00     0.237 C
BRANCH   7   8
HETATM    8  O3  UNL     1       5.948  41.241  49.257  1.00  0.00    -0.298 OA
BRANCH   8   9
HETATM    9  C17 UNL     1       5.166  41.453  48.132  1.00  0.00     0.363 C
HETATM   10  O4  UNL     1       5.685  42.035  47.152  1.00  0.00    -0.238 OA
HETATM   11  N2  UNL     1       3.803  41.015  48.106  1.00  0.00    -0.328 N
HETATM   12  C18 UNL     1       3.013  41.253  46.915  1.00  0.00     0.130 C
HETATM   13  C22 UNL     1       3.185  40.346  49.219  1.00  0.00     0.130 C
HETATM   14  C19 UNL     1       1.736  41.992  47.301  1.00  0.00     0.051 C
HETATM   15  C20 UNL     1       1.016  41.257  48.398  1.00  0.00     0.121 C
HETATM   16  C21 UNL     1       1.920  41.100  49.589  1.00  0.00     0.051 C
BRANCH  15  17
HETATM   17  O5  UNL     1       0.462  40.057  47.983  1.00  0.00    -0.395 OA
ATOM     18  H5  UNL     1      -0.488  40.050  48.014  1.00  0.00     0.210 HD
ENDBRANCH  15  17
ENDBRANCH   8   9
ENDBRANCH   7   8
ENDBRANCH   3   7
ENDBRANCH   2   3
BRANCH   1  19
HETATM   19  C12 UNL     1       5.744  45.048  52.590  1.00  0.00     0.047 C
HETATM   20  C2  UNL     1       6.255  46.109  53.550  1.00  0.00    -0.081 C
HETATM   21  C1  UNL     1       6.608  47.314  53.159  1.00  0.00     0.015 C
HETATM   22  C3  UNL     1       6.332  45.693  54.973  1.00  0.00     0.036 C
HETATM   23  C4  UNL     1       5.568  44.391  55.095  1.00  0.00     0.037 C
HETATM   24  C5  UNL     1       4.234  44.515  54.436  1.00  0.00     0.131 C
HETATM   25  O1  UNL     1       3.489  45.456  55.167  1.00  0.00    -0.378 OA
HETATM   26  C10 UNL     1       4.284  44.842  52.982  1.00  0.00    -0.007 C
HETATM   27  C6  UNL     1       2.158  45.382  54.743  1.00  0.00     0.145 C
HETATM   28  C8  UNL     1       2.116  45.942  53.341  1.00  0.00     0.035 C
HETATM   29  C9  UNL     1       3.483  46.100  52.731  1.00  0.00     0.015 C
HETATM   30  C11 UNL     1       3.708  43.748  52.105  1.00  0.00     0.019 C
BRANCH  27  31
HETATM   31  C7  UNL     1       1.359  46.279  55.697  1.00  0.00     0.196 C
BRANCH  31  32
HETATM   32  O2  UNL     1       1.948  46.297  56.966  1.00  0.00    -0.398 OA
ATOM     33  H2  UNL     1       1.691  47.077  57.443  1.00  0.00     0.209 HD
ENDBRANCH  31  32
ENDBRANCH  27  31
ENDBRANCH   1  19
TORSDOF 8
ENDMDL