MODEL 1
REMARK VINA RESULT: -7.235933357      0.000      0.000
REMARK  6 active torsions:
REMARK  status: ('A' for Active; 'I' for Inactive)
REMARK    1  A    between atoms: C2_2  and  C3_3
REMARK    2  A    between atoms: C3_3  and  N1_4
REMARK    3  A    between atoms: C6_12  and  N4_13
REMARK    4  A    between atoms: N5_21  and  O3_23
REMARK    5  A    between atoms: O3_23  and  C12_24
REMARK    6  A    between atoms: C12_24  and  C13_25
ROOT
HETATM    1  N1  UNL     1       7.951  46.365  53.095  1.00  0.00    -0.177 N
HETATM    2  C4  UNL     1       8.988  46.334  52.195  1.00  0.00     0.679 A
HETATM    3  N2  UNL     1      10.106  46.957  52.377  1.00  0.00    -0.234 N
ATOM      4  H21 UNL     1      10.876  46.934  51.709  1.00  0.00     0.174 HD
ATOM      5  H22 UNL     1      10.348  47.516  53.195  1.00  0.00     0.174 HD
HETATM    6  N3  UNL     1       8.673  45.606  51.129  1.00  0.00    -0.187 N
ATOM      7  H3  UNL     1       9.280  45.433  50.328  1.00  0.00     0.184 HD
HETATM    8  C5  UNL     1       7.448  45.142  51.276  1.00  0.00     0.110 A
HETATM    9  C6  UNL     1       6.598  44.325  50.557  1.00  0.00     0.133 A
HETATM   10  C7  UNL     1       5.325  43.970  50.988  1.00  0.00     0.049 A
HETATM   11  C8  UNL     1       4.911  44.471  52.180  1.00  0.00    -0.014 A
HETATM   12  C9  UNL     1       5.761  45.313  52.934  1.00  0.00     0.030 A
HETATM   13  C10 UNL     1       7.001  45.647  52.532  1.00  0.00     0.094 A
HETATM   14  C11 UNL     1       5.100  46.052  54.029  1.00  0.00     0.072 C
HETATM   15  N5  UNL     1       5.056  47.294  53.979  1.00  0.00    -0.267 N
ATOM     16  H5  UNL     1       4.576  47.650  54.806  1.00  0.00     0.194 HD
HETATM   17  C14 UNL     1       4.346  45.189  54.990  1.00  0.00     0.064 C
HETATM   18  C15 UNL     1       3.311  45.998  55.754  1.00  0.00     0.044 C
HETATM   19  C16 UNL     1       5.315  44.643  55.983  1.00  0.00     0.044 C
HETATM   20  N6  UNL     1       3.751  44.070  54.286  1.00  0.00    -0.396 N
ATOM     21  H6  UNL     1       3.442  43.230  54.776  1.00  0.00     0.155 HD
HETATM   22  C17 UNL     1       3.618  44.207  52.861  1.00  0.00     0.047 C
HETATM   23  C18 UNL     1       3.153  42.834  52.358  1.00  0.00     0.043 C
HETATM   24  C19 UNL     1       2.600  45.201  52.419  1.00  0.00     0.043 C
ENDROOT
BRANCH  15  25
HETATM   25  O3  UNL     1       5.419  48.297  53.221  1.00  0.00    -0.273 OA
BRANCH  25  26
HETATM   26  C12 UNL     1       5.138  49.639  53.649  1.00  0.00     0.270 C
BRANCH  26  27
HETATM   27  C13 UNL     1       4.752  49.607  55.085  1.00  0.00     0.259 C
HETATM   28  O4  UNL     1       4.331  50.608  55.626  1.00  0.00    -0.304 OA
ENDBRANCH  26  27
ENDBRANCH  25  26
ENDBRANCH  15  25
BRANCH   1  29
HETATM   29  C3  UNL     1       8.161  46.949  54.381  1.00  0.00     0.174 C
BRANCH  29  30
HETATM   30  C2  UNL     1       8.517  48.440  54.195  1.00  0.00    -0.016 C
HETATM   31  C1  UNL     1       8.525  49.284  55.195  1.00  0.00     0.008 C
ENDBRANCH  29  30
ENDBRANCH   1  29
BRANCH   9  32
HETATM   32  N4  UNL     1       7.077  43.818  49.293  1.00  0.00    -0.113 N
HETATM   33  O1  UNL     1       6.391  43.011  48.652  1.00  0.00    -0.532 OA
HETATM   34  O2  UNL     1       8.288  44.191  48.767  1.00  0.00    -0.532 OA
ENDBRANCH   9  32
TORSDOF 6
ENDMDL