MODEL 3
REMARK VINA RESULT: -9.065251497      1.261      2.151
REMARK  9 active torsions:
REMARK  status: ('A' for Active; 'I' for Inactive)
REMARK    1  A    between atoms: C2_2  and  C4_4
REMARK    2  A    between atoms: C4_4  and  C6_6
REMARK    3  A    between atoms: C6_6  and  O1_7
REMARK    4  A    between atoms: C6_6  and  C7_9
REMARK    5  A    between atoms: C7_9  and  C8_10
REMARK    6  A    between atoms: C9_11  and  O2_12
REMARK    7  A    between atoms: C10_15  and  C11_16
REMARK    8  A    between atoms: C11_16  and  C12_18
REMARK    9  A    between atoms: C22_30  and  O7_31
ROOT
HETATM    1  C8  UNL     1       4.209  41.491  50.304  1.00  0.00     0.039 A
HETATM    2  C9  UNL     1       5.509  41.782  49.956  1.00  0.00     0.193 A
HETATM    3  O3  UNL     1       5.914  42.802  50.637  1.00  0.00    -0.281 OA
HETATM    4  C10 UNL     1       5.006  43.263  51.443  1.00  0.00     0.160 A
HETATM    5  C22 UNL     1       3.895  42.464  51.273  1.00  0.00     0.114 A
ENDROOT
BRANCH   4   6
HETATM    6  C11 UNL     1       5.086  44.385  52.358  1.00  0.00     0.219 C
HETATM    7  O4  UNL     1       4.860  44.251  53.584  1.00  0.00    -0.287 OA
BRANCH   6   8
HETATM    8  C12 UNL     1       5.439  45.719  51.848  1.00  0.00     0.239 C
HETATM    9  O5  UNL     1       6.583  45.679  51.000  1.00  0.00    -0.329 OA
HETATM   10  C13 UNL     1       7.689  46.038  51.756  1.00  0.00     0.122 C
HETATM   11  C14 UNL     1       7.325  46.626  52.894  1.00  0.00    -0.011 C
HETATM   12  C17 UNL     1       9.164  45.967  51.678  1.00  0.00     0.183 C
HETATM   13  C15 UNL     1       8.563  46.986  53.658  1.00  0.00     0.050 C
HETATM   14  C18 UNL     1       5.869  46.661  52.893  1.00  0.00    -0.011 C
HETATM   15  C16 UNL     1       9.643  47.023  52.625  1.00  0.00     0.091 C
HETATM   16  C19 UNL     1       5.128  47.400  53.668  1.00  0.00    -0.078 C
HETATM   17  C20 UNL     1       5.681  48.322  54.698  1.00  0.00     0.043 C
HETATM   18  C21 UNL     1       3.648  47.357  53.551  1.00  0.00     0.043 C
HETATM   19  O6  UNL     1       9.887  45.222  51.002  1.00  0.00    -0.290 OA
ENDBRANCH   6   8
ENDBRANCH   4   6
BRANCH   5  20
HETATM   20  O7  UNL     1       2.652  42.489  51.861  1.00  0.00    -0.357 OA
ATOM     21  H7  UNL     1       2.529  42.158  52.743  1.00  0.00     0.217 HD
ENDBRANCH   5  20
BRANCH   2  22
HETATM   22  O2  UNL     1       6.279  41.101  49.028  1.00  0.00    -0.340 OA
ATOM     23  H2  UNL     1       7.072  41.420  48.615  1.00  0.00     0.220 HD
ENDBRANCH   2  22
BRANCH   1  24
HETATM   24  C7  UNL     1       3.317  40.420  49.797  1.00  0.00     0.079 C
BRANCH  24  25
HETATM   25  C6  UNL     1       2.968  40.575  48.336  1.00  0.00     0.130 C
BRANCH  25  26
HETATM   26  C4  UNL     1       1.577  40.084  48.092  1.00  0.00     0.038 C
HETATM   27  C5  UNL     1       0.679  40.238  49.288  1.00  0.00     0.017 C
BRANCH  26  28
HETATM   28  C2  UNL     1       0.944  40.791  46.924  1.00  0.00    -0.087 C
HETATM   29  C1  UNL     1       0.093  40.181  46.123  1.00  0.00     0.014 C
HETATM   30  C3  UNL     1       1.283  42.216  46.656  1.00  0.00     0.043 C
ENDBRANCH  26  28
ENDBRANCH  25  26
BRANCH  25  31
HETATM   31  O1  UNL     1       3.888  39.963  47.526  1.00  0.00    -0.395 OA
ATOM     32  H1  UNL     1       4.651  40.507  47.367  1.00  0.00     0.210 HD
ENDBRANCH  25  31
ENDBRANCH  24  25
ENDBRANCH   1  24
TORSDOF 9
ENDMDL