MODEL 5
REMARK VINA RESULT: -9.178533754      1.589      3.309
REMARK  14 active torsions:
REMARK  status: ('A' for Active; 'I' for Inactive)
REMARK    1  A    between atoms: C2_2  and  N1_3
REMARK    2  A    between atoms: N1_3  and  C4_5
REMARK    3  A    between atoms: N1_3  and  C6_7
REMARK    4  A    between atoms: C6_7  and  C7_8
REMARK    5  A    between atoms: C6_7  and  C22_33
REMARK       I    between atoms: C7_8  and  N2_10
REMARK    6  A    between atoms: N2_10  and  C8_12
REMARK    7  A    between atoms: C8_12  and  C9_13
REMARK    8  A    between atoms: C8_12  and  C13_21
REMARK    9  A    between atoms: C9_13  and  C10_14
REMARK   10  A    between atoms: C10_14  and  C11_15
REMARK   11  A    between atoms: C11_15  and  N3_16
REMARK       I    between atoms: C13_21  and  N6_23
REMARK   12  A    between atoms: N6_23  and  C14_25
REMARK   13  A    between atoms: C14_25  and  C15_26
REMARK   14  A    between atoms: C15_26  and  C16_27
ROOT
HETATM    1  C8  UNL     1       3.170  64.829  69.726  1.00  0.00     0.080 C
ENDROOT
BRANCH   1   2
HETATM    2  N2  UNL     1       3.122  63.596  70.437  1.00  0.00    -0.321 N
HETATM    3  C7  UNL     1       2.647  62.335  70.118  1.00  0.00     0.277 C
HETATM    4  O1  UNL     1       2.167  62.306  68.912  1.00  0.00    -0.266 OA
ATOM      5  H2  UNL     1       3.519  63.654  71.375  1.00  0.00     0.169 HD
BRANCH   3   6
HETATM    6  C6  UNL     1       2.606  61.076  70.901  1.00  0.00     0.188 C
BRANCH   6   7
HETATM    7  N1  UNL     1       1.701  61.106  72.018  1.00  0.00    -0.039 N
HETATM    8  C3  UNL     1       2.249  61.556  73.268  1.00  0.00     0.279 C
BRANCH   7   9
HETATM    9  C2  UNL     1       1.080  59.840  72.347  1.00  0.00     0.239 C
HETATM   10  C1  UNL     1       0.825  59.494  73.744  1.00  0.00     0.035 C
ENDBRANCH   7   9
BRANCH   7  11
HETATM   11  C4  UNL     1       0.561  61.916  71.583  1.00  0.00     0.239 C
HETATM   12  C5  UNL     1       0.124  62.960  72.560  1.00  0.00     0.035 C
ENDBRANCH   7  11
ENDBRANCH   6   7
BRANCH   6  13
HETATM   13  C22 UNL     1       3.890  60.423  71.008  1.00  0.00     0.005 C
HETATM   14  C23 UNL     1       5.116  61.156  71.434  1.00  0.00     0.021 C
HETATM   15  C24 UNL     1       3.942  59.060  71.717  1.00  0.00     0.021 C
HETATM   16  C25 UNL     1       4.312  59.967  69.584  1.00  0.00     0.021 C
ENDBRANCH   6  13
ENDBRANCH   3   6
ENDBRANCH   1   2
BRANCH   1  17
HETATM   17  C9  UNL     1       1.921  65.700  69.773  1.00  0.00     0.064 C
BRANCH  17  18
HETATM   18  C10 UNL     1       2.279  67.104  69.432  1.00  0.00     0.026 C
BRANCH  18  19
HETATM   19  C11 UNL     1       1.532  67.538  68.169  1.00  0.00     0.122 C
BRANCH  19  20
HETATM   20  N3  UNL     1       0.137  67.336  68.370  1.00  0.00    -0.367 N
HETATM   21  C12 UNL     1      -0.600  66.807  67.454  1.00  0.00     0.196 C
HETATM   22  N4  UNL     1      -0.006  66.421  66.224  1.00  0.00    -0.067 NA
HETATM   23  N5  UNL     1      -1.986  66.625  67.698  1.00  0.00    -0.067 NA
ATOM     24  H3  UNL     1      -0.287  67.614  69.255  1.00  0.00     0.161 HD
ENDBRANCH  19  20
ENDBRANCH  18  19
ENDBRANCH  17  18
ENDBRANCH   1  17
BRANCH   1  25
HETATM   25  C13 UNL     1       3.814  64.772  68.418  1.00  0.00     0.264 C
HETATM   26  O2  UNL     1       5.054  64.953  68.403  1.00  0.00    -0.266 OA
HETATM   27  N6  UNL     1       3.171  64.532  67.184  1.00  0.00    -0.356 N
ATOM     28  H6  UNL     1       2.163  64.377  67.179  1.00  0.00     0.162 HD
BRANCH  27  29
HETATM   29  C14 UNL     1       3.883  64.499  65.930  1.00  0.00     0.127 C
BRANCH  29  30
HETATM   30  C15 UNL     1       3.084  65.149  64.846  1.00  0.00     0.058 C
BRANCH  30  31
HETATM   31  C16 UNL     1       3.775  66.376  64.323  1.00  0.00    -0.057 A
HETATM   32  C17 UNL     1       3.791  67.489  65.131  1.00  0.00     0.007 A
HETATM   33  C18 UNL     1       4.426  68.651  64.679  1.00  0.00     0.001 A
HETATM   34  C19 UNL     1       5.026  68.686  63.446  1.00  0.00     0.000 A
HETATM   35  C20 UNL     1       4.987  67.539  62.659  1.00  0.00     0.001 A
HETATM   36  C21 UNL     1       4.369  66.391  63.085  1.00  0.00     0.007 A
ENDBRANCH  30  31
ENDBRANCH  29  30
ENDBRANCH  27  29
ENDBRANCH   1  25
TORSDOF 14
ENDMDL