MODEL 3
REMARK VINA RESULT: -8.804640485      2.117      5.524
REMARK  13 active torsions:
REMARK  status: ('A' for Active; 'I' for Inactive)
REMARK       I    between atoms: C2_2  and  N1_4
REMARK    1  A    between atoms: N1_4  and  C3_6
REMARK    2  A    between atoms: C3_6  and  C4_7
REMARK    3  A    between atoms: C3_6  and  C24_33
REMARK    4  A    between atoms: C4_7  and  C5_8
REMARK    5  A    between atoms: C5_8  and  C6_9
REMARK    6  A    between atoms: C8_13  and  C9_14
REMARK    7  A    between atoms: C13_18  and  C14_19
REMARK    8  A    between atoms: C14_19  and  C15_20
REMARK    9  A    between atoms: C15_20  and  N3_21
REMARK   10  A    between atoms: N3_21  and  C18_24
REMARK   11  A    between atoms: C18_24  and  C19_25
REMARK   12  A    between atoms: C19_25  and  C20_26
REMARK   13  A    between atoms: C20_26  and  N4_27
REMARK       I    between atoms: N4_27  and  C23_30
ROOT
HETATM    1  C6  UNL     1       0.787  64.574  70.426  1.00  0.00    -0.034 A
HETATM    2  C7  UNL     1       0.025  63.475  70.858  1.00  0.00     0.095 A
HETATM    3  N2  UNL     1       0.798  62.386  70.916  1.00  0.00    -0.368 N
ATOM      4  H2  UNL     1       0.476  61.462  71.202  1.00  0.00     0.165 HD
HETATM    5  C8  UNL     1       2.059  62.677  70.544  1.00  0.00     0.023 A
HETATM    6  C13 UNL     1       2.041  64.035  70.244  1.00  0.00    -0.026 A
ENDROOT
BRANCH   6   7
HETATM    7  C14 UNL     1       3.222  64.801  69.801  1.00  0.00     0.069 C
BRANCH   7   8
HETATM    8  C15 UNL     1       2.990  65.549  68.510  1.00  0.00     0.241 C
BRANCH   8   9
HETATM    9  N3  UNL     1       4.139  65.383  67.637  1.00  0.00    -0.074 N
HETATM   10  C16 UNL     1       3.773  64.480  66.572  1.00  0.00     0.272 C
HETATM   11  C17 UNL     1       5.231  64.930  68.427  1.00  0.00     0.272 C
BRANCH   9  12
HETATM   12  C18 UNL     1       4.479  66.637  66.986  1.00  0.00     0.238 C
BRANCH  12  13
HETATM   13  C19 UNL     1       4.761  66.379  65.538  1.00  0.00     0.056 C
BRANCH  13  14
HETATM   14  C20 UNL     1       4.593  67.561  64.644  1.00  0.00     0.249 C
BRANCH  14  15
HETATM   15  N4  UNL     1       4.440  67.308  63.252  1.00  0.00     0.004 N
HETATM   16  C21 UNL     1       4.418  65.833  63.089  1.00  0.00     0.284 C
HETATM   17  C22 UNL     1       5.486  67.781  62.401  1.00  0.00     0.284 C
HETATM   18  C23 UNL     1       3.178  67.742  62.832  1.00  0.00     0.427 C
HETATM   19  N5  UNL     1       2.992  68.176  61.497  1.00  0.00    -0.033 NA
HETATM   20  O2  UNL     1       2.219  67.747  63.628  1.00  0.00    -0.243 OA
ENDBRANCH  14  15
ENDBRANCH  13  14
ENDBRANCH  12  13
ENDBRANCH   9  12
ENDBRANCH   8   9
ENDBRANCH   7   8
ENDBRANCH   6   7
BRANCH   1  21
HETATM   21  C5  UNL     1       0.268  65.953  70.220  1.00  0.00     0.042 C
BRANCH  21  22
HETATM   22  C4  UNL     1      -0.667  65.978  69.012  1.00  0.00     0.030 C
BRANCH  22  23
HETATM   23  C3  UNL     1      -0.233  67.017  68.013  1.00  0.00     0.088 C
BRANCH  23  24
HETATM   24  N1  UNL     1       0.448  68.098  68.698  1.00  0.00    -0.356 N
HETATM   25  C2  UNL     1       1.519  68.811  68.084  1.00  0.00     0.213 C
HETATM   26  C1  UNL     1       2.189  69.898  68.800  1.00  0.00     0.117 C
HETATM   27  O1  UNL     1       1.875  68.488  66.920  1.00  0.00    -0.274 OA
ATOM     28  H1  UNL     1       0.154  68.353  69.641  1.00  0.00     0.162 HD
ENDBRANCH  23  24
BRANCH  23  29
HETATM   29  C24 UNL     1      -1.480  67.590  67.381  1.00  0.00     0.000 C
HETATM   30  C25 UNL     1      -1.283  68.009  65.957  1.00  0.00     0.011 C
HETATM   31  C26 UNL     1      -2.647  66.627  67.444  1.00  0.00     0.011 C
ENDBRANCH  23  29
ENDBRANCH  22  23
ENDBRANCH  21  22
ENDBRANCH   1  21
BRANCH   5  32
HETATM   32  C9  UNL     1       3.141  61.682  70.492  1.00  0.00    -0.008 C
HETATM   33  C10 UNL     1       4.476  62.226  70.989  1.00  0.00     0.021 C
HETATM   34  C11 UNL     1       3.373  61.321  69.020  1.00  0.00     0.021 C
HETATM   35  C12 UNL     1       2.884  60.409  71.207  1.00  0.00     0.021 C
ENDBRANCH   5  32
TORSDOF 13
ENDMDL