MODEL 5
REMARK VINA RESULT: -9.614073734      1.716      2.190
REMARK  13 active torsions:
REMARK  status: ('A' for Active; 'I' for Inactive)
REMARK    1  A    between atoms: C2_2  and  C4_4
REMARK    2  A    between atoms: C4_4  and  N1_5
REMARK       I    between atoms: N1_5  and  C5_7
REMARK    3  A    between atoms: C5_7  and  C6_9
REMARK    4  A    between atoms: C6_9  and  N2_10
REMARK    5  A    between atoms: C6_9  and  C24_36
REMARK       I    between atoms: N2_10  and  C7_12
REMARK    6  A    between atoms: C7_12  and  C8_14
REMARK    7  A    between atoms: C8_14  and  C9_15
REMARK    8  A    between atoms: C8_14  and  N5_23
REMARK    9  A    between atoms: C9_15  and  C10_16
REMARK       I    between atoms: N5_23  and  C14_25
REMARK   10  A    between atoms: C14_25  and  C15_27
REMARK   11  A    between atoms: C15_27  and  C16_28
REMARK   12  A    between atoms: C16_28  and  C17_29
REMARK   13  A    between atoms: C17_29  and  C18_30
ROOT
HETATM    1  C8  UNL     1       4.039  65.648  66.477  1.00  0.00     0.182 C
ENDROOT
BRANCH   1   2
HETATM    2  C7  UNL     1       2.595  65.973  66.583  1.00  0.00     0.241 C
HETATM    3  N2  UNL     1       2.162  66.719  67.681  1.00  0.00    -0.346 N
ATOM      4  H2  UNL     1       2.842  67.021  68.379  1.00  0.00     0.163 HD
HETATM    5  O2  UNL     1       1.746  65.606  65.729  1.00  0.00    -0.271 OA
BRANCH   3   6
HETATM    6  C6  UNL     1       0.734  67.081  67.854  1.00  0.00     0.180 C
BRANCH   6   7
HETATM    7  C5  UNL     1       0.084  66.088  68.719  1.00  0.00     0.240 C
HETATM    8  N1  UNL     1       0.695  65.310  69.691  1.00  0.00    -0.359 N
ATOM      9  H1  UNL     1       1.699  65.420  69.838  1.00  0.00     0.162 HD
HETATM   10  O1  UNL     1      -1.178  65.927  68.557  1.00  0.00    -0.271 OA
BRANCH   8  11
HETATM   11  C4  UNL     1      -0.025  64.339  70.517  1.00  0.00     0.126 C
BRANCH  11  12
HETATM   12  C2  UNL     1       0.873  63.519  71.391  1.00  0.00    -0.005 C
HETATM   13  C1  UNL     1       0.209  63.433  72.770  1.00  0.00     0.011 C
HETATM   14  C3  UNL     1       0.929  62.067  70.896  1.00  0.00     0.011 C
ENDBRANCH  11  12
ENDBRANCH   8  11
ENDBRANCH   6   7
BRANCH   6  15
HETATM   15  C24 UNL     1       0.646  68.501  68.312  1.00  0.00     0.009 C
HETATM   16  C25 UNL     1       1.926  69.224  68.169  1.00  0.00     0.012 C
HETATM   17  C26 UNL     1      -0.418  69.278  67.560  1.00  0.00     0.012 C
ENDBRANCH   6  15
ENDBRANCH   3   6
ENDBRANCH   1   2
BRANCH   1  18
HETATM   18  C9  UNL     1       4.816  66.712  65.776  1.00  0.00     0.093 C
BRANCH  18  19
HETATM   19  C10 UNL     1       4.757  66.566  64.305  1.00  0.00     0.029 A
HETATM   20  C11 UNL     1       4.483  65.369  63.625  1.00  0.00     0.114 A
HETATM   21  N3  UNL     1       4.482  65.575  62.297  1.00  0.00    -0.360 N
HETATM   22  C12 UNL     1       4.749  66.869  62.136  1.00  0.00     0.182 A
ATOM     23  H3  UNL     1       4.312  64.884  61.566  1.00  0.00     0.166 HD
HETATM   24  N4  UNL     1       4.918  67.480  63.342  1.00  0.00    -0.350 N
HETATM   25  C13 UNL     1       5.209  68.891  63.556  1.00  0.00     0.156 C
ENDBRANCH  18  19
ENDBRANCH   1  18
BRANCH   1  26
HETATM   26  N5  UNL     1       4.653  65.294  67.710  1.00  0.00    -0.347 N
HETATM   27  C14 UNL     1       4.163  64.308  68.614  1.00  0.00     0.218 C
HETATM   28  O3  UNL     1       3.128  63.711  68.312  1.00  0.00    -0.274 OA
ATOM     29  H5  UNL     1       5.511  65.783  67.967  1.00  0.00     0.163 HD
BRANCH  27  30
HETATM   30  C15 UNL     1       4.901  64.042  69.857  1.00  0.00     0.103 C
BRANCH  30  31
HETATM   31  C16 UNL     1       4.237  63.114  70.826  1.00  0.00     0.014 C
BRANCH  31  32
HETATM   32  C17 UNL     1       5.138  61.990  71.195  1.00  0.00     0.039 C
BRANCH  32  33
HETATM   33  C18 UNL     1       4.509  60.659  70.954  1.00  0.00    -0.058 A
HETATM   34  C19 UNL     1       3.988  60.282  69.734  1.00  0.00     0.007 A
HETATM   35  C20 UNL     1       3.421  59.032  69.590  1.00  0.00     0.001 A
HETATM   36  C21 UNL     1       3.362  58.136  70.656  1.00  0.00     0.000 A
HETATM   37  C22 UNL     1       3.878  58.507  71.870  1.00  0.00     0.001 A
HETATM   38  C23 UNL     1       4.445  59.775  71.987  1.00  0.00     0.007 A
ENDBRANCH  32  33
ENDBRANCH  31  32
ENDBRANCH  30  31
ENDBRANCH  27  30
ENDBRANCH   1  26
TORSDOF 13
ENDMDL