MODEL 2
REMARK VINA RESULT: -10.357246336      1.114      1.735
REMARK  16 active torsions:
REMARK  status: ('A' for Active; 'I' for Inactive)
REMARK    1  A    between atoms: C2_2  and  C3_3
REMARK    2  A    between atoms: C3_3  and  C4_4
REMARK    3  A    between atoms: C3_3  and  C15_15
REMARK    4  A    between atoms: C4_4  and  C5_5
REMARK    5  A    between atoms: C15_15  and  N2_19
REMARK    6  A    between atoms: N2_19  and  C16_21
REMARK    7  A    between atoms: C16_21  and  C19_29
REMARK    8  A    between atoms: C17_22  and  C18_23
REMARK    9  A    between atoms: C18_23  and  N3_24
REMARK   10  A    between atoms: N3_24  and  N4_26
REMARK       I    between atoms: C19_29  and  N5_31
REMARK   11  A    between atoms: N5_31  and  C20_32
REMARK   12  A    between atoms: C20_32  and  C21_33
REMARK   13  A    between atoms: C21_33  and  C22_34
REMARK   14  A    between atoms: C22_34  and  N6_35
REMARK   15  A    between atoms: N6_35  and  C24_37
REMARK   16  A    between atoms: N6_35  and  C26_39
ROOT
HETATM    1  N2  UNL     1       0.865  66.042  68.202  1.00  0.00    -0.341 N
ATOM      2  H2  UNL     1       0.765  65.230  67.594  1.00  0.00     0.167 HD
ENDROOT
BRANCH   1   3
HETATM    3  C15 UNL     1       1.343  65.848  69.526  1.00  0.00     0.079 C
HETATM    4  N1  UNL     1       0.605  66.336  70.444  1.00  0.00    -0.389 N
ATOM      5  H12 UNL     1       0.947  66.196  71.395  1.00  0.00     0.157 HD
ATOM      6  H11 UNL     1      -0.259  66.811  70.182  1.00  0.00     0.157 HD
BRANCH   3   7
HETATM    7  C3  UNL     1       2.601  65.155  69.908  1.00  0.00     0.053 C
BRANCH   7   8
HETATM    8  C2  UNL     1       3.782  65.942  69.467  1.00  0.00     0.008 C
HETATM    9  C1  UNL     1       4.677  65.246  68.444  1.00  0.00     0.006 C
ENDBRANCH   7   8
BRANCH   7  10
HETATM   10  C4  UNL     1       2.498  63.753  69.522  1.00  0.00     0.021 C
BRANCH  10  11
HETATM   11  C5  UNL     1       2.899  62.598  70.336  1.00  0.00    -0.039 C
HETATM   12  C6  UNL     1       2.630  61.364  69.402  1.00  0.00     0.014 C
HETATM   13  C7  UNL     1       3.011  60.084  70.028  1.00  0.00    -0.013 C
HETATM   14  C8  UNL     1       4.512  60.099  70.283  1.00  0.00     0.009 C
HETATM   15  C12 UNL     1       2.322  59.859  71.329  1.00  0.00     0.009 C
HETATM   16  C9  UNL     1       4.790  61.193  71.242  1.00  0.00    -0.013 C
HETATM   17  C10 UNL     1       4.006  61.110  72.539  1.00  0.00     0.009 C
HETATM   18  C14 UNL     1       4.365  62.531  70.613  1.00  0.00     0.014 C
HETATM   19  C11 UNL     1       2.543  61.066  72.206  1.00  0.00    -0.013 C
HETATM   20  C13 UNL     1       2.045  62.334  71.540  1.00  0.00     0.014 C
ENDBRANCH  10  11
ENDBRANCH   7  10
ENDBRANCH   3   7
ENDBRANCH   1   3
BRANCH   1  21
HETATM   21  C16 UNL     1       0.526  67.308  67.698  1.00  0.00     0.118 C
HETATM   22  C17 UNL     1      -0.668  67.680  67.399  1.00  0.00     0.055 C
BRANCH  22  23
HETATM   23  C18 UNL     1      -1.935  67.002  67.475  1.00  0.00     0.109 C
BRANCH  23  24
HETATM   24  N3  UNL     1      -3.099  67.631  67.014  1.00  0.00    -0.318 N
ATOM     25  H3  UNL     1      -3.987  67.476  67.492  1.00  0.00     0.185 HD
BRANCH  24  26
HETATM   26  N4  UNL     1      -3.048  68.392  66.004  1.00  0.00    -0.345 N
ATOM     27  H42 UNL     1      -2.642  68.039  65.137  1.00  0.00     0.176 HD
ATOM     28  H41 UNL     1      -3.409  69.344  66.065  1.00  0.00     0.176 HD
ENDBRANCH  24  26
ENDBRANCH  23  24
ENDBRANCH  22  23
BRANCH  21  29
HETATM   29  C19 UNL     1       1.652  68.342  67.573  1.00  0.00     0.342 C
HETATM   30  O1  UNL     1       1.405  69.391  68.243  1.00  0.00    -0.249 OA
HETATM   31  N5  UNL     1       2.728  68.102  66.824  1.00  0.00    -0.382 NA
BRANCH  31  32
HETATM   32  C20 UNL     1       3.860  67.869  66.044  1.00  0.00     0.161 C
BRANCH  32  33
HETATM   33  C21 UNL     1       3.984  68.573  64.728  1.00  0.00     0.087 C
BRANCH  33  34
HETATM   34  C22 UNL     1       3.280  67.908  63.581  1.00  0.00     0.243 C
BRANCH  34  35
HETATM   35  N6  UNL     1       4.080  67.750  62.401  1.00  0.00    -0.071 N
HETATM   36  C23 UNL     1       5.149  68.758  62.499  1.00  0.00     0.272 C
BRANCH  35  37
HETATM   37  C24 UNL     1       4.694  66.479  62.220  1.00  0.00     0.232 C
HETATM   38  C25 UNL     1       4.305  65.436  63.219  1.00  0.00     0.035 C
ENDBRANCH  35  37
BRANCH  35  39
HETATM   39  C26 UNL     1       3.358  68.085  61.188  1.00  0.00     0.232 C
HETATM   40  C27 UNL     1       1.906  68.378  61.459  1.00  0.00     0.035 C
ENDBRANCH  35  39
ENDBRANCH  34  35
ENDBRANCH  33  34
ENDBRANCH  32  33
ENDBRANCH  31  32
ENDBRANCH  21  29
ENDBRANCH   1  21
TORSDOF 16
ENDMDL