MODEL 3
REMARK VINA RESULT: -9.214604614      1.752      2.568
REMARK  13 active torsions:
REMARK  status: ('A' for Active; 'I' for Inactive)
REMARK    1  A    between atoms: C2_2  and  N1_4
REMARK    2  A    between atoms: N1_4  and  C4_5
REMARK    3  A    between atoms: N1_4  and  C16_26
REMARK    4  A    between atoms: N1_4  and  C21_32
REMARK    5  A    between atoms: C4_5  and  C5_6
REMARK    6  A    between atoms: C5_6  and  N2_7
REMARK       I    between atoms: N2_7  and  C6_9
REMARK       I    between atoms: C6_9  and  N4_13
REMARK    7  A    between atoms: N4_13  and  C7_15
REMARK    8  A    between atoms: C7_15  and  C8_16
REMARK    9  A    between atoms: C7_15  and  C15_23
REMARK   10  A    between atoms: C8_16  and  C9_17
REMARK   11  A    between atoms: C16_26  and  C17_27
REMARK   12  A    between atoms: C17_27  and  N5_28
REMARK   13  A    between atoms: C21_32  and  C22_33
ROOT
HETATM    1  C5  UNL     1       3.136  66.471  68.255  1.00  0.00     0.166 C
ENDROOT
BRANCH   1   2
HETATM    2  C4  UNL     1       3.552  66.873  66.892  1.00  0.00     0.263 C
BRANCH   2   3
HETATM    3  N1  UNL     1       2.511  67.039  65.902  1.00  0.00    -0.040 N
BRANCH   3   4
HETATM    4  C2  UNL     1       2.772  68.231  65.128  1.00  0.00     0.187 C
HETATM    5  C1  UNL     1       2.275  68.300  63.745  1.00  0.00     0.040 C
HETATM    6  C3  UNL     1       4.276  68.553  65.017  1.00  0.00     0.040 C
ENDBRANCH   3   4
BRANCH   3   7
HETATM    7  C16 UNL     1       1.369  67.410  66.757  1.00  0.00     0.271 C
BRANCH   7   8
HETATM    8  C17 UNL     1       0.054  66.898  66.317  1.00  0.00     0.264 C
BRANCH   8   9
HETATM    9  N5  UNL     1      -1.059  67.626  66.930  1.00  0.00    -0.077 N
HETATM   10  C18 UNL     1      -1.783  66.758  67.851  1.00  0.00     0.271 C
HETATM   11  C19 UNL     1      -1.992  68.118  65.964  1.00  0.00     0.271 C
HETATM   12  C20 UNL     1      -0.575  68.753  67.707  1.00  0.00     0.271 C
ENDBRANCH   8   9
ENDBRANCH   7   8
ENDBRANCH   3   7
BRANCH   3  13
HETATM   13  C21 UNL     1       2.070  65.903  65.250  1.00  0.00     0.214 C
BRANCH  13  14
HETATM   14  C22 UNL     1       2.913  64.841  64.757  1.00  0.00    -0.013 A
HETATM   15  C23 UNL     1       3.800  65.239  63.735  1.00  0.00     0.013 A
HETATM   16  C24 UNL     1       4.675  64.361  63.158  1.00  0.00     0.001 A
HETATM   17  C25 UNL     1       4.743  63.047  63.537  1.00  0.00     0.000 A
HETATM   18  C26 UNL     1       3.878  62.640  64.541  1.00  0.00     0.001 A
HETATM   19  C27 UNL     1       3.000  63.538  65.113  1.00  0.00     0.013 A
ENDBRANCH  13  14
ENDBRANCH   3  13
ENDBRANCH   2   3
ENDBRANCH   1   2
BRANCH   1  20
HETATM   20  N2  UNL     1       3.254  65.036  68.449  1.00  0.00    -0.225 N
HETATM   21  C6  UNL     1       3.883  64.453  69.572  1.00  0.00     0.668 C
HETATM   22  N3  UNL     1       5.167  64.449  69.622  1.00  0.00    -0.235 N
HETATM   23  N4  UNL     1       3.169  63.871  70.651  1.00  0.00    -0.212 N
ATOM     24  H32 UNL     1       5.680  64.868  68.847  1.00  0.00     0.174 HD
ATOM     25  H31 UNL     1       5.621  64.029  70.432  1.00  0.00     0.174 HD
ATOM     26  H4  UNL     1       3.572  63.972  71.583  1.00  0.00     0.178 HD
ATOM     27  H2  UNL     1       2.862  64.418  67.738  1.00  0.00     0.177 HD
BRANCH  23  28
HETATM   28  C7  UNL     1       1.934  63.153  70.549  1.00  0.00     0.204 C
BRANCH  28  29
HETATM   29  C8  UNL     1       1.778  62.007  71.487  1.00  0.00     0.075 C
BRANCH  29  30
HETATM   30  C9  UNL     1       2.357  60.736  71.085  1.00  0.00    -0.056 A
HETATM   31  C10 UNL     1       2.327  59.634  71.897  1.00  0.00     0.007 A
HETATM   32  C11 UNL     1       2.863  58.418  71.543  1.00  0.00     0.001 A
HETATM   33  C12 UNL     1       3.468  58.264  70.319  1.00  0.00     0.000 A
HETATM   34  C13 UNL     1       3.517  59.349  69.476  1.00  0.00     0.001 A
HETATM   35  C14 UNL     1       2.964  60.577  69.856  1.00  0.00     0.007 A
ENDBRANCH  29  30
ENDBRANCH  28  29
BRANCH  28  36
HETATM   36  C15 UNL     1       0.781  64.049  70.643  1.00  0.00     0.197 C
HETATM   37  O1  UNL     1       0.360  64.741  69.659  1.00  0.00    -0.646 OA
HETATM   38  O2  UNL     1       0.054  64.211  71.814  1.00  0.00    -0.646 OA
ENDBRANCH  28  36
ENDBRANCH  23  28
ENDBRANCH   1  20
TORSDOF 13
ENDMDL