MODEL 4
REMARK VINA RESULT: -10.131698051      1.793      2.726
REMARK  15 active torsions:
REMARK  status: ('A' for Active; 'I' for Inactive)
REMARK    1  A    between atoms: C2_2  and  C3_3
REMARK    2  A    between atoms: C3_3  and  C4_4
REMARK    3  A    between atoms: C4_4  and  N1_5
REMARK       I    between atoms: N1_5  and  C5_7
REMARK    4  A    between atoms: C5_7  and  C6_9
REMARK    5  A    between atoms: C6_9  and  C7_10
REMARK    6  A    between atoms: C6_9  and  N2_17
REMARK    7  A    between atoms: C7_10  and  C8_11
REMARK    8  A    between atoms: N2_17  and  C14_19
REMARK    9  A    between atoms: C14_19  and  O2_20
REMARK   10  A    between atoms: C14_19  and  C15_22
REMARK   11  A    between atoms: C15_22  and  C16_23
REMARK   12  A    between atoms: C15_22  and  N3_27
REMARK   13  A    between atoms: C16_23  and  C17_24
REMARK       I    between atoms: N3_27  and  C20_29
REMARK   14  A    between atoms: C20_29  and  C21_31
REMARK   15  A    between atoms: C22_32  and  C23_33
ROOT
HETATM    1  C14 UNL     1       1.847  66.762  69.664  1.00  0.00     0.135 C
ENDROOT
BRANCH   1   2
HETATM    2  N2  UNL     1       3.129  66.182  69.638  1.00  0.00    -0.359 N
ATOM      3  H2  UNL     1       3.797  66.421  70.369  1.00  0.00     0.162 HD
BRANCH   2   4
HETATM    4  C6  UNL     1       3.526  65.249  68.594  1.00  0.00     0.179 C
BRANCH   4   5
HETATM    5  C5  UNL     1       3.680  63.930  69.341  1.00  0.00     0.240 C
HETATM    6  N1  UNL     1       2.787  62.872  69.123  1.00  0.00    -0.359 N
ATOM      7  H1  UNL     1       2.032  63.048  68.459  1.00  0.00     0.162 HD
HETATM    8  O1  UNL     1       4.660  63.864  70.155  1.00  0.00    -0.271 OA
BRANCH   6   9
HETATM    9  C4  UNL     1       2.810  61.572  69.723  1.00  0.00     0.122 C
BRANCH   9  10
HETATM   10  C3  UNL     1       3.925  60.657  69.487  1.00  0.00     0.019 C
BRANCH  10  11
HETATM   11  C2  UNL     1       4.535  59.867  70.581  1.00  0.00    -0.003 C
HETATM   12  C1  UNL     1       4.692  60.868  71.765  1.00  0.00     0.005 C
ENDBRANCH  10  11
ENDBRANCH   9  10
ENDBRANCH   6   9
ENDBRANCH   4   5
BRANCH   4  13
HETATM   13  C7  UNL     1       4.689  65.493  67.773  1.00  0.00     0.073 C
BRANCH  13  14
HETATM   14  C8  UNL     1       4.560  66.429  66.629  1.00  0.00    -0.056 A
HETATM   15  C9  UNL     1       5.451  66.432  65.572  1.00  0.00     0.007 A
HETATM   16  C10 UNL     1       5.289  67.362  64.570  1.00  0.00     0.001 A
HETATM   17  C11 UNL     1       4.259  68.288  64.599  1.00  0.00     0.000 A
HETATM   18  C12 UNL     1       3.368  68.293  65.647  1.00  0.00     0.001 A
HETATM   19  C13 UNL     1       3.547  67.348  66.646  1.00  0.00     0.007 A
ENDBRANCH  13  14
ENDBRANCH   4  13
ENDBRANCH   2   4
ENDBRANCH   1   2
BRANCH   1  20
HETATM   20  O2  UNL     1       1.905  68.068  69.477  1.00  0.00    -0.348 OA
ATOM     21  H2  UNL     1       1.872  68.288  68.554  1.00  0.00     0.219 HD
ENDBRANCH   1  20
BRANCH   1  22
HETATM   22  C15 UNL     1       0.527  66.248  69.831  1.00  0.00     0.159 C
BRANCH  22  23
HETATM   23  C16 UNL     1      -0.496  66.051  68.804  1.00  0.00     0.037 C
BRANCH  23  24
HETATM   24  C17 UNL     1      -0.905  67.119  67.861  1.00  0.00    -0.020 C
HETATM   25  C18 UNL     1      -2.360  66.736  67.382  1.00  0.00     0.009 C
HETATM   26  C19 UNL     1      -0.143  67.114  66.556  1.00  0.00     0.009 C
ENDBRANCH  23  24
ENDBRANCH  22  23
BRANCH  22  27
HETATM   27  N3  UNL     1       0.593  64.914  70.530  1.00  0.00    -0.346 N
HETATM   28  C20 UNL     1       0.009  64.668  71.775  1.00  0.00     0.241 C
HETATM   29  O3  UNL     1      -0.613  65.570  72.383  1.00  0.00    -0.269 OA
ATOM     30  H3  UNL     1       1.089  64.151  70.070  1.00  0.00     0.163 HD
BRANCH  28  31
HETATM   31  C21 UNL     1       0.090  63.371  72.424  1.00  0.00     0.075 C
HETATM   32  C22 UNL     1      -0.273  62.252  71.863  1.00  0.00     0.017 C
BRANCH  32  33
HETATM   33  C23 UNL     1      -0.189  60.955  72.518  1.00  0.00    -0.036 A
HETATM   34  C24 UNL     1       0.903  60.113  72.309  1.00  0.00     0.011 A
HETATM   35  C25 UNL     1       1.050  58.889  72.888  1.00  0.00     0.001 A
HETATM   36  C26 UNL     1       0.082  58.410  73.742  1.00  0.00     0.000 A
HETATM   37  C27 UNL     1      -1.009  59.210  73.972  1.00  0.00     0.001 A
HETATM   38  C28 UNL     1      -1.153  60.468  73.374  1.00  0.00     0.011 A
ENDBRANCH  32  33
ENDBRANCH  28  31
ENDBRANCH  22  27
ENDBRANCH   1  22
TORSDOF 15
ENDMDL