MODEL 3
REMARK VINA RESULT: -9.815227409      1.424      1.706
REMARK  13 active torsions:
REMARK  status: ('A' for Active; 'I' for Inactive)
REMARK    1  A    between atoms: C2_2  and  C3_3
REMARK    2  A    between atoms: C2_2  and  C11_11
REMARK    3  A    between atoms: C3_3  and  C4_4
REMARK    4  A    between atoms: C4_4  and  C5_5
REMARK    5  A    between atoms: C11_11  and  N1_12
REMARK    6  A    between atoms: C11_11  and  C16_23
REMARK    7  A    between atoms: N1_12  and  C12_14
REMARK    8  A    between atoms: C12_14  and  C13_15
REMARK    9  A    between atoms: C13_15  and  C14_16
REMARK       I    between atoms: C14_16  and  N2_18
REMARK   10  A    between atoms: C16_23  and  C19_26
REMARK       I    between atoms: C19_26  and  N5_28
REMARK   11  A    between atoms: N5_28  and  C20_30
REMARK   12  A    between atoms: C20_30  and  C21_31
REMARK   13  A    between atoms: C21_31  and  C22_32
ROOT
HETATM    1  C11 UNL     1       2.845  66.090  67.284  1.00  0.00     0.028 C
ENDROOT
BRANCH   1   2
HETATM    2  C2  UNL     1       3.780  65.107  67.838  1.00  0.00    -0.044 C
HETATM    3  C1  UNL     1       5.058  65.451  67.807  1.00  0.00     0.021 C
BRANCH   2   4
HETATM    4  C3  UNL     1       3.479  63.801  68.398  1.00  0.00     0.044 C
BRANCH   4   5
HETATM    5  C4  UNL     1       4.069  63.632  69.779  1.00  0.00     0.043 C
BRANCH   5   6
HETATM    6  C5  UNL     1       4.104  62.200  70.179  1.00  0.00    -0.058 A
HETATM    7  C6  UNL     1       4.818  61.827  71.290  1.00  0.00     0.007 A
HETATM    8  C7  UNL     1       4.881  60.499  71.700  1.00  0.00     0.001 A
HETATM    9  C8  UNL     1       4.203  59.547  70.961  1.00  0.00     0.000 A
HETATM   10  C9  UNL     1       3.488  59.911  69.853  1.00  0.00     0.001 A
HETATM   11  C10 UNL     1       3.441  61.239  69.465  1.00  0.00     0.007 A
ENDBRANCH   5   6
ENDBRANCH   4   5
ENDBRANCH   2   4
ENDBRANCH   1   2
BRANCH   1  12
HETATM   12  N1  UNL     1       2.183  65.598  66.149  1.00  0.00    -0.391 N
ATOM     13  H1  UNL     1       1.163  65.639  66.125  1.00  0.00     0.159 HD
BRANCH  12  14
HETATM   14  C12 UNL     1       2.852  65.055  65.053  1.00  0.00     0.129 C
BRANCH  14  15
HETATM   15  C13 UNL     1       3.759  66.190  64.502  1.00  0.00     0.122 C
BRANCH  15  16
HETATM   16  C14 UNL     1       4.275  65.819  63.173  1.00  0.00     0.225 C
HETATM   17  O1  UNL     1       4.994  64.794  63.065  1.00  0.00    -0.273 OA
HETATM   18  N2  UNL     1       3.979  66.582  62.045  1.00  0.00    -0.304 N
HETATM   19  C15 UNL     1       3.292  67.640  61.930  1.00  0.00     0.203 C
ATOM     20  H2  UNL     1       4.381  66.235  61.175  1.00  0.00     0.171 HD
HETATM   21  N3  UNL     1       3.151  68.225  60.622  1.00  0.00    -0.066 NA
HETATM   22  N4  UNL     1       2.638  68.312  62.988  1.00  0.00    -0.066 NA
ENDBRANCH  15  16
ENDBRANCH  14  15
ENDBRANCH  12  14
ENDBRANCH   1  12
BRANCH   1  23
HETATM   23  C16 UNL     1       2.033  66.891  68.263  1.00  0.00     0.076 C
HETATM   24  C17 UNL     1       3.017  67.221  69.407  1.00  0.00     0.032 C
HETATM   25  C18 UNL     1       1.537  68.207  67.776  1.00  0.00     0.032 C
BRANCH  23  26
HETATM   26  C19 UNL     1       0.972  66.082  68.914  1.00  0.00     0.231 C
HETATM   27  O2  UNL     1      -0.131  65.934  68.347  1.00  0.00    -0.272 OA
HETATM   28  N5  UNL     1       1.101  65.435  70.172  1.00  0.00    -0.360 N
ATOM     29  H5  UNL     1       1.991  65.539  70.659  1.00  0.00     0.162 HD
BRANCH  28  30
HETATM   30  C20 UNL     1       0.105  64.660  70.808  1.00  0.00     0.127 C
BRANCH  30  31
HETATM   31  C21 UNL     1       0.120  63.192  70.582  1.00  0.00     0.058 C
BRANCH  31  32
HETATM   32  C22 UNL     1       0.692  62.380  71.669  1.00  0.00    -0.057 A
HETATM   33  C23 UNL     1       0.462  61.027  71.678  1.00  0.00     0.007 A
HETATM   34  C24 UNL     1       0.965  60.186  72.678  1.00  0.00     0.001 A
HETATM   35  C25 UNL     1       1.712  60.751  73.672  1.00  0.00     0.000 A
HETATM   36  C26 UNL     1       1.946  62.105  73.666  1.00  0.00     0.001 A
HETATM   37  C27 UNL     1       1.447  62.922  72.681  1.00  0.00     0.007 A
ENDBRANCH  31  32
ENDBRANCH  30  31
ENDBRANCH  28  30
ENDBRANCH  23  26
ENDBRANCH   1  23
TORSDOF 13
ENDMDL