MODEL 3
REMARK VINA RESULT: -9.520032549      3.109      9.160
REMARK  14 active torsions:
REMARK  status: ('A' for Active; 'I' for Inactive)
REMARK    1  A    between atoms: C2_2  and  C3_3
REMARK       I    between atoms: C3_3  and  N1_5
REMARK    2  A    between atoms: N1_5  and  C4_7
REMARK    3  A    between atoms: C4_7  and  C5_8
REMARK    4  A    between atoms: C4_7  and  C22_33
REMARK    5  A    between atoms: C5_8  and  C6_9
REMARK    6  A    between atoms: C6_9  and  N2_10
REMARK    7  A    between atoms: C6_9  and  C21_30
REMARK    8  A    between atoms: N2_10  and  C7_12
REMARK    9  A    between atoms: C7_12  and  C8_16
REMARK   10  A    between atoms: C8_16  and  N4_17
REMARK   11  A    between atoms: N4_17  and  C10_19
REMARK   12  A    between atoms: N4_17  and  C18_27
REMARK   13  A    between atoms: C10_19  and  C11_20
REMARK   14  A    between atoms: C11_20  and  C12_21
ROOT
HETATM    1  N2  UNL     1       1.099  66.432  67.839  1.00  0.00    -0.344 N
ATOM      2  H2  UNL     1       0.597  65.572  68.060  1.00  0.00     0.167 HD
ENDROOT
BRANCH   1   3
HETATM    3  C6  UNL     1       0.747  67.155  66.628  1.00  0.00     0.078 C
BRANCH   3   4
HETATM    4  C5  UNL     1       1.897  67.782  65.942  1.00  0.00     0.092 C
BRANCH   4   5
HETATM    5  C4  UNL     1       2.051  67.573  64.486  1.00  0.00     0.123 C
BRANCH   5   6
HETATM    6  N1  UNL     1       1.217  68.617  63.838  1.00  0.00    -0.349 N
HETATM    7  C3  UNL     1       0.303  68.294  62.829  1.00  0.00     0.240 C
HETATM    8  O1  UNL     1       0.211  67.074  62.488  1.00  0.00    -0.269 OA
ATOM      9  H1  UNL     1       1.312  69.589  64.134  1.00  0.00     0.163 HD
BRANCH   7  10
HETATM   10  C2  UNL     1      -0.508  69.310  62.200  1.00  0.00     0.064 C
HETATM   11  C1  UNL     1      -0.332  69.648  60.957  1.00  0.00     0.017 C
ENDBRANCH   7  10
ENDBRANCH   5   6
BRANCH   5  12
HETATM   12  C22 UNL     1       3.381  67.733  63.904  1.00  0.00    -0.035 A
HETATM   13  C23 UNL     1       3.805  66.953  62.870  1.00  0.00     0.009 A
HETATM   14  C24 UNL     1       5.077  67.103  62.329  1.00  0.00     0.001 A
HETATM   15  C25 UNL     1       5.930  68.052  62.836  1.00  0.00     0.000 A
HETATM   16  C26 UNL     1       5.521  68.844  63.874  1.00  0.00     0.001 A
HETATM   17  C27 UNL     1       4.236  68.680  64.409  1.00  0.00     0.009 A
ENDBRANCH   5  12
ENDBRANCH   4   5
ENDBRANCH   3   4
BRANCH   3  18
HETATM   18  C21 UNL     1      -0.481  67.956  66.756  1.00  0.00     0.277 C
HETATM   19  N5  UNL     1      -1.531  67.860  65.809  1.00  0.00    -0.056 NA
HETATM   20  O2  UNL     1      -0.673  68.772  67.716  1.00  0.00    -0.270 OA
ENDBRANCH   3  18
ENDBRANCH   1   3
BRANCH   1  21
HETATM   21  C7  UNL     1       2.109  66.873  68.722  1.00  0.00     0.101 C
HETATM   22  N3  UNL     1       2.126  68.160  68.980  1.00  0.00    -0.387 N
ATOM     23  H32 UNL     1       1.425  68.760  68.544  1.00  0.00     0.157 HD
ATOM     24  H31 UNL     1       2.855  68.479  69.618  1.00  0.00     0.157 HD
BRANCH  21  25
HETATM   25  C8  UNL     1       3.118  66.008  69.350  1.00  0.00     0.312 C
BRANCH  25  26
HETATM   26  N4  UNL     1       3.806  65.096  68.509  1.00  0.00    -0.060 N
HETATM   27  C9  UNL     1       5.190  64.985  69.027  1.00  0.00     0.273 C
BRANCH  26  28
HETATM   28  C10 UNL     1       3.332  63.730  68.528  1.00  0.00     0.242 C
BRANCH  28  29
HETATM   29  C11 UNL     1       2.802  63.192  69.792  1.00  0.00     0.066 C
BRANCH  29  30
HETATM   30  C12 UNL     1       3.474  61.887  70.162  1.00  0.00    -0.057 A
HETATM   31  C13 UNL     1       4.583  61.871  70.979  1.00  0.00     0.007 A
HETATM   32  C14 UNL     1       5.214  60.675  71.329  1.00  0.00     0.001 A
HETATM   33  C15 UNL     1       4.703  59.496  70.836  1.00  0.00     0.000 A
HETATM   34  C16 UNL     1       3.594  59.479  70.016  1.00  0.00     0.001 A
HETATM   35  C17 UNL     1       2.986  60.687  69.685  1.00  0.00     0.007 A
ENDBRANCH  29  30
ENDBRANCH  28  29
ENDBRANCH  26  28
BRANCH  26  36
HETATM   36  C18 UNL     1       3.913  65.487  67.123  1.00  0.00     0.182 C
HETATM   37  C19 UNL     1       5.238  66.013  66.695  1.00  0.00     0.040 C
HETATM   38  C20 UNL     1       3.515  64.412  66.139  1.00  0.00     0.040 C
ENDBRANCH  26  36
ENDBRANCH  25  26
ENDBRANCH  21  25
ENDBRANCH   1  21
TORSDOF 14
ENDMDL