MODEL 3
REMARK VINA RESULT: -9.534938371      2.098      3.452
REMARK  16 active torsions:
REMARK  status: ('A' for Active; 'I' for Inactive)
REMARK    1  A    between atoms: C3_3  and  N1_4
REMARK       I    between atoms: N1_4  and  C4_6
REMARK       I    between atoms: C4_6  and  N2_8
REMARK    2  A    between atoms: N2_8  and  C5_10
REMARK    3  A    between atoms: C5_10  and  C6_11
REMARK    4  A    between atoms: C6_11  and  C7_12
REMARK    5  A    between atoms: C7_12  and  C8_13
REMARK    6  A    between atoms: C8_13  and  C9_14
REMARK    7  A    between atoms: C8_13  and  C11_16
REMARK    8  A    between atoms: C13_20  and  C14_21
REMARK    9  A    between atoms: C16_23  and  C17_24
REMARK   10  A    between atoms: C17_24  and  C18_25
REMARK   11  A    between atoms: C18_25  and  C19_26
REMARK   12  A    between atoms: C19_26  and  O2_27
REMARK   13  A    between atoms: C19_26  and  N4_29
REMARK   14  A    between atoms: N4_29  and  C20_31
REMARK   15  A    between atoms: C20_31  and  C21_32
REMARK   16  A    between atoms: C21_32  and  C22_33
ROOT
HETATM    1  C1  UNL     1       1.143  63.138  72.270  1.00  0.00     0.014 C
HETATM    2  C2  UNL     1       0.724  63.818  71.360  1.00  0.00    -0.098 C
HETATM    3  C3  UNL     1       0.225  64.628  70.253  1.00  0.00     0.217 C
ENDROOT
BRANCH   3   4
HETATM    4  N1  UNL     1       1.018  65.834  70.163  1.00  0.00    -0.333 N
HETATM    5  C4  UNL     1       0.966  66.646  69.015  1.00  0.00     0.320 C
HETATM    6  O1  UNL     1       0.228  66.328  68.060  1.00  0.00    -0.247 OA
HETATM    7  N2  UNL     1       1.756  67.838  68.937  1.00  0.00    -0.319 N
ATOM      8  H2  UNL     1       2.356  68.088  69.723  1.00  0.00     0.170 HD
ATOM      9  H1  UNL     1       1.624  66.098  70.940  1.00  0.00     0.165 HD
BRANCH   7  10
HETATM   10  C5  UNL     1       1.728  68.680  67.797  1.00  0.00     0.092 C
BRANCH  10  11
HETATM   11  C6  UNL     1       1.753  68.148  66.446  1.00  0.00     0.014 C
BRANCH  11  12
HETATM   12  C7  UNL     1       2.922  68.218  65.575  1.00  0.00    -0.012 C
BRANCH  12  13
HETATM   13  C8  UNL     1       4.189  67.522  65.799  1.00  0.00     0.064 C
BRANCH  13  14
HETATM   14  C9  UNL     1       5.176  67.413  64.737  1.00  0.00    -0.024 C
HETATM   15  C10 UNL     1       5.500  68.478  64.020  1.00  0.00     0.008 C
ENDBRANCH  13  14
BRANCH  13  16
HETATM   16  C11 UNL     1       3.915  66.168  66.433  1.00  0.00    -0.029 A
HETATM   17  C12 UNL     1       3.298  65.081  65.889  1.00  0.00     0.096 A
HETATM   18  N3  UNL     1       3.283  64.079  66.826  1.00  0.00    -0.365 N
HETATM   19  C13 UNL     1       3.865  64.459  67.965  1.00  0.00     0.038 A
ATOM     20  H3  UNL     1       2.877  63.157  66.671  1.00  0.00     0.165 HD
HETATM   21  C28 UNL     1       4.265  65.796  67.704  1.00  0.00     0.039 A
BRANCH  19  22
HETATM   22  C14 UNL     1       4.138  63.806  69.215  1.00  0.00    -0.035 C
HETATM   23  C15 UNL     1       5.068  64.560  70.198  1.00  0.00     0.050 C
HETATM   24  C16 UNL     1       3.721  62.675  69.680  1.00  0.00     0.009 C
BRANCH  24  25
HETATM   25  C17 UNL     1       2.858  61.673  69.143  1.00  0.00     0.005 C
BRANCH  25  26
HETATM   26  C18 UNL     1       2.801  60.421  69.418  1.00  0.00     0.055 C
BRANCH  26  27
HETATM   27  C19 UNL     1       3.684  59.449  69.917  1.00  0.00     0.135 C
BRANCH  27  28
HETATM   28  O2  UNL     1       3.932  58.450  69.081  1.00  0.00    -0.346 OA
ATOM     29  H2  UNL     1       4.834  58.395  68.790  1.00  0.00     0.219 HD
ENDBRANCH  27  28
BRANCH  27  30
HETATM   30  N4  UNL     1       4.373  59.294  71.115  1.00  0.00    -0.371 N
ATOM     31  H4  UNL     1       5.373  59.495  71.136  1.00  0.00     0.161 HD
BRANCH  30  32
HETATM   32  C20 UNL     1       3.711  58.847  72.358  1.00  0.00     0.128 C
BRANCH  32  33
HETATM   33  C21 UNL     1       2.693  57.780  72.151  1.00  0.00     0.077 C
BRANCH  33  34
HETATM   34  C22 UNL     1       1.414  58.207  72.804  1.00  0.00     0.012 A
HETATM   35  C23 UNL     1       0.966  59.503  72.615  1.00  0.00     0.025 A
HETATM   36  C24 UNL     1      -0.213  59.907  73.213  1.00  0.00     0.003 A
HETATM   37  C25 UNL     1      -0.891  58.990  73.977  1.00  0.00     0.017 A
HETATM   38  C26 UNL     1      -0.437  57.689  74.164  1.00  0.00     0.090 A
HETATM   39  N5  UNL     1       0.732  57.332  73.554  1.00  0.00    -0.364 N
HETATM   40  C27 UNL     1       1.195  55.977  73.759  1.00  0.00     0.155 C
ENDBRANCH  33  34
ENDBRANCH  32  33
ENDBRANCH  30  32
ENDBRANCH  27  30
ENDBRANCH  26  27
ENDBRANCH  25  26
ENDBRANCH  24  25
ENDBRANCH  19  22
ENDBRANCH  13  16
ENDBRANCH  12  13
ENDBRANCH  11  12
ENDBRANCH  10  11
ENDBRANCH   7  10
ENDBRANCH   3   4
TORSDOF 16
ENDMDL