MODEL 3
REMARK VINA RESULT: -10.054975353      1.538      2.531
REMARK  13 active torsions:
REMARK  status: ('A' for Active; 'I' for Inactive)
REMARK       I    between atoms: N1_3  and  C3_5
REMARK       I    between atoms: C3_5  and  N5_32
REMARK    1  A    between atoms: N2_6  and  C4_8
REMARK    2  A    between atoms: C4_8  and  C5_9
REMARK    3  A    between atoms: C5_9  and  C6_10
REMARK    4  A    between atoms: C6_10  and  C7_11
REMARK    5  A    between atoms: C7_11  and  N3_12
REMARK    6  A    between atoms: C7_11  and  C17_24
REMARK       I    between atoms: N3_12  and  C8_14
REMARK    7  A    between atoms: C8_14  and  C9_16
REMARK    8  A    between atoms: C9_16  and  C10_17
REMARK    9  A    between atoms: C10_17  and  C11_18
REMARK   10  A    between atoms: N4_28  and  C21_29
REMARK   11  A    between atoms: N5_32  and  C24_34
REMARK   12  A    between atoms: C24_34  and  C27_37
REMARK   13  A    between atoms: C27_37  and  O2_38
ROOT
HETATM    1  C7  UNL     1       3.081  66.275  67.980  1.00  0.00     0.119 C
ENDROOT
BRANCH   1   2
HETATM    2  C6  UNL     1       3.609  66.010  69.360  1.00  0.00     0.032 C
BRANCH   2   3
HETATM    3  C5  UNL     1       4.805  65.112  69.393  1.00  0.00     0.022 C
BRANCH   3   4
HETATM    4  C4  UNL     1       4.405  63.700  69.833  1.00  0.00     0.138 C
BRANCH   4   5
HETATM    5  N2  UNL     1       3.223  63.717  70.650  1.00  0.00    -0.226 N
HETATM    6  C3  UNL     1       2.820  62.700  71.330  1.00  0.00     0.674 C
HETATM    7  N1  UNL     1       1.658  62.698  72.140  1.00  0.00    -0.206 N
HETATM    8  N5  UNL     1       3.589  61.508  71.263  1.00  0.00    -0.216 N
HETATM    9  C2  UNL     1       0.545  63.232  71.796  1.00  0.00     0.074 C
ATOM     10  H1  UNL     1       1.710  62.245  73.052  1.00  0.00     0.183 HD
HETATM   11  C1  UNL     1       0.321  63.926  70.499  1.00  0.00     0.055 C
ATOM     12  H5  UNL     1       4.538  61.531  71.636  1.00  0.00     0.178 HD
ATOM     13  H2  UNL     1       2.676  64.578  70.693  1.00  0.00     0.177 HD
BRANCH   8  14
HETATM   14  C24 UNL     1       3.121  60.280  70.708  1.00  0.00     0.061 C
HETATM   15  C25 UNL     1       2.087  59.629  71.610  1.00  0.00     0.041 C
HETATM   16  C26 UNL     1       2.470  60.453  69.352  1.00  0.00     0.041 C
BRANCH  14  17
HETATM   17  C27 UNL     1       4.273  59.315  70.553  1.00  0.00     0.194 C
BRANCH  17  18
HETATM   18  O2  UNL     1       4.006  58.440  69.505  1.00  0.00    -0.398 OA
ATOM     19  H2  UNL     1       3.222  58.723  69.048  1.00  0.00     0.209 HD
ENDBRANCH  17  18
ENDBRANCH  14  17
ENDBRANCH   8  14
ENDBRANCH   4   5
ENDBRANCH   3   4
ENDBRANCH   2   3
ENDBRANCH   1   2
BRANCH   1  20
HETATM   20  N3  UNL     1       4.091  66.779  67.084  1.00  0.00    -0.352 N
HETATM   21  C8  UNL     1       4.354  66.153  65.845  1.00  0.00     0.218 C
HETATM   22  O1  UNL     1       3.687  65.136  65.525  1.00  0.00    -0.274 OA
ATOM     23  H3  UNL     1       4.628  67.604  67.350  1.00  0.00     0.163 HD
BRANCH  21  24
HETATM   24  C9  UNL     1       5.395  66.692  64.947  1.00  0.00     0.107 C
BRANCH  24  25
HETATM   25  C10 UNL     1       5.071  68.140  64.645  1.00  0.00     0.047 C
BRANCH  25  26
HETATM   26  C11 UNL     1       4.005  68.191  63.602  1.00  0.00    -0.058 A
HETATM   27  C12 UNL     1       4.395  68.242  62.275  1.00  0.00     0.007 A
HETATM   28  C13 UNL     1       3.387  68.288  61.325  1.00  0.00     0.001 A
HETATM   29  C14 UNL     1       2.048  68.284  61.651  1.00  0.00     0.000 A
HETATM   30  C15 UNL     1       1.677  68.233  62.973  1.00  0.00     0.001 A
HETATM   31  C16 UNL     1       2.669  68.187  63.926  1.00  0.00     0.007 A
ENDBRANCH  25  26
ENDBRANCH  24  25
ENDBRANCH  21  24
ENDBRANCH   1  20
BRANCH   1  32
HETATM   32  C17 UNL     1       1.906  67.161  67.934  1.00  0.00    -0.020 A
HETATM   33  C18 UNL     1       2.082  68.503  68.141  1.00  0.00     0.012 A
HETATM   34  C19 UNL     1       0.986  69.327  68.098  1.00  0.00     0.018 A
HETATM   35  C20 UNL     1      -0.279  68.779  67.844  1.00  0.00     0.090 A
HETATM   36  N4  UNL     1      -0.435  67.465  67.644  1.00  0.00    -0.366 N
HETATM   37  C23 UNL     1       0.642  66.665  67.688  1.00  0.00     0.099 A
BRANCH  36  38
HETATM   38  C21 UNL     1      -1.728  66.921  67.386  1.00  0.00     0.123 C
HETATM   39  C22 UNL     1      -2.576  67.775  66.480  1.00  0.00     0.027 C
ENDBRANCH  36  38
ENDBRANCH   1  32
TORSDOF 13
ENDMDL