MODEL 2
REMARK VINA RESULT: -9.484473032      1.198      1.711
REMARK  16 active torsions:
REMARK  status: ('A' for Active; 'I' for Inactive)
REMARK    1  A    between atoms: C2_2  and  C3_3
REMARK    2  A    between atoms: C3_3  and  C4_4
REMARK    3  A    between atoms: C4_4  and  N1_6
REMARK    4  A    between atoms: N1_6  and  C11_19
REMARK    5  A    between atoms: C6_7  and  C7_8
REMARK    6  A    between atoms: C7_8  and  C8_9
REMARK    7  A    between atoms: C10_11  and  N2_12
REMARK    8  A    between atoms: C11_19  and  C12_20
REMARK    9  A    between atoms: C12_20  and  C13_21
REMARK   10  A    between atoms: C13_21  and  C14_22
REMARK   11  A    between atoms: C13_21  and  C21_33
REMARK   12  A    between atoms: C14_22  and  N5_23
REMARK       I    between atoms: N5_23  and  C15_25
REMARK   13  A    between atoms: C15_25  and  C16_27
REMARK   14  A    between atoms: C16_27  and  N6_28
REMARK   15  A    between atoms: N6_28  and  C19_31
REMARK   16  A    between atoms: C21_33  and  C22_34
ROOT
HETATM    1  C13 UNL     1       3.263  65.998  68.876  1.00  0.00     0.009 C
ENDROOT
BRANCH   1   2
HETATM    2  C12 UNL     1       3.716  64.978  69.969  1.00  0.00     0.027 C
BRANCH   2   3
HETATM    3  C11 UNL     1       2.576  64.331  70.645  1.00  0.00     0.128 C
BRANCH   3   4
HETATM    4  N1  UNL     1       2.777  62.937  71.008  1.00  0.00    -0.367 N
HETATM    5  C6  UNL     1       3.939  62.401  70.621  1.00  0.00     0.069 C
BRANCH   4   6
HETATM    6  C4  UNL     1       1.537  62.308  71.161  1.00  0.00    -0.016 C
HETATM    7  C5  UNL     1       0.348  63.028  70.626  1.00  0.00     0.063 C
BRANCH   6   8
HETATM    8  C3  UNL     1       1.269  61.594  72.444  1.00  0.00     0.052 C
BRANCH   8   9
HETATM    9  C2  UNL     1       0.310  60.494  72.515  1.00  0.00     0.001 C
HETATM   10  C1  UNL     1       0.754  59.262  73.247  1.00  0.00     0.005 C
ENDBRANCH   8   9
ENDBRANCH   6   8
ENDBRANCH   4   6
BRANCH   5  11
HETATM   11  C7  UNL     1       4.651  61.386  71.490  1.00  0.00     0.103 C
BRANCH  11  12
HETATM   12  C8  UNL     1       4.169  60.043  71.009  1.00  0.00     0.034 A
HETATM   13  C9  UNL     1       4.079  58.851  71.682  1.00  0.00     0.076 A
HETATM   14  C10 UNL     1       3.576  57.876  70.832  1.00  0.00     0.115 A
HETATM   15  N3  UNL     1       3.375  58.501  69.659  1.00  0.00    -0.286 N
HETATM   16  N4  UNL     1       3.718  59.772  69.749  1.00  0.00    -0.303 N
ATOM     17  H3  UNL     1       3.008  58.056  68.817  1.00  0.00     0.188 HD
ATOM     18  H4  UNL     1       3.655  60.451  68.991  1.00  0.00     0.186 HD
BRANCH  14  19
HETATM   19  N2  UNL     1       3.355  56.629  71.122  1.00  0.00    -0.384 N
ATOM     20  H22 UNL     1       2.460  56.140  71.156  1.00  0.00     0.157 HD
ATOM     21  H21 UNL     1       4.053  55.926  71.368  1.00  0.00     0.157 HD
ENDBRANCH  14  19
ENDBRANCH  11  12
ENDBRANCH   5  11
ENDBRANCH   3   4
ENDBRANCH   2   3
ENDBRANCH   1   2
BRANCH   1  22
HETATM   22  C14 UNL     1       2.562  67.080  69.615  1.00  0.00     0.127 C
BRANCH  22  23
HETATM   23  N5  UNL     1       1.284  67.500  69.141  1.00  0.00    -0.359 N
HETATM   24  C15 UNL     1       1.115  68.573  68.229  1.00  0.00     0.243 C
HETATM   25  O1  UNL     1       2.125  69.176  67.822  1.00  0.00    -0.272 OA
ATOM     26  H5  UNL     1       0.455  67.006  69.472  1.00  0.00     0.162 HD
BRANCH  24  27
HETATM   27  C16 UNL     1      -0.223  68.960  67.777  1.00  0.00     0.338 C
BRANCH  27  28
HETATM   28  N6  UNL     1      -0.755  68.101  66.739  1.00  0.00    -0.067 N
HETATM   29  C17 UNL     1       0.133  67.961  65.603  1.00  0.00     0.272 C
HETATM   30  C18 UNL     1      -1.984  68.697  66.265  1.00  0.00     0.272 C
BRANCH  28  31
HETATM   31  C19 UNL     1      -0.967  66.806  67.346  1.00  0.00     0.232 C
HETATM   32  C20 UNL     1      -2.284  66.663  68.025  1.00  0.00     0.035 C
ENDBRANCH  28  31
ENDBRANCH  27  28
ENDBRANCH  24  27
ENDBRANCH  22  23
ENDBRANCH   1  22
BRANCH   1  33
HETATM   33  C21 UNL     1       4.465  66.398  68.111  1.00  0.00     0.045 C
BRANCH  33  34
HETATM   34  C22 UNL     1       4.426  66.386  66.641  1.00  0.00    -0.057 A
HETATM   35  C23 UNL     1       4.414  65.189  65.930  1.00  0.00     0.013 A
HETATM   36  C24 UNL     1       4.437  65.128  64.555  1.00  0.00    -0.061 A
HETATM   37  C25 UNL     1       4.421  63.797  63.860  1.00  0.00     0.048 C
HETATM   38  C26 UNL     1       4.471  66.313  63.876  1.00  0.00     0.013 A
HETATM   39  C27 UNL     1       4.485  67.545  64.516  1.00  0.00    -0.061 A
HETATM   40  C28 UNL     1       4.526  68.809  63.720  1.00  0.00     0.048 C
HETATM   41  C29 UNL     1       4.463  67.579  65.893  1.00  0.00     0.013 A
ENDBRANCH  33  34
ENDBRANCH   1  33
TORSDOF 16
ENDMDL