MODEL 1
REMARK VINA RESULT: -9.735839698      0.000      0.000
REMARK  13 active torsions:
REMARK  status: ('A' for Active; 'I' for Inactive)
REMARK    1  A    between atoms: C2_2  and  C3_3
REMARK    2  A    between atoms: C3_3  and  N1_4
REMARK       I    between atoms: C4_6  and  N2_7
REMARK       I    between atoms: C4_6  and  N3_10
REMARK    3  A    between atoms: N3_10  and  C6_12
REMARK    4  A    between atoms: C6_12  and  C7_13
REMARK    5  A    between atoms: C6_12  and  C17_29
REMARK       I    between atoms: C7_13  and  N4_15
REMARK    6  A    between atoms: N4_15  and  C8_17
REMARK    7  A    between atoms: C9_18  and  C10_19
REMARK    8  A    between atoms: C10_19  and  C11_20
REMARK    9  A    between atoms: C11_20  and  N5_21
REMARK   10  A    between atoms: N5_21  and  C12_23
REMARK   11  A    between atoms: C13_24  and  N6_25
REMARK   12  A    between atoms: C17_29  and  C18_30
REMARK   13  A    between atoms: C17_29  and  C24_36
ROOT
HETATM    1  C6  UNL     1       1.775  63.381  71.011  1.00  0.00     0.204 C
ENDROOT
BRANCH   1   2
HETATM    2  N3  UNL     1       0.940  62.214  71.375  1.00  0.00    -0.212 N
HETATM    3  C4  UNL     1       0.442  61.812  72.614  1.00  0.00     0.670 C
HETATM    4  N1  UNL     1      -0.354  60.814  72.624  1.00  0.00    -0.227 N
HETATM    5  N2  UNL     1       0.693  62.453  73.852  1.00  0.00    -0.231 N
ATOM      6  H1  UNL     1      -0.521  60.368  71.722  1.00  0.00     0.177 HD
HETATM    7  C5  UNL     1       1.758  61.912  74.665  1.00  0.00     0.165 C
ATOM      8  H2  UNL     1       0.147  63.259  74.156  1.00  0.00     0.177 HD
ATOM      9  H3  UNL     1       0.688  61.607  70.595  1.00  0.00     0.178 HD
BRANCH   4  10
HETATM   10  C3  UNL     1      -1.030  60.252  73.725  1.00  0.00     0.137 C
BRANCH  10  11
HETATM   11  C2  UNL     1      -0.470  58.839  74.011  1.00  0.00     0.016 C
HETATM   12  C1  UNL     1       0.801  58.565  73.302  1.00  0.00     0.006 C
ENDBRANCH  10  11
ENDBRANCH   4  10
ENDBRANCH   1   2
BRANCH   1  13
HETATM   13  C7  UNL     1       0.884  64.524  70.887  1.00  0.00     0.245 C
HETATM   14  O1  UNL     1       0.108  64.834  71.842  1.00  0.00    -0.271 OA
HETATM   15  N4  UNL     1       0.762  65.361  69.711  1.00  0.00    -0.336 N
ATOM     16  H4  UNL     1       1.398  65.181  68.934  1.00  0.00     0.168 HD
BRANCH  15  17
HETATM   17  C8  UNL     1      -0.151  66.382  69.569  1.00  0.00     0.087 C
HETATM   18  C9  UNL     1      -1.234  66.757  68.738  1.00  0.00    -0.008 C
BRANCH  18  19
HETATM   19  C10 UNL     1      -1.415  66.728  67.273  1.00  0.00     0.048 C
BRANCH  19  20
HETATM   20  C11 UNL     1      -0.800  68.045  66.706  1.00  0.00     0.122 C
BRANCH  20  21
HETATM   21  N5  UNL     1       0.083  67.874  65.616  1.00  0.00    -0.397 N
ATOM     22  H5  UNL     1      -0.025  68.341  64.715  1.00  0.00     0.158 HD
BRANCH  21  23
HETATM   23  C12 UNL     1       1.146  66.969  65.925  1.00  0.00     0.108 C
HETATM   24  C13 UNL     1       2.140  66.638  64.932  1.00  0.00     0.217 C
BRANCH  24  25
HETATM   25  N6  UNL     1       3.129  67.577  64.539  1.00  0.00    -0.057 N
HETATM   26  C14 UNL     1       3.643  68.500  65.497  1.00  0.00     0.277 C
HETATM   27  C15 UNL     1       2.705  68.294  63.345  1.00  0.00     0.277 C
HETATM   28  C16 UNL     1       4.328  66.777  64.102  1.00  0.00     0.277 C
ENDBRANCH  24  25
ENDBRANCH  21  23
ENDBRANCH  20  21
ENDBRANCH  19  20
ENDBRANCH  18  19
ENDBRANCH  15  17
ENDBRANCH   1  13
BRANCH   1  29
HETATM   29  C17 UNL     1       2.694  62.901  69.975  1.00  0.00     0.084 C
BRANCH  29  30
HETATM   30  C18 UNL     1       3.622  63.785  69.304  1.00  0.00    -0.047 A
HETATM   31  C19 UNL     1       4.665  64.407  69.938  1.00  0.00     0.008 A
HETATM   32  C20 UNL     1       5.471  65.272  69.223  1.00  0.00     0.001 A
HETATM   33  C21 UNL     1       5.255  65.535  67.867  1.00  0.00     0.000 A
HETATM   34  C22 UNL     1       4.206  64.890  67.283  1.00  0.00     0.001 A
HETATM   35  C23 UNL     1       3.372  64.023  67.935  1.00  0.00     0.008 A
ENDBRANCH  29  30
BRANCH  29  36
HETATM   36  C24 UNL     1       3.289  61.611  70.474  1.00  0.00    -0.047 A
HETATM   37  C25 UNL     1       4.037  61.565  71.624  1.00  0.00     0.008 A
HETATM   38  C26 UNL     1       4.560  60.413  72.162  1.00  0.00     0.001 A
HETATM   39  C27 UNL     1       4.331  59.206  71.517  1.00  0.00     0.000 A
HETATM   40  C28 UNL     1       3.585  59.217  70.358  1.00  0.00     0.001 A
HETATM   41  C29 UNL     1       3.072  60.404  69.847  1.00  0.00     0.008 A
ENDBRANCH  29  36
ENDBRANCH   1  29
TORSDOF 13
ENDMDL