MODEL 3
REMARK VINA RESULT: -9.847135703      2.232      4.085
REMARK  16 active torsions:
REMARK  status: ('A' for Active; 'I' for Inactive)
REMARK    1  A    between atoms: C2_2  and  C3_3
REMARK    2  A    between atoms: C3_3  and  N1_4
REMARK    3  A    between atoms: N1_4  and  C5_6
REMARK    4  A    between atoms: N1_4  and  C8_9
REMARK    5  A    between atoms: C5_6  and  C6_7
REMARK    6  A    between atoms: C8_9  and  C9_10
REMARK    7  A    between atoms: C9_10  and  C10_11
REMARK    8  A    between atoms: C10_11  and  N2_12
REMARK       I    between atoms: N2_12  and  C11_14
REMARK    9  A    between atoms: C11_14  and  C12_16
REMARK   10  A    between atoms: C12_16  and  C13_17
REMARK   11  A    between atoms: C12_16  and  N3_24
REMARK   12  A    between atoms: C13_17  and  C14_18
REMARK       I    between atoms: N3_24  and  C20_26
REMARK   13  A    between atoms: C20_26  and  C21_28
REMARK   14  A    between atoms: C21_28  and  N4_29
REMARK   15  A    between atoms: C21_28  and  C22_33
REMARK   16  A    between atoms: C22_33  and  C23_34
ROOT
HETATM    1  C12 UNL     1       1.273  63.833  71.397  1.00  0.00     0.180 C
ENDROOT
BRANCH   1   2
HETATM    2  C11 UNL     1       0.865  65.129  70.803  1.00  0.00     0.240 C
HETATM    3  N2  UNL     1       1.454  65.648  69.624  1.00  0.00    -0.359 N
ATOM      4  H2  UNL     1       2.191  65.131  69.144  1.00  0.00     0.162 HD
HETATM    5  O1  UNL     1      -0.057  65.766  71.410  1.00  0.00    -0.271 OA
BRANCH   3   6
HETATM    6  C10 UNL     1       0.997  66.918  69.110  1.00  0.00     0.124 C
BRANCH   6   7
HETATM    7  C9  UNL     1       1.411  67.158  67.697  1.00  0.00     0.048 C
BRANCH   7   8
HETATM    8  C8  UNL     1       2.849  67.192  67.398  1.00  0.00     0.239 C
BRANCH   8   9
HETATM    9  N1  UNL     1       3.436  66.326  66.466  1.00  0.00    -0.065 N
HETATM   10  C4  UNL     1       2.684  65.849  65.363  1.00  0.00     0.273 C
BRANCH   9  11
HETATM   11  C3  UNL     1       4.056  65.174  67.153  1.00  0.00     0.264 C
BRANCH  11  12
HETATM   12  C2  UNL     1       4.902  65.609  68.292  1.00  0.00    -0.009 C
HETATM   13  C1  UNL     1       5.063  64.877  69.391  1.00  0.00     0.008 C
ENDBRANCH  11  12
ENDBRANCH   9  11
BRANCH   9  14
HETATM   14  C5  UNL     1       4.588  67.060  65.879  1.00  0.00     0.264 C
BRANCH  14  15
HETATM   15  C6  UNL     1       4.119  68.321  65.230  1.00  0.00    -0.009 C
HETATM   16  C7  UNL     1       4.824  68.987  64.334  1.00  0.00     0.008 C
ENDBRANCH  14  15
ENDBRANCH   9  14
ENDBRANCH   8   9
ENDBRANCH   7   8
ENDBRANCH   6   7
ENDBRANCH   3   6
ENDBRANCH   1   2
BRANCH   1  17
HETATM   17  C13 UNL     1       1.520  62.876  70.232  1.00  0.00     0.073 C
BRANCH  17  18
HETATM   18  C14 UNL     1       2.709  62.042  70.461  1.00  0.00    -0.056 A
HETATM   19  C15 UNL     1       2.981  60.975  69.619  1.00  0.00     0.007 A
HETATM   20  C16 UNL     1       4.096  60.171  69.819  1.00  0.00     0.001 A
HETATM   21  C17 UNL     1       4.949  60.422  70.857  1.00  0.00     0.000 A
HETATM   22  C18 UNL     1       4.699  61.480  71.710  1.00  0.00     0.001 A
HETATM   23  C19 UNL     1       3.588  62.267  71.496  1.00  0.00     0.007 A
ENDBRANCH  17  18
ENDBRANCH   1  17
BRANCH   1  24
HETATM   24  N3  UNL     1       0.202  63.323  72.198  1.00  0.00    -0.346 N
HETATM   25  C20 UNL     1       0.343  62.920  73.549  1.00  0.00     0.249 C
HETATM   26  O2  UNL     1       1.472  63.014  74.078  1.00  0.00    -0.271 OA
ATOM     27  H3  UNL     1      -0.721  63.245  71.770  1.00  0.00     0.163 HD
BRANCH  25  28
HETATM   28  C21 UNL     1      -0.779  62.396  74.359  1.00  0.00     0.278 C
BRANCH  28  29
HETATM   29  N4  UNL     1      -0.339  61.856  75.621  1.00  0.00    -0.066 N
ATOM     30  H43 UNL     1       0.571  61.404  75.531  1.00  0.00     0.275 HD
ATOM     31  H42 UNL     1      -0.089  62.599  76.273  1.00  0.00     0.275 HD
ATOM     32  H41 UNL     1      -1.025  61.222  76.032  1.00  0.00     0.275 HD
ENDBRANCH  28  29
BRANCH  28  33
HETATM   33  C22 UNL     1      -1.526  61.355  73.572  1.00  0.00     0.083 C
BRANCH  33  34
HETATM   34  C23 UNL     1      -1.131  59.988  73.963  1.00  0.00    -0.028 A
HETATM   35  C24 UNL     1      -1.795  59.152  74.826  1.00  0.00     0.096 A
HETATM   36  N5  UNL     1      -1.106  57.979  74.927  1.00  0.00    -0.365 N
HETATM   37  C25 UNL     1      -0.011  58.047  74.143  1.00  0.00     0.042 A
ATOM     38  H5  UNL     1      -1.375  57.180  75.501  1.00  0.00     0.165 HD
HETATM   39  C26 UNL     1       1.010  57.146  73.882  1.00  0.00     0.030 A
HETATM   40  C30 UNL     1      -0.026  59.290  73.547  1.00  0.00    -0.002 A
HETATM   41  C27 UNL     1       2.036  57.472  73.017  1.00  0.00     0.002 A
HETATM   42  C28 UNL     1       2.022  58.712  72.421  1.00  0.00     0.001 A
HETATM   43  C29 UNL     1       0.997  59.606  72.689  1.00  0.00     0.014 A
ENDBRANCH  33  34
ENDBRANCH  28  33
ENDBRANCH  25  28
ENDBRANCH   1  24
TORSDOF 16
ENDMDL