MODEL 4
REMARK VINA RESULT: -8.734272755      2.339     10.114
REMARK  17 active torsions:
REMARK  status: ('A' for Active; 'I' for Inactive)
REMARK    1  A    between atoms: C3_3  and  C4_4
REMARK    2  A    between atoms: C5_5  and  C6_6
REMARK    3  A    between atoms: C6_6  and  N1_7
REMARK    4  A    between atoms: C11_12  and  C12_13
REMARK    5  A    between atoms: C12_13  and  N2_14
REMARK    6  A    between atoms: C12_13  and  C27_39
REMARK       I    between atoms: N2_14  and  C13_16
REMARK    7  A    between atoms: C13_16  and  C14_18
REMARK    8  A    between atoms: C14_18  and  C15_19
REMARK    9  A    between atoms: C15_19  and  C16_20
REMARK   10  A    between atoms: C16_20  and  C17_21
REMARK   11  A    between atoms: C17_21  and  C18_22
REMARK   12  A    between atoms: C18_22  and  N3_23
REMARK       I    between atoms: N3_23  and  C19_25
REMARK       I    between atoms: C19_25  and  N5_29
REMARK   13  A    between atoms: N5_29  and  C20_31
REMARK   14  A    between atoms: C20_31  and  C21_32
REMARK   15  A    between atoms: C21_32  and  N6_33
REMARK   16  A    between atoms: N6_33  and  C23_35
REMARK   17  A    between atoms: N6_33  and  C25_37
ROOT
HETATM    1  C14 UNL     1       4.079  64.397  65.499  1.00  0.00     0.103 C
ENDROOT
BRANCH   1   2
HETATM    2  C13 UNL     1       4.061  65.271  64.335  1.00  0.00     0.218 C
HETATM    3  N2  UNL     1       3.825  66.639  64.333  1.00  0.00    -0.351 N
ATOM      4  H2  UNL     1       3.642  67.099  65.224  1.00  0.00     0.163 HD
HETATM    5  O1  UNL     1       4.283  64.737  63.192  1.00  0.00    -0.274 OA
BRANCH   3   6
HETATM    6  C12 UNL     1       3.827  67.467  63.100  1.00  0.00     0.138 C
BRANCH   6   7
HETATM    7  C11 UNL     1       2.525  68.047  62.856  1.00  0.00     0.035 A
HETATM    8  N1  UNL     1       1.693  68.229  63.911  1.00  0.00    -0.347 N
HETATM    9  C7  UNL     1       0.433  68.741  63.730  1.00  0.00     0.092 A
HETATM   10  C8  UNL     1      -0.048  69.091  62.503  1.00  0.00     0.017 A
HETATM   11  C9  UNL     1       0.790  68.912  61.432  1.00  0.00     0.003 A
HETATM   12  C10 UNL     1       2.042  68.403  61.607  1.00  0.00     0.027 A
BRANCH   8  13
HETATM   13  C6  UNL     1       2.033  67.984  65.301  1.00  0.00     0.222 C
BRANCH  13  14
HETATM   14  C5  UNL     1       0.902  67.549  66.101  1.00  0.00    -0.082 C
HETATM   15  C4  UNL     1      -0.040  67.213  66.777  1.00  0.00    -0.077 C
BRANCH  15  16
HETATM   16  C3  UNL     1      -1.154  66.843  67.598  1.00  0.00     0.060 C
HETATM   17  C2  UNL     1      -2.378  67.311  67.438  1.00  0.00    -0.022 C
HETATM   18  C1  UNL     1      -2.624  68.286  66.338  1.00  0.00     0.036 C
ENDBRANCH  15  16
ENDBRANCH  13  14
ENDBRANCH   8  13
ENDBRANCH   6   7
BRANCH   6  19
HETATM   19  C27 UNL     1       5.017  68.344  63.305  1.00  0.00     0.006 C
HETATM   20  C28 UNL     1       5.116  69.077  64.601  1.00  0.00     0.012 C
HETATM   21  C29 UNL     1       5.370  69.234  62.129  1.00  0.00     0.012 C
ENDBRANCH   6  19
ENDBRANCH   3   6
ENDBRANCH   1   2
BRANCH   1  22
HETATM   22  C15 UNL     1       3.805  65.013  66.817  1.00  0.00     0.009 C
BRANCH  22  23
HETATM   23  C16 UNL     1       4.923  65.793  67.409  1.00  0.00     0.002 C
BRANCH  23  24
HETATM   24  C17 UNL     1       5.380  65.232  68.739  1.00  0.00     0.020 C
BRANCH  24  25
HETATM   25  C18 UNL     1       4.251  65.024  69.716  1.00  0.00     0.138 C
BRANCH  25  26
HETATM   26  N3  UNL     1       4.387  63.682  70.262  1.00  0.00    -0.227 N
HETATM   27  C19 UNL     1       3.498  62.639  69.886  1.00  0.00     0.667 C
HETATM   28  N4  UNL     1       2.287  62.912  69.546  1.00  0.00    -0.235 N
HETATM   29  N5  UNL     1       3.900  61.267  69.869  1.00  0.00    -0.225 N
ATOM     30  H42 UNL     1       2.000  63.891  69.558  1.00  0.00     0.174 HD
ATOM     31  H41 UNL     1       1.649  62.164  69.277  1.00  0.00     0.174 HD
ATOM     32  H5  UNL     1       4.889  61.060  69.728  1.00  0.00     0.177 HD
ATOM     33  H3  UNL     1       5.136  63.487  70.927  1.00  0.00     0.177 HD
BRANCH  29  34
HETATM   34  C20 UNL     1       2.994  60.157  70.038  1.00  0.00     0.166 C
BRANCH  34  35
HETATM   35  C21 UNL     1       2.307  60.116  71.341  1.00  0.00     0.257 C
BRANCH  35  36
HETATM   36  N6  UNL     1       2.707  59.200  72.326  1.00  0.00    -0.070 N
HETATM   37  C22 UNL     1       3.772  58.346  71.765  1.00  0.00     0.272 C
BRANCH  36  38
HETATM   38  C23 UNL     1       3.405  59.918  73.414  1.00  0.00     0.232 C
HETATM   39  C24 UNL     1       2.896  61.310  73.601  1.00  0.00     0.035 C
ENDBRANCH  36  38
BRANCH  36  40
HETATM   40  C25 UNL     1       1.741  58.352  72.913  1.00  0.00     0.232 C
HETATM   41  C26 UNL     1       1.865  56.887  72.618  1.00  0.00     0.035 C
ENDBRANCH  36  40
ENDBRANCH  35  36
ENDBRANCH  34  35
ENDBRANCH  29  34
ENDBRANCH  25  26
ENDBRANCH  24  25
ENDBRANCH  23  24
ENDBRANCH  22  23
ENDBRANCH   1  22
TORSDOF 17
ENDMDL