MODEL 2
REMARK VINA RESULT: -8.430885309      2.719      7.347
REMARK  18 active torsions:
REMARK  status: ('A' for Active; 'I' for Inactive)
REMARK    1  A    between atoms: C3_3  and  N1_4
REMARK       I    between atoms: C4_6  and  N2_7
REMARK       I    between atoms: C4_6  and  N6_28
REMARK    2  A    between atoms: N2_7  and  C5_9
REMARK    3  A    between atoms: C5_9  and  C6_10
REMARK    4  A    between atoms: C6_10  and  N3_11
REMARK    5  A    between atoms: N3_11  and  C8_13
REMARK    6  A    between atoms: N3_11  and  C11_16
REMARK    7  A    between atoms: C11_16  and  C12_17
REMARK    8  A    between atoms: C12_17  and  C13_18
REMARK    9  A    between atoms: C13_18  and  N4_19
REMARK   10  A    between atoms: N4_19  and  C14_21
REMARK   11  A    between atoms: C14_21  and  N5_23
REMARK   12  A    between atoms: N5_23  and  C15_25
REMARK   13  A    between atoms: C15_25  and  C16_26
REMARK   14  A    between atoms: N6_28  and  C18_30
REMARK   15  A    between atoms: C22_34  and  C23_35
REMARK   16  A    between atoms: C23_35  and  C24_36
REMARK   17  A    between atoms: C24_36  and  C25_37
REMARK   18  A    between atoms: C25_37  and  C26_38
ROOT
HETATM    1  C1  UNL     1       4.771  62.666  63.797  1.00  0.00     0.014 C
HETATM    2  C2  UNL     1       4.155  63.350  64.576  1.00  0.00    -0.097 C
HETATM    3  C3  UNL     1       3.415  64.219  65.539  1.00  0.00     0.231 C
ENDROOT
BRANCH   3   4
HETATM    4  N1  UNL     1       3.362  63.581  66.803  1.00  0.00    -0.216 N
HETATM    5  C4  UNL     1       3.912  63.941  67.909  1.00  0.00     0.675 C
HETATM    6  N2  UNL     1       3.741  63.150  69.072  1.00  0.00    -0.225 N
HETATM    7  N6  UNL     1       4.680  65.130  67.911  1.00  0.00    -0.192 N
ATOM      8  H2  UNL     1       4.587  62.773  69.499  1.00  0.00     0.177 HD
ATOM      9  H6  UNL     1       5.687  65.074  68.066  1.00  0.00     0.184 HD
ATOM     10  H1  UNL     1       2.814  62.722  66.840  1.00  0.00     0.178 HD
BRANCH   6  11
HETATM   11  C5  UNL     1       2.504  62.829  69.708  1.00  0.00     0.166 C
BRANCH  11  12
HETATM   12  C6  UNL     1       2.269  63.439  71.049  1.00  0.00     0.258 C
BRANCH  12  13
HETATM   13  N3  UNL     1       1.051  63.154  71.701  1.00  0.00    -0.059 N
HETATM   14  C7  UNL     1       1.170  63.291  73.135  1.00  0.00     0.273 C
BRANCH  13  15
HETATM   15  C8  UNL     1       0.575  61.806  71.496  1.00  0.00     0.329 C
HETATM   16  C9  UNL     1      -0.399  61.387  72.505  1.00  0.00    -0.089 C
HETATM   17  C10 UNL     1      -1.209  61.018  73.331  1.00  0.00     0.013 C
ENDBRANCH  13  15
BRANCH  13  18
HETATM   18  C11 UNL     1       0.058  64.159  71.302  1.00  0.00     0.243 C
BRANCH  18  19
HETATM   19  C12 UNL     1       0.597  65.403  70.779  1.00  0.00     0.072 C
BRANCH  19  20
HETATM   20  C13 UNL     1      -0.229  66.278  69.913  1.00  0.00     0.065 C
BRANCH  20  21
HETATM   21  N4  UNL     1      -0.294  66.021  68.532  1.00  0.00    -0.347 N
ATOM     22  H4  UNL     1       0.104  65.126  68.247  1.00  0.00     0.167 HD
BRANCH  21  23
HETATM   23  C14 UNL     1      -0.817  66.795  67.477  1.00  0.00     0.171 C
HETATM   24  S1  UNL     1      -2.292  67.468  67.506  1.00  0.00    -0.041 SA
BRANCH  23  25
HETATM   25  N5  UNL     1      -0.040  66.932  66.280  1.00  0.00    -0.367 N
ATOM     26  H5  UNL     1       0.609  66.194  66.007  1.00  0.00     0.161 HD
BRANCH  25  27
HETATM   27  C15 UNL     1      -0.175  68.103  65.469  1.00  0.00     0.121 C
BRANCH  27  28
HETATM   28  C16 UNL     1       0.730  67.919  64.240  1.00  0.00     0.015 C
HETATM   29  C17 UNL     1       0.076  68.669  63.099  1.00  0.00     0.006 C
ENDBRANCH  27  28
ENDBRANCH  25  27
ENDBRANCH  23  25
ENDBRANCH  21  23
ENDBRANCH  20  21
ENDBRANCH  19  20
ENDBRANCH  18  19
ENDBRANCH  13  18
ENDBRANCH  12  13
ENDBRANCH  11  12
ENDBRANCH   6  11
BRANCH   7  30
HETATM   30  C18 UNL     1       4.081  66.398  67.704  1.00  0.00     0.049 A
HETATM   31  C19 UNL     1       3.193  67.008  68.557  1.00  0.00     0.030 A
HETATM   32  C20 UNL     1       2.588  68.233  68.289  1.00  0.00     0.003 A
HETATM   33  C21 UNL     1       2.915  68.851  67.087  1.00  0.00     0.007 A
HETATM   34  C22 UNL     1       3.794  68.291  66.199  1.00  0.00    -0.056 A
HETATM   35  C28 UNL     1       4.361  67.086  66.513  1.00  0.00     0.037 A
BRANCH  34  36
HETATM   36  C23 UNL     1       4.092  68.984  64.899  1.00  0.00     0.038 C
BRANCH  36  37
HETATM   37  C24 UNL     1       5.249  68.276  64.260  1.00  0.00     0.005 C
BRANCH  37  38
HETATM   38  C25 UNL     1       5.240  68.353  62.768  1.00  0.00    -0.000 C
BRANCH  38  39
HETATM   39  C26 UNL     1       4.055  67.547  62.250  1.00  0.00    -0.005 C
HETATM   40  C27 UNL     1       3.251  68.349  61.259  1.00  0.00     0.005 C
ENDBRANCH  38  39
ENDBRANCH  37  38
ENDBRANCH  36  37
ENDBRANCH  34  36
ENDBRANCH   7  30
ENDBRANCH   3   4
TORSDOF 18
ENDMDL