MODEL 4
REMARK VINA RESULT: -9.140332503      1.668      4.589
REMARK  16 active torsions:
REMARK  status: ('A' for Active; 'I' for Inactive)
REMARK    1  A    between atoms: C2_2  and  C3_3
REMARK    2  A    between atoms: C2_2  and  N1_10
REMARK    3  A    between atoms: C3_3  and  C4_4
REMARK       I    between atoms: N1_10  and  C10_12
REMARK       I    between atoms: C10_12  and  N3_16
REMARK    4  A    between atoms: N3_16  and  C11_18
REMARK    5  A    between atoms: C11_18  and  C12_19
REMARK    6  A    between atoms: C12_19  and  C13_20
REMARK    7  A    between atoms: C13_20  and  C14_21
REMARK    8  A    between atoms: C14_21  and  N4_22
REMARK    9  A    between atoms: N4_22  and  C17_25
REMARK   10  A    between atoms: C17_25  and  C18_26
REMARK   11  A    between atoms: C18_26  and  C19_27
REMARK   12  A    between atoms: C19_27  and  C20_28
REMARK   13  A    between atoms: C20_28  and  N5_29
REMARK       I    between atoms: N5_29  and  C21_31
REMARK   14  A    between atoms: C21_31  and  C22_33
REMARK   15  A    between atoms: C23_34  and  C24_35
REMARK   16  A    between atoms: C25_36  and  C26_37
ROOT
HETATM    1  C14 UNL     1       2.572  64.633  70.126  1.00  0.00     0.201 C
ENDROOT
BRANCH   1   2
HETATM    2  C13 UNL     1       1.968  65.948  69.961  1.00  0.00     0.022 C
BRANCH   2   3
HETATM    3  C12 UNL     1       0.573  66.269  70.198  1.00  0.00    -0.005 C
BRANCH   3   4
HETATM    4  C11 UNL     1      -0.488  66.176  69.184  1.00  0.00     0.165 C
BRANCH   4   5
HETATM    5  N3  UNL     1      -0.556  67.285  68.249  1.00  0.00    -0.223 N
HETATM    6  C10 UNL     1      -0.106  67.250  66.912  1.00  0.00     0.668 C
HETATM    7  N1  UNL     1       1.120  66.643  66.587  1.00  0.00    -0.222 N
HETATM    8  N2  UNL     1      -0.845  67.792  66.015  1.00  0.00    -0.235 N
ATOM      9  H1  UNL     1       1.500  65.976  67.258  1.00  0.00     0.178 HD
ATOM     10  H22 UNL     1      -0.519  67.767  65.049  1.00  0.00     0.174 HD
ATOM     11  H21 UNL     1      -1.734  68.232  66.252  1.00  0.00     0.174 HD
ATOM     12  H3  UNL     1      -0.962  68.158  68.586  1.00  0.00     0.178 HD
BRANCH   7  13
HETATM   13  C2  UNL     1       1.890  66.880  65.388  1.00  0.00     0.099 C
HETATM   14  C1  UNL     1       2.757  65.641  65.129  1.00  0.00     0.033 C
BRANCH  13  15
HETATM   15  C3  UNL     1       2.673  68.135  65.508  1.00  0.00     0.063 C
BRANCH  15  16
HETATM   16  C4  UNL     1       3.547  68.454  64.377  1.00  0.00    -0.056 A
HETATM   17  C5  UNL     1       3.092  68.322  63.057  1.00  0.00     0.007 A
HETATM   18  C6  UNL     1       3.889  68.605  61.971  1.00  0.00     0.001 A
HETATM   19  C7  UNL     1       5.186  69.035  62.146  1.00  0.00     0.000 A
HETATM   20  C8  UNL     1       5.638  69.165  63.437  1.00  0.00     0.001 A
HETATM   21  C9  UNL     1       4.836  68.881  64.549  1.00  0.00     0.007 A
ENDBRANCH  15  16
ENDBRANCH  13  15
ENDBRANCH   7  13
ENDBRANCH   4   5
ENDBRANCH   3   4
ENDBRANCH   2   3
ENDBRANCH   1   2
BRANCH   1  22
HETATM   22  N4  UNL     1       3.743  64.143  69.575  1.00  0.00    -0.055 N
HETATM   23  C15 UNL     1       4.866  63.815  70.378  1.00  0.00     0.277 C
HETATM   24  C16 UNL     1       4.207  64.988  68.456  1.00  0.00     0.277 C
BRANCH  22  25
HETATM   25  C17 UNL     1       3.399  62.856  68.862  1.00  0.00     0.242 C
BRANCH  25  26
HETATM   26  C18 UNL     1       2.835  61.870  69.790  1.00  0.00     0.030 C
BRANCH  26  27
HETATM   27  C19 UNL     1       3.310  60.464  69.656  1.00  0.00     0.021 C
BRANCH  27  28
HETATM   28  C20 UNL     1       4.306  59.962  70.633  1.00  0.00     0.123 C
BRANCH  28  29
HETATM   29  N5  UNL     1       3.777  59.346  71.816  1.00  0.00    -0.358 N
HETATM   30  C21 UNL     1       3.843  60.109  73.051  1.00  0.00     0.241 C
HETATM   31  O1  UNL     1       4.365  61.236  72.939  1.00  0.00    -0.269 OA
ATOM     32  H5  UNL     1       3.372  58.411  71.791  1.00  0.00     0.162 HD
BRANCH  30  33
HETATM   33  C22 UNL     1       3.314  59.504  74.239  1.00  0.00     0.074 C
HETATM   34  C23 UNL     1       2.127  58.958  74.439  1.00  0.00     0.005 C
BRANCH  34  35
HETATM   35  C24 UNL     1       1.062  58.846  73.482  1.00  0.00     0.001 C
HETATM   36  C25 UNL     1       0.349  59.779  72.953  1.00  0.00     0.011 C
BRANCH  36  37
HETATM   37  C26 UNL     1       0.313  61.211  73.081  1.00  0.00    -0.040 A
HETATM   38  C27 UNL     1      -0.093  61.996  72.039  1.00  0.00    -0.012 A
HETATM   39  C28 UNL     1      -0.037  63.416  72.429  1.00  0.00     0.055 A
HETATM   40  C29 UNL     1       0.442  63.405  73.807  1.00  0.00    -0.022 A
HETATM   41  C30 UNL     1       0.628  62.113  74.132  1.00  0.00     0.007 A
ENDBRANCH  36  37
ENDBRANCH  34  35
ENDBRANCH  30  33
ENDBRANCH  28  29
ENDBRANCH  27  28
ENDBRANCH  26  27
ENDBRANCH  25  26
ENDBRANCH  22  25
ENDBRANCH   1  22
TORSDOF 16
ENDMDL