MODEL 1
REMARK VINA RESULT: -9.770008721      0.000      0.000
REMARK  17 active torsions:
REMARK  status: ('A' for Active; 'I' for Inactive)
REMARK    1  A    between atoms: C2_2  and  C3_3
REMARK    2  A    between atoms: C3_3  and  C4_4
REMARK    3  A    between atoms: C4_4  and  C5_5
REMARK    4  A    between atoms: C7_7  and  C8_8
REMARK    5  A    between atoms: C8_8  and  C9_9
REMARK    6  A    between atoms: C9_9  and  C10_10
REMARK    7  A    between atoms: C12_12  and  C13_13
REMARK    8  A    between atoms: C13_13  and  C14_14
REMARK    9  A    between atoms: C17_17  and  C18_18
REMARK   10  A    between atoms: C18_18  and  C19_19
REMARK   11  A    between atoms: C19_19  and  N1_20
REMARK       I    between atoms: N1_20  and  C20_22
REMARK   12  A    between atoms: N3_24  and  C21_26
REMARK   13  A    between atoms: C21_26  and  C22_27
REMARK   14  A    between atoms: C22_27  and  N4_28
REMARK   15  A    between atoms: N4_28  and  N5_29
REMARK   16  A    between atoms: N4_28  and  C23_32
REMARK   17  A    between atoms: C23_32  and  C24_33
ROOT
HETATM    1  C18 UNL     1       4.399  66.051  68.401  1.00  0.00     0.077 C
ENDROOT
BRANCH   1   2
HETATM    2  C17 UNL     1       3.016  66.111  68.905  1.00  0.00     0.019 A
HETATM    3  C12 UNL     1       2.563  65.245  69.886  1.00  0.00    -0.029 A
HETATM    4  C7  UNL     1       1.229  65.360  70.299  1.00  0.00    -0.048 A
HETATM    5  C6  UNL     1       0.429  66.344  69.708  1.00  0.00     0.033 A
HETATM    6  C5  UNL     1       0.885  67.195  68.745  1.00  0.00     0.012 A
HETATM    7  N6  UNL     1       2.166  67.036  68.389  1.00  0.00    -0.357 N
HETATM    8  C30 UNL     1       2.662  67.988  67.392  1.00  0.00     0.156 C
BRANCH   3   9
HETATM    9  C13 UNL     1       3.445  64.296  70.566  1.00  0.00     0.045 C
BRANCH   9  10
HETATM   10  C14 UNL     1       3.283  62.835  70.329  1.00  0.00    -0.018 C
HETATM   11  C15 UNL     1       3.292  62.299  68.958  1.00  0.00     0.010 C
HETATM   12  C16 UNL     1       4.561  62.129  70.977  1.00  0.00     0.010 C
ENDBRANCH   9  10
ENDBRANCH   3   9
BRANCH   4  13
HETATM   13  C8  UNL     1       0.560  64.458  71.237  1.00  0.00     0.039 C
BRANCH  13  14
HETATM   14  C9  UNL     1      -0.137  63.265  70.727  1.00  0.00     0.004 C
BRANCH  14  15
HETATM   15  C10 UNL     1      -0.589  62.340  71.872  1.00  0.00    -0.004 C
HETATM   16  C11 UNL     1       0.412  61.232  72.071  1.00  0.00     0.005 C
ENDBRANCH  14  15
ENDBRANCH  13  14
ENDBRANCH   4  13
BRANCH   6  17
HETATM   17  C4  UNL     1      -0.022  68.228  68.140  1.00  0.00     0.061 C
BRANCH  17  18
HETATM   18  C3  UNL     1      -1.078  67.585  67.283  1.00  0.00     0.032 C
BRANCH  18  19
HETATM   19  C2  UNL     1      -1.957  68.551  66.617  1.00  0.00    -0.037 C
HETATM   20  C1  UNL     1      -3.143  68.250  66.120  1.00  0.00     0.007 C
ENDBRANCH  18  19
ENDBRANCH  17  18
ENDBRANCH   6  17
ENDBRANCH   1   2
BRANCH   1  21
HETATM   21  C19 UNL     1       4.692  65.233  67.208  1.00  0.00     0.128 C
BRANCH  21  22
HETATM   22  N1  UNL     1       3.601  64.759  66.424  1.00  0.00    -0.364 N
HETATM   23  C20 UNL     1       3.910  64.567  65.019  1.00  0.00     0.184 C
HETATM   24  N2  UNL     1       3.914  63.306  64.392  1.00  0.00    -0.064 NA
HETATM   25  N3  UNL     1       4.192  65.607  64.316  1.00  0.00    -0.363 N
ATOM     26  H3  UNL     1       4.176  66.498  64.811  1.00  0.00     0.162 HD
ATOM     27  H1  UNL     1       2.680  64.570  66.817  1.00  0.00     0.162 HD
BRANCH  25  28
HETATM   28  C21 UNL     1       4.524  65.668  62.935  1.00  0.00     0.138 C
BRANCH  28  29
HETATM   29  C22 UNL     1       5.261  66.929  62.598  1.00  0.00     0.133 C
BRANCH  29  30
HETATM   30  N4  UNL     1       4.566  68.134  62.898  1.00  0.00    -0.232 NA
BRANCH  30  31
HETATM   31  N5  UNL     1       5.433  69.205  63.123  1.00  0.00    -0.363 NA
ATOM     32  H52 UNL     1       6.088  68.920  63.852  1.00  0.00     0.171 HD
ATOM     33  H51 UNL     1       4.937  70.056  63.388  1.00  0.00     0.171 HD
ENDBRANCH  30  31
BRANCH  30  34
HETATM   34  C23 UNL     1       3.680  68.512  61.810  1.00  0.00     0.151 C
BRANCH  34  35
HETATM   35  C24 UNL     1       2.270  68.555  62.309  1.00  0.00    -0.043 A
HETATM   36  C25 UNL     1       1.935  68.307  63.618  1.00  0.00     0.008 A
HETATM   37  C26 UNL     1       0.622  68.363  64.005  1.00  0.00     0.001 A
HETATM   38  C27 UNL     1      -0.393  68.659  63.127  1.00  0.00     0.000 A
HETATM   39  C28 UNL     1      -0.082  68.911  61.811  1.00  0.00     0.001 A
HETATM   40  C29 UNL     1       1.230  68.855  61.425  1.00  0.00     0.008 A
ENDBRANCH  34  35
ENDBRANCH  30  34
ENDBRANCH  29  30
ENDBRANCH  28  29
ENDBRANCH  25  28
ENDBRANCH  21  22
ENDBRANCH   1  21
TORSDOF 17
ENDMDL