MODEL 1
REMARK VINA RESULT: -10.358683916      0.000      0.000
REMARK  14 active torsions:
REMARK  status: ('A' for Active; 'I' for Inactive)
REMARK    1  A    between atoms: C2_2  and  C3_3
REMARK    2  A    between atoms: C3_3  and  C4_4
REMARK    3  A    between atoms: C4_4  and  N1_5
REMARK       I    between atoms: N1_5  and  C5_7
REMARK    4  A    between atoms: C5_7  and  C6_9
REMARK    5  A    between atoms: C6_9  and  C8_11
REMARK    6  A    between atoms: C6_9  and  C26_35
REMARK    7  A    between atoms: C8_11  and  C9_12
REMARK       I    between atoms: C9_12  and  N2_14
REMARK    8  A    between atoms: N2_14  and  C10_16
REMARK    9  A    between atoms: C10_16  and  C11_17
REMARK   10  A    between atoms: C10_16  and  C22_28
REMARK   11  A    between atoms: C11_17  and  C12_18
REMARK       I    between atoms: C22_28  and  N3_30
REMARK   12  A    between atoms: N3_30  and  C23_32
REMARK   13  A    between atoms: C23_32  and  C24_33
REMARK   14  A    between atoms: C26_35  and  C27_36
ROOT
HETATM    1  C9  UNL     1       3.168  65.369  69.074  1.00  0.00     0.219 C
HETATM    2  O2  UNL     1       3.439  64.607  68.096  1.00  0.00    -0.274 OA
HETATM    3  N2  UNL     1       2.647  64.759  70.244  1.00  0.00    -0.347 N
ATOM      4  H2  UNL     1       2.415  65.332  71.055  1.00  0.00     0.163 HD
ENDROOT
BRANCH   3   5
HETATM    5  C10 UNL     1       2.441  63.315  70.290  1.00  0.00     0.180 C
BRANCH   5   6
HETATM    6  C11 UNL     1       3.518  62.638  71.107  1.00  0.00     0.074 C
BRANCH   6   7
HETATM    7  C12 UNL     1       3.507  61.179  71.038  1.00  0.00    -0.045 A
HETATM    8  C13 UNL     1       3.588  60.508  69.815  1.00  0.00     0.008 A
HETATM    9  C14 UNL     1       3.559  59.155  69.671  1.00  0.00     0.001 A
HETATM   10  C15 UNL     1       3.441  58.369  70.785  1.00  0.00     0.012 A
HETATM   11  C16 UNL     1       3.356  58.969  72.023  1.00  0.00    -0.025 A
HETATM   12  C17 UNL     1       3.245  58.145  73.135  1.00  0.00     0.012 A
HETATM   13  C21 UNL     1       3.389  60.348  72.138  1.00  0.00    -0.020 A
HETATM   14  C18 UNL     1       3.165  58.701  74.402  1.00  0.00     0.001 A
HETATM   15  C19 UNL     1       3.201  60.076  74.504  1.00  0.00     0.001 A
HETATM   16  C20 UNL     1       3.311  60.879  73.383  1.00  0.00     0.013 A
ENDBRANCH   6   7
ENDBRANCH   5   6
BRANCH   5  17
HETATM   17  C22 UNL     1       1.092  63.097  70.868  1.00  0.00     0.241 C
HETATM   18  O3  UNL     1       0.072  62.945  70.148  1.00  0.00    -0.271 OA
HETATM   19  N3  UNL     1       0.923  63.054  72.280  1.00  0.00    -0.356 N
ATOM     20  H3  UNL     1       1.737  63.175  72.883  1.00  0.00     0.162 HD
BRANCH  19  21
HETATM   21  C23 UNL     1      -0.374  62.843  72.881  1.00  0.00     0.149 C
BRANCH  21  22
HETATM   22  C24 UNL     1      -0.425  61.517  73.592  1.00  0.00    -0.018 C
HETATM   23  C25 UNL     1      -0.247  60.383  72.938  1.00  0.00     0.008 C
ENDBRANCH  21  22
ENDBRANCH  19  21
ENDBRANCH   5  17
ENDBRANCH   3   5
BRANCH   1  24
HETATM   24  C8  UNL     1       3.371  66.835  69.041  1.00  0.00     0.122 C
BRANCH  24  25
HETATM   25  C6  UNL     1       2.247  67.545  68.309  1.00  0.00     0.051 C
HETATM   26  C7  UNL     1       2.287  68.988  68.790  1.00  0.00     0.026 C
BRANCH  25  27
HETATM   27  C5  UNL     1       2.458  67.445  66.858  1.00  0.00     0.226 C
HETATM   28  N1  UNL     1       3.317  68.355  66.210  1.00  0.00    -0.360 N
ATOM     29  H1  UNL     1       3.781  69.073  66.768  1.00  0.00     0.162 HD
HETATM   30  O1  UNL     1       1.908  66.572  66.110  1.00  0.00    -0.273 OA
BRANCH  28  31
HETATM   31  C4  UNL     1       3.567  68.313  64.793  1.00  0.00     0.126 C
BRANCH  31  32
HETATM   32  C3  UNL     1       4.876  68.973  64.446  1.00  0.00     0.046 C
BRANCH  32  33
HETATM   33  C2  UNL     1       5.155  68.980  63.008  1.00  0.00    -0.035 C
HETATM   34  C1  UNL     1       4.226  68.647  62.128  1.00  0.00     0.007 C
ENDBRANCH  32  33
ENDBRANCH  31  32
ENDBRANCH  28  31
ENDBRANCH  25  27
BRANCH  25  35
HETATM   35  C26 UNL     1       0.950  66.944  68.695  1.00  0.00     0.076 C
BRANCH  35  36
HETATM   36  C27 UNL     1      -0.238  67.383  67.968  1.00  0.00     0.010 A
HETATM   37  C28 UNL     1      -1.451  66.684  68.106  1.00  0.00     0.026 A
HETATM   38  C29 UNL     1      -2.385  67.324  67.334  1.00  0.00     0.019 A
HETATM   39  C30 UNL     1      -1.784  68.392  66.728  1.00  0.00     0.088 A
HETATM   40  N4  UNL     1      -0.490  68.396  67.134  1.00  0.00    -0.369 N
ATOM     41  H4  UNL     1       0.202  69.085  66.840  1.00  0.00     0.165 HD
ENDBRANCH  35  36
ENDBRANCH  25  35
ENDBRANCH  24  25
ENDBRANCH   1  24
TORSDOF 14
ENDMDL