MODEL 5
REMARK VINA RESULT: -9.455706168      2.102      8.794
REMARK  16 active torsions:
REMARK  status: ('A' for Active; 'I' for Inactive)
REMARK    1  A    between atoms: C2_2  and  N1_3
REMARK    2  A    between atoms: N1_3  and  C3_4
REMARK    3  A    between atoms: N1_3  and  C7_14
REMARK    4  A    between atoms: N1_3  and  C20_28
REMARK    5  A    between atoms: C3_4  and  C4_5
REMARK    6  A    between atoms: C4_5  and  C5_6
REMARK    7  A    between atoms: C5_6  and  N2_7
REMARK       I    between atoms: N2_7  and  C6_9
REMARK    8  A    between atoms: C7_14  and  C8_15
REMARK    9  A    between atoms: C8_15  and  C9_16
REMARK   10  A    between atoms: C9_16  and  C10_17
REMARK   11  A    between atoms: C13_20  and  C14_21
REMARK   12  A    between atoms: C14_21  and  N5_22
REMARK   13  A    between atoms: C20_28  and  C21_29
REMARK   14  A    between atoms: C21_29  and  N6_32
REMARK   15  A    between atoms: N6_32  and  C24_35
REMARK   16  A    between atoms: C24_35  and  C25_36
ROOT
HETATM    1  N1  UNL     1       2.807  62.679  70.571  1.00  0.00    -0.065 N
ENDROOT
BRANCH   1   2
HETATM    2  C2  UNL     1       3.798  62.445  71.651  1.00  0.00     0.233 C
HETATM    3  C1  UNL     1       5.152  62.093  71.162  1.00  0.00     0.035 C
ENDBRANCH   1   2
BRANCH   1   4
HETATM    4  C3  UNL     1       2.126  61.525  70.193  1.00  0.00     0.239 C
BRANCH   4   5
HETATM    5  C4  UNL     1       2.275  60.277  71.017  1.00  0.00     0.048 C
BRANCH   5   6
HETATM    6  C5  UNL     1       3.123  59.257  70.232  1.00  0.00     0.124 C
BRANCH   6   7
HETATM    7  N2  UNL     1       3.704  58.321  71.157  1.00  0.00    -0.365 N
HETATM    8  C6  UNL     1       3.117  57.045  71.382  1.00  0.00     0.181 C
HETATM    9  N3  UNL     1       3.553  56.045  70.709  1.00  0.00    -0.374 N
HETATM   10  N4  UNL     1       2.072  56.933  72.343  1.00  0.00    -0.064 NA
ATOM     11  H32 UNL     1       4.302  56.125  70.021  1.00  0.00     0.158 HD
ATOM     12  H31 UNL     1       3.132  55.130  70.870  1.00  0.00     0.158 HD
ATOM     13  H2  UNL     1       4.553  58.576  71.661  1.00  0.00     0.162 HD
ENDBRANCH   6   7
ENDBRANCH   5   6
ENDBRANCH   4   5
ENDBRANCH   1   4
BRANCH   1  14
HETATM   14  C7  UNL     1       3.692  63.146  69.479  1.00  0.00     0.238 C
BRANCH  14  15
HETATM   15  C8  UNL     1       3.595  64.577  69.146  1.00  0.00     0.032 C
BRANCH  15  16
HETATM   16  C9  UNL     1       4.672  64.907  68.125  1.00  0.00     0.040 C
BRANCH  16  17
HETATM   17  C10 UNL     1       4.225  65.707  66.993  1.00  0.00    -0.058 A
HETATM   18  C11 UNL     1       4.921  66.871  66.652  1.00  0.00     0.007 A
HETATM   19  C12 UNL     1       4.542  67.652  65.581  1.00  0.00     0.009 A
HETATM   20  C13 UNL     1       3.451  67.313  64.797  1.00  0.00    -0.032 A
HETATM   21  C18 UNL     1       2.762  66.171  65.126  1.00  0.00     0.009 A
HETATM   22  C19 UNL     1       3.145  65.396  66.195  1.00  0.00     0.007 A
BRANCH  20  23
HETATM   23  C14 UNL     1       3.059  68.168  63.649  1.00  0.00     0.274 C
BRANCH  23  24
HETATM   24  N5  UNL     1       3.879  67.992  62.491  1.00  0.00    -0.075 N
HETATM   25  C15 UNL     1       4.472  66.694  62.363  1.00  0.00     0.272 C
HETATM   26  C16 UNL     1       3.073  68.307  61.305  1.00  0.00     0.272 C
HETATM   27  C17 UNL     1       4.984  68.963  62.468  1.00  0.00     0.272 C
ENDBRANCH  23  24
ENDBRANCH  20  23
ENDBRANCH  16  17
ENDBRANCH  15  16
ENDBRANCH  14  15
ENDBRANCH   1  14
BRANCH   1  28
HETATM   28  C20 UNL     1       2.095  63.837  70.994  1.00  0.00     0.275 C
BRANCH  28  29
HETATM   29  C21 UNL     1       0.697  63.956  71.262  1.00  0.00     0.143 C
HETATM   30  C22 UNL     1      -0.315  63.327  70.345  1.00  0.00     0.047 C
HETATM   31  C23 UNL     1       0.246  63.672  72.677  1.00  0.00     0.047 C
BRANCH  29  32
HETATM   32  N6  UNL     1       0.357  65.402  71.106  1.00  0.00    -0.061 N
ATOM     33  H62 UNL     1      -0.242  65.716  71.869  1.00  0.00     0.278 HD
ATOM     34  H61 UNL     1       1.176  65.985  71.282  1.00  0.00     0.278 HD
BRANCH  32  35
HETATM   35  C24 UNL     1      -0.223  65.718  69.852  1.00  0.00     0.271 C
BRANCH  35  36
HETATM   36  C25 UNL     1       0.565  66.808  69.158  1.00  0.00    -0.033 A
HETATM   37  C26 UNL     1       1.711  67.228  69.769  1.00  0.00     0.009 A
HETATM   38  C27 UNL     1       2.431  68.234  69.121  1.00  0.00     0.001 A
HETATM   39  C28 UNL     1       1.976  68.755  67.923  1.00  0.00     0.000 A
HETATM   40  C29 UNL     1       0.806  68.295  67.344  1.00  0.00     0.001 A
HETATM   41  C30 UNL     1       0.094  67.316  67.961  1.00  0.00     0.009 A
ENDBRANCH  35  36
ENDBRANCH  32  35
ENDBRANCH  29  32
ENDBRANCH  28  29
ENDBRANCH   1  28
TORSDOF 16
ENDMDL