MODEL 1
REMARK VINA RESULT: -10.516798112      0.000      0.000
REMARK  17 active torsions:
REMARK  status: ('A' for Active; 'I' for Inactive)
REMARK    1  A    between atoms: C2_2  and  C3_3
REMARK    2  A    between atoms: C3_3  and  C4_4
REMARK    3  A    between atoms: C3_3  and  C6_6
REMARK    4  A    between atoms: C6_6  and  C7_7
REMARK    5  A    between atoms: C7_7  and  N3_13
REMARK    6  A    between atoms: N1_8  and  N2_10
REMARK    7  A    between atoms: N3_13  and  C9_15
REMARK    8  A    between atoms: C9_15  and  C10_16
REMARK    9  A    between atoms: C10_16  and  C11_17
REMARK   10  A    between atoms: C15_21  and  C16_22
REMARK   11  A    between atoms: C16_22  and  C17_23
REMARK   12  A    between atoms: C21_27  and  C22_28
REMARK   13  A    between atoms: C22_28  and  N4_29
REMARK   14  A    between atoms: N4_29  and  C25_32
REMARK   15  A    between atoms: C25_32  and  C26_33
REMARK   16  A    between atoms: C26_33  and  C27_34
REMARK   17  A    between atoms: C27_34  and  N5_35
ROOT
HETATM    1  C11 UNL     1       4.025  60.908  70.731  1.00  0.00    -0.056 A
HETATM    2  C12 UNL     1       3.040  60.671  69.788  1.00  0.00     0.007 A
HETATM    3  C13 UNL     1       2.688  61.714  68.961  1.00  0.00     0.001 A
HETATM    4  C14 UNL     1       3.270  62.957  69.036  1.00  0.00     0.007 A
HETATM    5  C15 UNL     1       4.252  63.200  69.972  1.00  0.00    -0.053 A
HETATM    6  C30 UNL     1       4.615  62.167  70.807  1.00  0.00     0.014 A
ENDROOT
BRANCH   5   7
HETATM    7  C16 UNL     1       4.922  64.498  70.102  1.00  0.00     0.077 C
BRANCH   7   8
HETATM    8  C17 UNL     1       4.424  65.536  69.172  1.00  0.00    -0.053 A
HETATM    9  C18 UNL     1       3.480  66.425  69.622  1.00  0.00     0.007 A
HETATM   10  C19 UNL     1       3.001  67.387  68.759  1.00  0.00     0.001 A
HETATM   11  C20 UNL     1       3.450  67.469  67.471  1.00  0.00     0.009 A
HETATM   12  C21 UNL     1       4.393  66.587  67.009  1.00  0.00    -0.032 A
HETATM   13  C29 UNL     1       4.869  65.626  67.874  1.00  0.00     0.016 A
BRANCH  12  14
HETATM   14  C22 UNL     1       4.882  66.661  65.635  1.00  0.00     0.275 C
BRANCH  14  15
HETATM   15  N4  UNL     1       4.035  65.933  64.664  1.00  0.00    -0.071 N
HETATM   16  C23 UNL     1       4.382  64.539  64.667  1.00  0.00     0.272 C
HETATM   17  C24 UNL     1       2.635  66.042  65.111  1.00  0.00     0.272 C
BRANCH  15  18
HETATM   18  C25 UNL     1       4.162  66.600  63.413  1.00  0.00     0.238 C
BRANCH  18  19
HETATM   19  C26 UNL     1       3.839  68.042  63.347  1.00  0.00     0.047 C
BRANCH  19  20
HETATM   20  C27 UNL     1       2.940  68.462  62.222  1.00  0.00     0.123 C
BRANCH  20  21
HETATM   21  N5  UNL     1       1.581  68.502  62.795  1.00  0.00    -0.367 N
HETATM   22  C28 UNL     1       0.551  68.475  61.986  1.00  0.00     0.196 C
HETATM   23  N6  UNL     1       0.745  68.410  60.581  1.00  0.00    -0.067 NA
HETATM   24  N7  UNL     1      -0.724  68.517  62.589  1.00  0.00    -0.067 NA
ATOM     25  H5  UNL     1       1.446  68.550  63.804  1.00  0.00     0.161 HD
ENDBRANCH  20  21
ENDBRANCH  19  20
ENDBRANCH  18  19
ENDBRANCH  15  18
ENDBRANCH  14  15
ENDBRANCH  12  14
ENDBRANCH   7   8
ENDBRANCH   5   7
BRANCH   1  26
HETATM   26  C10 UNL     1       4.476  59.860  71.644  1.00  0.00     0.058 C
BRANCH  26  27
HETATM   27  C9  UNL     1       4.290  60.279  73.070  1.00  0.00     0.125 C
BRANCH  27  28
HETATM   28  N3  UNL     1       2.984  60.036  73.602  1.00  0.00    -0.378 N
ATOM     29  H3  UNL     1       2.594  59.095  73.646  1.00  0.00     0.160 HD
BRANCH  28  30
HETATM   30  C7  UNL     1       2.241  61.180  74.073  1.00  0.00     0.091 C
HETATM   31  N1  UNL     1       2.073  61.284  75.338  1.00  0.00    -0.294 N
ATOM     32  H1  UNL     1       1.546  62.086  75.682  1.00  0.00     0.188 HD
BRANCH  30  33
HETATM   33  C6  UNL     1       1.705  62.160  73.138  1.00  0.00     0.082 C
BRANCH  33  34
HETATM   34  C3  UNL     1       0.715  61.682  72.140  1.00  0.00    -0.008 C
BRANCH  34  35
HETATM   35  C2  UNL     1      -0.266  60.705  72.684  1.00  0.00     0.000 C
HETATM   36  C1  UNL     1      -1.489  61.441  73.244  1.00  0.00     0.005 C
ENDBRANCH  34  35
BRANCH  34  37
HETATM   37  C4  UNL     1      -0.012  62.784  71.396  1.00  0.00     0.000 C
HETATM   38  C5  UNL     1       0.777  64.063  71.381  1.00  0.00     0.005 C
ENDBRANCH  34  37
ENDBRANCH  33  34
ENDBRANCH  30  33
BRANCH  31  39
HETATM   39  N2  UNL     1       2.558  60.385  76.266  1.00  0.00    -0.340 N
HETATM   40  C8  UNL     1       2.184  60.445  77.671  1.00  0.00     0.167 C
ATOM     41  H2  UNL     1       3.199  59.655  75.957  1.00  0.00     0.179 HD
ENDBRANCH  31  39
ENDBRANCH  28  30
ENDBRANCH  27  28
ENDBRANCH  26  27
ENDBRANCH   1  26
TORSDOF 17
ENDMDL