MODEL 2
REMARK VINA RESULT: -5.321780886      0.846      3.572
REMARK  3 active torsions:
REMARK  status: ('A' for Active; 'I' for Inactive)
REMARK    1  A    between atoms: C4_4  and  C5_5
REMARK    2  A    between atoms: C5_5  and  N1_6
REMARK    3  A    between atoms: N3_13  and  N4_15
ROOT
HETATM    1  C1  UNL     1      22.330  25.473  30.381  1.00  0.00     0.027 C
HETATM    2  C2  UNL     1      21.009  25.446  30.178  1.00  0.00     0.002 A
HETATM    3  C3  UNL     1      20.291  25.129  28.971  1.00  0.00     0.041 A
HETATM    4  C4  UNL     1      18.979  25.207  29.155  1.00  0.00     0.037 A
HETATM    5  N2  UNL     1      18.745  25.581  30.495  1.00  0.00    -0.343 N
ATOM      6  H2  UNL     1      17.824  25.717  30.913  1.00  0.00     0.167 HD
HETATM    7  C6  UNL     1      20.000  25.744  31.187  1.00  0.00     0.129 A
HETATM    8  N3  UNL     1      20.177  26.081  32.426  1.00  0.00    -0.291 N
ATOM      9  H3  UNL     1      21.113  26.169  32.818  1.00  0.00     0.188 HD
ENDROOT
BRANCH   4  10
HETATM   10  C5  UNL     1      17.893  24.960  28.168  1.00  0.00     0.286 C
BRANCH  10  11
HETATM   11  N1  UNL     1      16.668  25.612  28.598  1.00  0.00    -0.074 N
ATOM     12  H13 UNL     1      16.519  25.519  29.603  1.00  0.00     0.274 HD
ATOM     13  H12 UNL     1      16.741  26.629  28.551  1.00  0.00     0.274 HD
ATOM     14  H11 UNL     1      15.875  25.262  28.060  1.00  0.00     0.274 HD
ENDBRANCH  10  11
ENDBRANCH   4  10
BRANCH   8  15
HETATM   15  N4  UNL     1      19.042  26.321  33.207  1.00  0.00    -0.344 N
ATOM     16  H42 UNL     1      18.653  27.261  33.269  1.00  0.00     0.176 HD
ATOM     17  H41 UNL     1      18.627  25.531  33.703  1.00  0.00     0.176 HD
ENDBRANCH   8  15
TORSDOF 3
ENDMDL