MODEL 3
REMARK VINA RESULT: -4.662529720      1.837      3.703
REMARK  1 active torsions:
REMARK  status: ('A' for Active; 'I' for Inactive)
REMARK    1  A    between atoms: N1_2  and  C3_4
ROOT
HETATM    1  C3  UNL     1      19.963  24.955  29.869  1.00  0.00     0.527 C
HETATM    2  N2  UNL     1      21.389  25.194  30.035  1.00  0.00    -0.010 N
ATOM      3  H21 UNL     1      21.607  26.191  30.051  1.00  0.00     0.283 HD
ATOM      4  H22 UNL     1      21.917  24.938  29.201  1.00  0.00     0.283 HD
HETATM    5  C4  UNL     1      21.886  24.510  31.225  1.00  0.00     0.363 C
HETATM    6  N3  UNL     1      21.005  24.785  32.360  1.00  0.00    -0.319 N
ATOM      7  H3  UNL     1      21.229  24.386  33.272  1.00  0.00     0.165 HD
HETATM    8  C5  UNL     1      19.839  25.600  32.221  1.00  0.00     0.320 C
HETATM    9  O1  UNL     1      19.322  26.160  33.200  1.00  0.00    -0.247 OA
HETATM   10  N4  UNL     1      19.299  25.740  30.904  1.00  0.00    -0.290 N
ATOM     11  H4  UNL     1      18.504  26.346  30.703  1.00  0.00     0.168 HD
ENDROOT
BRANCH   1  12
HETATM   12  N1  UNL     1      19.551  25.491  28.596  1.00  0.00     0.130 N
HETATM   13  C1  UNL     1      20.589  25.446  27.598  1.00  0.00     0.314 C
HETATM   14  C2  UNL     1      18.302  24.941  28.137  1.00  0.00     0.314 C
ENDBRANCH   1  12
TORSDOF 1
ENDMDL