MODEL 5
REMARK VINA RESULT: -4.596502282      2.304      3.641
REMARK  3 active torsions:
REMARK  status: ('A' for Active; 'I' for Inactive)
REMARK    1  A    between atoms: O1_2  and  C2_3
REMARK    2  A    between atoms: C2_3  and  C3_4
REMARK    3  A    between atoms: C4_7  and  N2_8
ROOT
HETATM    1  C3  UNL     1      20.106  25.728  29.618  1.00  0.00     0.138 A
HETATM    2  N1  UNL     1      19.914  25.582  30.963  1.00  0.00    -0.176 N
ATOM      3  H1  UNL     1      19.153  25.990  31.506  1.00  0.00     0.185 HD
HETATM    4  C4  UNL     1      20.895  24.812  31.445  1.00  0.00     0.692 A
HETATM    5  N3  UNL     1      21.667  24.504  30.386  1.00  0.00    -0.129 N
ATOM      6  H3  UNL     1      22.502  23.922  30.441  1.00  0.00     0.206 HD
HETATM    7  N4  UNL     1      21.222  25.035  29.282  1.00  0.00    -0.268 N
HETATM    8  C5  UNL     1      21.748  24.956  27.921  1.00  0.00     0.180 C
ENDROOT
BRANCH   1   9
HETATM    9  C2  UNL     1      19.232  26.512  28.707  1.00  0.00     0.245 C
BRANCH   9  10
HETATM   10  O1  UNL     1      17.928  26.091  28.690  1.00  0.00    -0.389 OA
HETATM   11  C1  UNL     1      17.812  24.850  28.083  1.00  0.00     0.202 C
ENDBRANCH   9  10
ENDBRANCH   1   9
BRANCH   4  12
HETATM   12  N2  UNL     1      21.109  24.414  32.670  1.00  0.00    -0.233 N
ATOM     13  H22 UNL     1      21.975  23.994  33.007  1.00  0.00     0.174 HD
ATOM     14  H21 UNL     1      20.487  24.447  33.478  1.00  0.00     0.174 HD
ENDBRANCH   4  12
TORSDOF 3
ENDMDL