MODEL 2
REMARK VINA RESULT: -5.617431468      0.890      1.014
REMARK  4 active torsions:
REMARK  status: ('A' for Active; 'I' for Inactive)
REMARK    1  A    between atoms: C5_7  and  N2_8
REMARK    2  A    between atoms: N2_8  and  C6_10
REMARK    3  A    between atoms: C6_10  and  C7_11
REMARK    4  A    between atoms: C7_11  and  N3_12
ROOT
HETATM    1  C1  UNL     1      17.733  25.003  28.152  1.00  0.00     0.089 C
HETATM    2  C2  UNL     1      19.103  25.104  28.712  1.00  0.00     0.078 A
HETATM    3  N1  UNL     1      20.171  24.644  28.015  1.00  0.00    -0.356 N
ATOM      4  H1  UNL     1      20.037  24.223  27.095  1.00  0.00     0.166 HD
HETATM    5  C3  UNL     1      21.414  24.743  28.538  1.00  0.00     0.093 A
HETATM    6  C4  UNL     1      21.562  25.309  29.765  1.00  0.00     0.065 A
HETATM    7  C5  UNL     1      20.468  25.789  30.497  1.00  0.00     0.103 A
HETATM    8  N4  UNL     1      19.258  25.662  29.923  1.00  0.00    -0.333 N
ATOM      9  H4  UNL     1      18.436  26.000  30.422  1.00  0.00     0.168 HD
ENDROOT
BRANCH   7  10
HETATM   10  N2  UNL     1      20.608  26.326  31.661  1.00  0.00    -0.375 N
ATOM     11  H2  UNL     1      21.289  27.068  31.823  1.00  0.00     0.161 HD
BRANCH  10  12
HETATM   12  C6  UNL     1      19.760  25.833  32.735  1.00  0.00     0.148 C
BRANCH  12  13
HETATM   13  C7  UNL     1      19.508  26.899  33.774  1.00  0.00     0.249 C
BRANCH  13  14
HETATM   14  N3  UNL     1      18.069  26.891  34.040  1.00  0.00    -0.078 N
ATOM     15  H33 UNL     1      17.503  26.988  33.197  1.00  0.00     0.274 HD
ATOM     16  H32 UNL     1      17.716  25.977  34.326  1.00  0.00     0.274 HD
ATOM     17  H31 UNL     1      17.897  27.623  34.729  1.00  0.00     0.274 HD
ENDBRANCH  13  14
ENDBRANCH  12  13
ENDBRANCH  10  12
ENDBRANCH   7  10
TORSDOF 4
ENDMDL