MODEL 3
REMARK VINA RESULT: -4.856461023      1.848      2.746
REMARK  1 active torsions:
REMARK  status: ('A' for Active; 'I' for Inactive)
REMARK    1  A    between atoms: C4_5  and  N2_6
REMARK       I    between atoms: N2_6  and  C5_8
REMARK       I    between atoms: C5_8  and  N3_9
REMARK       I    between atoms: C5_8  and  N4_13
ROOT
HETATM    1  N2  UNL     1      20.673  26.357  31.251  1.00  0.00    -0.326 N
ATOM      2  H2  UNL     1      21.202  27.206  31.452  1.00  0.00     0.164 HD
HETATM    3  C5  UNL     1      20.101  25.634  32.343  1.00  0.00     0.481 C
HETATM    4  N3  UNL     1      20.924  24.535  32.794  1.00  0.00    -0.033 N
ATOM      5  H31 UNL     1      20.515  24.019  33.573  1.00  0.00     0.278 HD
ATOM      6  H32 UNL     1      21.863  24.858  33.025  1.00  0.00     0.278 HD
ATOM      7  H33 UNL     1      21.148  23.909  32.021  1.00  0.00     0.278 HD
HETATM    8  N4  UNL     1      19.811  26.467  33.490  1.00  0.00    -0.033 N
ATOM      9  H41 UNL     1      19.402  25.951  34.269  1.00  0.00     0.278 HD
ATOM     10  H42 UNL     1      19.218  27.254  33.226  1.00  0.00     0.278 HD
ATOM     11  H43 UNL     1      20.643  26.975  33.788  1.00  0.00     0.278 HD
ENDROOT
BRANCH   1  12
HETATM   12  C4  UNL     1      20.550  25.983  30.022  1.00  0.00     0.119 A
HETATM   13  C3  UNL     1      19.408  25.441  29.459  1.00  0.00     0.068 A
HETATM   14  C2  UNL     1      19.649  25.160  28.118  1.00  0.00     0.113 A
HETATM   15  N1  UNL     1      20.909  25.534  27.903  1.00  0.00    -0.306 N
HETATM   16  C1  UNL     1      21.607  25.429  26.635  1.00  0.00     0.177 C
HETATM   17  N5  UNL     1      21.445  26.021  29.029  1.00  0.00    -0.284 N
ATOM     18  H5  UNL     1      22.399  26.370  29.116  1.00  0.00     0.188 HD
ENDBRANCH   1  12
TORSDOF 1
ENDMDL