MODEL 3
REMARK VINA RESULT: -4.989218668      1.791      1.940
REMARK  3 active torsions:
REMARK  status: ('A' for Active; 'I' for Inactive)
REMARK    1  A    between atoms: C2_2  and  N1_3
REMARK    2  A    between atoms: C2_2  and  C3_7
REMARK    3  A    between atoms: C5_9  and  N2_10
ROOT
HETATM    1  C3  UNL     1      19.336  26.029  29.671  1.00  0.00     0.116 C
HETATM    2  C4  UNL     1      19.394  24.927  30.697  1.00  0.00     0.070 C
HETATM    3  C5  UNL     1      20.674  25.274  31.455  1.00  0.00     0.276 C
HETATM    4  C6  UNL     1      21.499  25.894  30.378  1.00  0.00     0.248 C
HETATM    5  O1  UNL     1      22.730  26.223  30.436  1.00  0.00    -0.271 OA
HETATM    6  N3  UNL     1      20.710  26.086  29.211  1.00  0.00    -0.353 N
ATOM      7  H3  UNL     1      21.039  26.233  28.257  1.00  0.00     0.163 HD
ENDROOT
BRANCH   1   8
HETATM    8  C2  UNL     1      18.368  25.733  28.555  1.00  0.00     0.202 C
HETATM    9  C1  UNL     1      18.941  24.537  27.792  1.00  0.00     0.042 C
BRANCH   8  10
HETATM   10  N1  UNL     1      17.090  25.398  29.154  1.00  0.00    -0.073 N
ATOM     11  H13 UNL     1      16.365  25.271  28.448  1.00  0.00     0.274 HD
ATOM     12  H12 UNL     1      17.091  24.456  29.545  1.00  0.00     0.274 HD
ATOM     13  H11 UNL     1      16.822  26.095  29.849  1.00  0.00     0.274 HD
ENDBRANCH   8  10
ENDBRANCH   1   8
BRANCH   3  14
HETATM   14  N2  UNL     1      20.329  26.177  32.500  1.00  0.00    -0.066 N
ATOM     15  H23 UNL     1      21.125  26.426  33.088  1.00  0.00     0.275 HD
ATOM     16  H22 UNL     1      20.116  27.115  32.158  1.00  0.00     0.275 HD
ATOM     17  H21 UNL     1      19.560  25.764  33.028  1.00  0.00     0.275 HD
ENDBRANCH   3  14
TORSDOF 3
ENDMDL