MODEL 3
REMARK VINA RESULT: -4.827895279      1.490      4.969
REMARK  2 active torsions:
REMARK  status: ('A' for Active; 'I' for Inactive)
REMARK    1  A    between atoms: N3_4  and  N4_6
REMARK    2  A    between atoms: C2_8  and  C3_9
ROOT
HETATM    1  N4  UNL     1      20.455  25.285  29.058  1.00  0.00    -0.312 N
ATOM      2  H4  UNL     1      19.577  24.784  28.925  1.00  0.00     0.185 HD
HETATM    3  C2  UNL     1      20.986  25.313  30.232  1.00  0.00     0.113 C
ENDROOT
BRANCH   1   4
HETATM    4  N3  UNL     1      21.045  25.919  27.965  1.00  0.00    -0.277 N
HETATM    5  C1  UNL     1      21.717  25.270  27.067  1.00  0.00     0.215 C
HETATM    6  N1  UNL     1      22.315  25.919  25.954  1.00  0.00    -0.065 NA
HETATM    7  N2  UNL     1      21.839  23.864  27.232  1.00  0.00    -0.065 NA
ATOM      8  H3  UNL     1      20.943  26.929  27.868  1.00  0.00     0.189 HD
ENDBRANCH   1   4
BRANCH   3   9
HETATM    9  C3  UNL     1      20.392  24.657  31.409  1.00  0.00     0.227 C
HETATM   10  C4  UNL     1      19.119  25.323  31.936  1.00  0.00     0.066 C
HETATM   11  C5  UNL     1      20.101  26.125  32.764  1.00  0.00     0.235 C
HETATM   12  N5  UNL     1      21.011  24.997  32.678  1.00  0.00    -0.066 N
ATOM     13  H52 UNL     1      21.069  24.313  33.432  1.00  0.00     0.278 HD
ATOM     14  H51 UNL     1      22.020  25.132  32.748  1.00  0.00     0.278 HD
ENDBRANCH   3   9
TORSDOF 2
ENDMDL