MODEL 5
REMARK VINA RESULT: -4.564477093      1.468      1.591
REMARK  2 active torsions:
REMARK  status: ('A' for Active; 'I' for Inactive)
REMARK    1  A    between atoms: N1_2  and  C2_4
REMARK    2  A    between atoms: C3_8  and  C4_9
ROOT
HETATM    1  C2  UNL     1      19.861  25.798  32.283  1.00  0.00     0.313 A
HETATM    2  N2  UNL     1      20.794  24.739  31.874  1.00  0.00    -0.042 N
ATOM      3  H21 UNL     1      20.709  23.770  31.566  1.00  0.00     0.280 HD
ATOM      4  H22 UNL     1      21.485  24.153  32.344  1.00  0.00     0.280 HD
HETATM    5  C3  UNL     1      20.801  26.063  31.214  1.00  0.00     0.268 A
ENDROOT
BRANCH   5   6
HETATM    6  C4  UNL     1      20.487  25.951  29.760  1.00  0.00     0.183 C
HETATM    7  C5  UNL     1      19.082  25.562  29.433  1.00  0.00     0.268 C
HETATM    8  N3  UNL     1      19.233  24.785  28.190  1.00  0.00    -0.052 N
HETATM    9  C6  UNL     1      20.609  25.038  27.847  1.00  0.00     0.400 C
ATOM     10  H32 UNL     1      18.979  23.799  28.262  1.00  0.00     0.279 HD
ATOM     11  H31 UNL     1      18.557  25.003  27.458  1.00  0.00     0.279 HD
HETATM   12  O1  UNL     1      21.207  24.916  29.127  1.00  0.00    -0.355 OA
ENDBRANCH   5   6
BRANCH   1  13
HETATM   13  N1  UNL     1      20.109  26.315  33.597  1.00  0.00    -0.398 N
HETATM   14  C1  UNL     1      19.018  27.017  34.213  1.00  0.00     0.142 C
ATOM     15  H1  UNL     1      21.006  26.192  34.066  1.00  0.00     0.154 HD
ENDBRANCH   1  13
TORSDOF 2
ENDMDL