MODEL 1
REMARK VINA RESULT: -5.461342816      0.000      0.000
REMARK  2 active torsions:
REMARK  status: ('A' for Active; 'I' for Inactive)
REMARK    1  A    between atoms: N1_1  and  C1_5
REMARK    2  A    between atoms: C3_7  and  C4_8
ROOT
HETATM    1  C4  UNL     1      19.600  25.655  29.064  1.00  0.00     0.397 C
HETATM    2  N2  UNL     1      19.861  24.716  27.961  1.00  0.00     0.016 N
ATOM      3  H21 UNL     1      19.170  24.560  27.226  1.00  0.00     0.284 HD
ATOM      4  H22 UNL     1      19.885  23.709  28.119  1.00  0.00     0.284 HD
HETATM    5  C5  UNL     1      21.066  25.460  27.705  1.00  0.00     0.476 A
HETATM    6  C6  UNL     1      22.329  24.912  27.491  1.00  0.00     0.339 A
HETATM    7  N3  UNL     1      21.572  25.641  26.387  1.00  0.00    -0.008 N
ATOM      8  H31 UNL     1      21.743  26.421  25.752  1.00  0.00     0.282 HD
ATOM      9  H32 UNL     1      21.266  25.445  25.434  1.00  0.00     0.282 HD
HETATM   10  N4  UNL     1      20.650  26.539  28.527  1.00  0.00     0.016 N
ATOM     11  H41 UNL     1      21.308  27.009  29.149  1.00  0.00     0.284 HD
ATOM     12  H42 UNL     1      20.415  27.446  28.122  1.00  0.00     0.284 HD
ENDROOT
BRANCH   1  13
HETATM   13  C3  UNL     1      20.049  25.119  30.390  1.00  0.00     0.048 C
HETATM   14  C2  UNL     1      19.077  25.287  31.532  1.00  0.00     0.041 C
HETATM   15  C1  UNL     1      20.277  25.680  32.384  1.00  0.00     0.184 C
HETATM   16  C7  UNL     1      20.928  26.168  31.083  1.00  0.00     0.041 C
BRANCH  15  17
HETATM   17  N1  UNL     1      20.970  24.528  32.861  1.00  0.00    -0.075 N
ATOM     18  H13 UNL     1      21.039  24.529  33.879  1.00  0.00     0.274 HD
ATOM     19  H12 UNL     1      20.415  23.681  32.743  1.00  0.00     0.274 HD
ATOM     20  H11 UNL     1      21.886  24.441  32.422  1.00  0.00     0.274 HD
ENDBRANCH  15  17
ENDBRANCH   1  13
TORSDOF 2
ENDMDL