MODEL 2
REMARK VINA RESULT: -4.641595815      1.432      1.519
REMARK  3 active torsions:
REMARK  status: ('A' for Active; 'I' for Inactive)
REMARK    1  A    between atoms: N3_10  and  C5_11
REMARK    2  A    between atoms: C5_11  and  C6_12
REMARK    3  A    between atoms: C6_12  and  N4_13
ROOT
HETATM    1  N1  UNL     1      19.539  26.967  28.695  1.00  0.00    -0.388 N
ATOM      2  H11 UNL     1      19.051  27.336  29.512  1.00  0.00     0.157 HD
ATOM      3  H12 UNL     1      19.204  27.295  27.790  1.00  0.00     0.157 HD
HETATM    4  C1  UNL     1      20.516  26.140  28.710  1.00  0.00     0.090 C
HETATM    5  C2  UNL     1      21.225  25.602  27.521  1.00  0.00     0.190 C
HETATM    6  N2  UNL     1      21.180  24.183  27.580  1.00  0.00    -0.413 N
ATOM      7  H2  UNL     1      21.014  23.625  26.741  1.00  0.00     0.153 HD
HETATM    8  C3  UNL     1      21.375  23.570  28.838  1.00  0.00     0.134 C
HETATM    9  C4  UNL     1      21.744  24.444  29.984  1.00  0.00     0.143 C
HETATM   10  N3  UNL     1      20.986  25.678  29.983  1.00  0.00    -0.367 N
ENDROOT
BRANCH  10  11
HETATM   11  C5  UNL     1      20.689  26.451  31.150  1.00  0.00     0.151 C
BRANCH  11  12
HETATM   12  C6  UNL     1      20.018  25.602  32.233  1.00  0.00     0.249 C
BRANCH  12  13
HETATM   13  N4  UNL     1      18.624  25.419  31.835  1.00  0.00    -0.078 N
ATOM     14  H43 UNL     1      18.203  24.577  32.229  1.00  0.00     0.274 HD
ATOM     15  H42 UNL     1      17.992  26.095  32.265  1.00  0.00     0.274 HD
ATOM     16  H41 UNL     1      18.596  25.439  30.816  1.00  0.00     0.274 HD
ENDBRANCH  12  13
ENDBRANCH  11  12
ENDBRANCH  10  11
TORSDOF 3
ENDMDL