MODEL 1
REMARK VINA RESULT: -7.796596417      0.000      0.000
REMARK  5 active torsions:
REMARK  status: ('A' for Active; 'I' for Inactive)
REMARK    1  A    between atoms: C1_2  and  C2_3
REMARK       I    between atoms: C1_2  and  N1_10
REMARK    2  A    between atoms: C2_3  and  C3_4
REMARK    3  A    between atoms: N1_10  and  C9_12
REMARK    4  A    between atoms: C9_12  and  C10_13
REMARK    5  A    between atoms: C10_13  and  C11_14
ROOT
HETATM    1  O1  UNL     1       4.155   8.327  23.549  1.00  0.00    -0.274 OA
HETATM    2  C1  UNL     1       4.507   7.492  22.692  1.00  0.00     0.217 C
HETATM    3  N1  UNL     1       5.273   6.368  23.124  1.00  0.00    -0.361 N
ATOM      4  H1  UNL     1       5.571   5.672  22.440  1.00  0.00     0.162 HD
ENDROOT
BRANCH   3   5
HETATM    5  C9  UNL     1       5.632   6.200  24.513  1.00  0.00     0.129 C
BRANCH   5   6
HETATM    6  C10 UNL     1       7.078   5.804  24.653  1.00  0.00     0.084 C
BRANCH   6   7
HETATM    7  C11 UNL     1       7.122   4.469  25.335  1.00  0.00     0.052 A
HETATM    8  N2  UNL     1       6.974   3.299  24.730  1.00  0.00    -0.363 N
HETATM    9  C12 UNL     1       7.025   2.209  25.420  1.00  0.00     0.095 A
ATOM     10  H2  UNL     1       6.820   3.261  23.722  1.00  0.00     0.165 HD
HETATM   11  C13 UNL     1       7.234   2.311  26.770  1.00  0.00     0.068 A
HETATM   12  S1  UNL     1       7.346   4.014  26.963  1.00  0.00    -0.087 SA
ENDBRANCH   6   7
ENDBRANCH   5   6
ENDBRANCH   3   5
BRANCH   2  13
HETATM   13  C2  UNL     1       4.162   7.632  21.286  1.00  0.00     0.107 C
BRANCH  13  14
HETATM   14  C3  UNL     1       2.802   8.260  21.128  1.00  0.00    -0.006 C
HETATM   15  C4  UNL     1       2.042   7.327  20.168  1.00  0.00     0.005 C
HETATM   16  C5  UNL     1       0.701   7.899  19.814  1.00  0.00     0.000 C
HETATM   17  C6  UNL     1       0.379   9.206  20.457  1.00  0.00     0.000 C
HETATM   18  C7  UNL     1       1.499  10.200  20.446  1.00  0.00     0.000 C
HETATM   19  C8  UNL     1       2.859   9.572  20.353  1.00  0.00     0.005 C
ENDBRANCH  13  14
ENDBRANCH   2  13
TORSDOF 5
ENDMDL