MODEL 1
REMARK VINA RESULT: -6.539525122      0.000      0.000
REMARK  6 active torsions:
REMARK  status: ('A' for Active; 'I' for Inactive)
REMARK    1  A    between atoms: C2_2  and  C3_3
REMARK    2  A    between atoms: C3_3  and  C4_4
REMARK    3  A    between atoms: C4_4  and  C5_5
REMARK    4  A    between atoms: C5_5  and  C6_6
REMARK    5  A    between atoms: C6_6  and  N1_7
REMARK    6  A    between atoms: C14_16  and  N2_17
ROOT
HETATM    1  C3  UNL     1       7.415   3.607  29.556  1.00  0.00     0.036 C
HETATM    2  S1  UNL     1       6.407   5.122  29.851  1.00  0.00    -0.157 SA
HETATM    3  C12 UNL     1       7.753   6.186  30.505  1.00  0.00     0.077 C
HETATM    4  C13 UNL     1       8.956   5.338  30.226  1.00  0.00     0.044 C
HETATM    5  C14 UNL     1       8.573   3.906  30.477  1.00  0.00     0.202 C
ENDROOT
BRANCH   1   6
HETATM    6  C2  UNL     1       6.670   2.381  29.934  1.00  0.00     0.018 C
HETATM    7  C1  UNL     1       6.917   1.222  28.984  1.00  0.00     0.006 C
ENDBRANCH   1   6
BRANCH   1   8
HETATM    8  C4  UNL     1       7.770   3.628  28.119  1.00  0.00     0.024 C
BRANCH   8   9
HETATM    9  C5  UNL     1       6.811   4.486  27.365  1.00  0.00     0.021 C
BRANCH   9  10
HETATM   10  C6  UNL     1       7.381   4.893  25.994  1.00  0.00     0.117 C
BRANCH  10  11
HETATM   11  N1  UNL     1       6.519   5.914  25.500  1.00  0.00    -0.412 N
HETATM   12  C7  UNL     1       5.252   6.005  26.155  1.00  0.00     0.117 C
HETATM   13  C8  UNL     1       4.848   7.484  26.094  1.00  0.00     0.019 C
HETATM   14  C9  UNL     1       4.895   7.955  24.661  1.00  0.00     0.003 C
HETATM   15  C10 UNL     1       5.274   6.894  23.684  1.00  0.00     0.019 C
HETATM   16  C11 UNL     1       6.478   6.077  24.086  1.00  0.00     0.117 C
ENDBRANCH  10  11
ENDBRANCH   9  10
ENDBRANCH   8   9
ENDBRANCH   1   8
BRANCH   5  17
HETATM   17  N2  UNL     1       9.675   3.032  30.295  1.00  0.00    -0.073 N
ATOM     18  H23 UNL     1       9.394   2.062  30.439  1.00  0.00     0.274 HD
ATOM     19  H22 UNL     1       9.942   2.987  29.312  1.00  0.00     0.274 HD
ATOM     20  H21 UNL     1      10.478   3.268  30.879  1.00  0.00     0.274 HD
ENDBRANCH   5  17
TORSDOF 6
ENDMDL