MODEL 4
REMARK VINA RESULT: -7.418002015      5.008      8.949
REMARK  6 active torsions:
REMARK  status: ('A' for Active; 'I' for Inactive)
REMARK       I    between atoms: C1_2  and  N1_3
REMARK    1  A    between atoms: C1_2  and  O3_11
REMARK    2  A    between atoms: N1_3  and  C2_5
REMARK    3  A    between atoms: O3_11  and  C7_12
REMARK    4  A    between atoms: C7_12  and  C8_13
REMARK    5  A    between atoms: C8_13  and  C9_14
REMARK    6  A    between atoms: C9_14  and  C10_15
ROOT
HETATM    1  O1  UNL     1       5.399   6.118  25.522  1.00  0.00    -0.239 OA
HETATM    2  C1  UNL     1       6.041   5.854  24.476  1.00  0.00     0.360 C
HETATM    3  N1  UNL     1       6.813   4.634  24.452  1.00  0.00    -0.332 N
ATOM      4  H1  UNL     1       7.342   4.399  23.612  1.00  0.00     0.165 HD
ENDROOT
BRANCH   2   5
HETATM    5  O3  UNL     1       5.985   6.711  23.418  1.00  0.00    -0.304 OA
BRANCH   5   6
HETATM    6  C7  UNL     1       5.247   7.904  23.381  1.00  0.00     0.180 C
BRANCH   6   7
HETATM    7  C8  UNL     1       3.977   7.779  22.605  1.00  0.00     0.027 C
BRANCH   7   8
HETATM    8  C9  UNL     1       4.192   7.825  21.109  1.00  0.00     0.007 C
BRANCH   8   9
HETATM    9  C10 UNL     1       2.952   8.356  20.475  1.00  0.00    -0.014 C
HETATM   10  C11 UNL     1       1.889   7.334  20.233  1.00  0.00     0.004 C
HETATM   11  C12 UNL     1       0.697   8.217  19.848  1.00  0.00     0.000 C
HETATM   12  C13 UNL     1       0.948   9.565  20.484  1.00  0.00     0.000 C
HETATM   13  C14 UNL     1       2.238   9.394  21.300  1.00  0.00     0.004 C
ENDBRANCH   8   9
ENDBRANCH   7   8
ENDBRANCH   6   7
ENDBRANCH   5   6
ENDBRANCH   2   5
BRANCH   3  14
HETATM   14  C2  UNL     1       6.859   3.749  25.568  1.00  0.00     0.090 C
HETATM   15  C3  UNL     1       7.070   2.320  25.091  1.00  0.00     0.051 C
HETATM   16  C4  UNL     1       6.795   1.420  26.281  1.00  0.00     0.169 C
HETATM   17  O2  UNL     1       6.872   2.138  27.460  1.00  0.00    -0.391 OA
HETATM   18  C5  UNL     1       8.023   2.919  27.535  1.00  0.00     0.169 C
HETATM   19  C6  UNL     1       8.005   4.047  26.514  1.00  0.00     0.051 C
ENDBRANCH   3  14
TORSDOF 6
ENDMDL