MODEL 4
REMARK VINA RESULT: -6.436228313      4.976      9.555
REMARK  6 active torsions:
REMARK  status: ('A' for Active; 'I' for Inactive)
REMARK    1  A    between atoms: C1_2  and  C2_3
REMARK    2  A    between atoms: C1_2  and  N2_10
REMARK    3  A    between atoms: C2_3  and  C3_4
REMARK    4  A    between atoms: C3_4  and  C4_5
REMARK    5  A    between atoms: C4_5  and  N1_6
REMARK    6  A    between atoms: N2_10  and  C7_12
ROOT
HETATM    1  S1  UNL     1       6.868   2.082  25.402  1.00  0.00    -0.066 SA
HETATM    2  C1  UNL     1       7.811   2.830  26.507  1.00  0.00     0.073 C
ENDROOT
BRANCH   2   3
HETATM    3  C2  UNL     1       7.992   4.304  26.279  1.00  0.00     0.071 C
BRANCH   3   4
HETATM    4  C3  UNL     1       6.665   4.937  25.961  1.00  0.00     0.027 C
BRANCH   4   5
HETATM    5  C4  UNL     1       6.718   5.795  24.723  1.00  0.00     0.137 C
BRANCH   5   6
HETATM    6  N1  UNL     1       5.666   6.797  24.695  1.00  0.00    -0.328 N
HETATM    7  C5  UNL     1       5.041   7.497  25.623  1.00  0.00     0.107 A
HETATM    8  C6  UNL     1       4.230   8.178  24.768  1.00  0.00     0.086 A
HETATM    9  S2  UNL     1       4.851   7.434  23.411  1.00  0.00    -0.023 SA
ENDBRANCH   5   6
ENDBRANCH   4   5
ENDBRANCH   3   4
ENDBRANCH   2   3
BRANCH   2  10
HETATM   10  N2  UNL     1       8.432   2.194  27.595  1.00  0.00    -0.380 N
ATOM     11  H2  UNL     1       9.405   1.920  27.456  1.00  0.00     0.160 HD
BRANCH  10  12
HETATM   12  C7  UNL     1       7.876   1.886  28.858  1.00  0.00     0.082 C
HETATM   13  C8  UNL     1       7.146   3.042  29.469  1.00  0.00     0.025 C
HETATM   14  C9  UNL     1       6.716   2.807  30.885  1.00  0.00     0.002 C
HETATM   15  C10 UNL     1       6.178   1.438  31.157  1.00  0.00     0.000 C
HETATM   16  C11 UNL     1       6.738   0.354  30.320  1.00  0.00     0.002 C
HETATM   17  C12 UNL     1       6.924   0.713  28.858  1.00  0.00     0.025 C
ENDBRANCH  10  12
ENDBRANCH   2  10
TORSDOF 6
ENDMDL