MODEL 5
REMARK VINA RESULT: -6.827728791      2.587      3.615
REMARK  6 active torsions:
REMARK  status: ('A' for Active; 'I' for Inactive)
REMARK    1  A    between atoms: C2_2  and  S1_3
REMARK    2  A    between atoms: S1_3  and  C3_4
REMARK    3  A    between atoms: C3_4  and  N1_5
REMARK    4  A    between atoms: C3_4  and  C12_15
REMARK       I    between atoms: N1_5  and  C4_6
REMARK    5  A    between atoms: C4_6  and  C5_8
REMARK    6  A    between atoms: C5_8  and  C6_9
ROOT
HETATM    1  N1  UNL     1       5.115   7.419  23.920  1.00  0.00    -0.356 NA
HETATM    2  C4  UNL     1       4.647   8.100  22.899  1.00  0.00     0.296 C
HETATM    3  O1  UNL     1       4.515   7.538  21.749  1.00  0.00    -0.257 OA
ENDROOT
BRANCH   2   4
HETATM    4  C5  UNL     1       4.253   9.521  22.981  1.00  0.00     0.146 C
BRANCH   4   5
HETATM    5  C6  UNL     1       2.973   9.909  23.553  1.00  0.00    -0.014 C
HETATM    6  C7  UNL     1       1.940  10.631  22.845  1.00  0.00    -0.083 C
HETATM    7  C8  UNL     1       1.415  10.002  21.578  1.00  0.00     0.034 C
HETATM    8  C11 UNL     1       2.055  12.089  22.604  1.00  0.00     0.034 C
HETATM    9  C9  UNL     1       2.095  10.865  20.509  1.00  0.00     0.005 C
HETATM   10  C10 UNL     1       2.351  12.205  21.116  1.00  0.00     0.005 C
ENDBRANCH   4   5
ENDBRANCH   2   4
BRANCH   1  11
HETATM   11  C3  UNL     1       5.632   6.790  24.806  1.00  0.00     0.223 C
BRANCH  11  12
HETATM   12  S1  UNL     1       5.015   6.974  26.470  1.00  0.00    -0.091 SA
BRANCH  12  13
HETATM   13  C2  UNL     1       4.206   8.534  26.796  1.00  0.00     0.077 C
HETATM   14  C1  UNL     1       3.790   8.648  28.251  1.00  0.00     0.016 C
ENDBRANCH  12  13
ENDBRANCH  11  12
BRANCH  11  15
HETATM   15  C12 UNL     1       6.766   5.911  24.512  1.00  0.00     0.248 C
HETATM   16  O2  UNL     1       7.701   6.423  23.787  1.00  0.00    -0.642 OA
HETATM   17  O3  UNL     1       6.845   4.631  24.962  1.00  0.00    -0.642 OA
ENDBRANCH  11  15
ENDBRANCH   1  11
TORSDOF 6
ENDMDL