MODEL 2
REMARK VINA RESULT: -7.400995370      1.309      1.713
REMARK  5 active torsions:
REMARK  status: ('A' for Active; 'I' for Inactive)
REMARK    1  A    between atoms: C2_2  and  C3_3
REMARK    2  A    between atoms: C3_3  and  C4_4
REMARK    3  A    between atoms: C4_4  and  S1_5
REMARK    4  A    between atoms: S1_5  and  C5_6
REMARK    5  A    between atoms: C6_9  and  C7_10
ROOT
HETATM    1  C5  UNL     1       1.822  10.762  20.494  1.00  0.00     0.142 A
HETATM    2  N1  UNL     1       2.846  10.152  20.893  1.00  0.00    -0.365 N
ATOM      3  H1  UNL     1       3.608  10.740  21.228  1.00  0.00     0.162 HD
HETATM    4  C6  UNL     1       3.084   8.744  20.938  1.00  0.00     0.096 A
HETATM    5  C12 UNL     1       1.986   7.897  20.392  1.00  0.00     0.128 A
HETATM    6  C13 UNL     1       0.781   8.636  19.988  1.00  0.00     0.225 A
HETATM    7  O1  UNL     1      -0.213   7.976  19.610  1.00  0.00    -0.273 OA
HETATM    8  N2  UNL     1       0.713  10.042  20.011  1.00  0.00    -0.308 N
ATOM      9  H2  UNL     1      -0.122  10.529  19.686  1.00  0.00     0.171 HD
ENDROOT
BRANCH   1  10
HETATM   10  S1  UNL     1       1.787  12.553  20.546  1.00  0.00    -0.094 SA
BRANCH  10  11
HETATM   11  C4  UNL     1       2.561  13.154  22.095  1.00  0.00     0.082 C
BRANCH  11  12
HETATM   12  C3  UNL     1       1.763  12.588  23.248  1.00  0.00     0.010 C
BRANCH  12  13
HETATM   13  C2  UNL     1       2.660  12.692  24.485  1.00  0.00    -0.004 C
HETATM   14  C1  UNL     1       2.090  11.838  25.595  1.00  0.00     0.005 C
ENDBRANCH  12  13
ENDBRANCH  11  12
ENDBRANCH  10  11
ENDBRANCH   1  10
BRANCH   4  15
HETATM   15  C7  UNL     1       3.530   8.379  22.317  1.00  0.00     0.009 C
HETATM   16  C8  UNL     1       4.562   7.309  22.377  1.00  0.00     0.007 C
HETATM   17  C9  UNL     1       5.089   7.411  23.802  1.00  0.00     0.000 C
HETATM   18  C10 UNL     1       4.570   8.704  24.362  1.00  0.00     0.000 C
HETATM   19  C11 UNL     1       4.131   9.488  23.111  1.00  0.00     0.007 C
ENDBRANCH   4  15
TORSDOF 5
ENDMDL