MODEL 5
REMARK VINA RESULT: -7.477472547      1.617      1.900
REMARK  5 active torsions:
REMARK  status: ('A' for Active; 'I' for Inactive)
REMARK    1  A    between atoms: C2_2  and  C3_3
REMARK    2  A    between atoms: C3_3  and  S1_6
REMARK    3  A    between atoms: S1_6  and  C5_7
REMARK    4  A    between atoms: C5_7  and  C6_8
REMARK       I    between atoms: C6_8  and  N2_10
REMARK    5  A    between atoms: N2_10  and  C7_12
ROOT
HETATM    1  C3  UNL     1       4.489   9.576  24.925  1.00  0.00     0.154 C
HETATM    2  C4  UNL     1       4.352   8.585  26.069  1.00  0.00     0.074 C
HETATM    3  N1  UNL     1       4.251   7.801  26.905  1.00  0.00    -0.196 NA
ENDROOT
BRANCH   1   4
HETATM    4  C2  UNL     1       3.099  10.134  24.777  1.00  0.00     0.025 C
HETATM    5  C1  UNL     1       2.765  10.295  23.300  1.00  0.00     0.007 C
ENDBRANCH   1   4
BRANCH   1   6
HETATM    6  S1  UNL     1       4.971   8.640  23.471  1.00  0.00    -0.140 SA
BRANCH   6   7
HETATM    7  C5  UNL     1       4.963   6.884  23.686  1.00  0.00     0.177 C
BRANCH   7   8
HETATM    8  C6  UNL     1       6.144   6.269  24.286  1.00  0.00     0.227 C
HETATM    9  O1  UNL     1       7.285   6.479  23.865  1.00  0.00    -0.273 OA
HETATM   10  N2  UNL     1       5.919   5.414  25.413  1.00  0.00    -0.352 N
ATOM     11  H2  UNL     1       4.957   5.254  25.713  1.00  0.00     0.163 HD
BRANCH  10  12
HETATM   12  C7  UNL     1       6.980   4.763  26.151  1.00  0.00     0.117 C
HETATM   13  C8  UNL     1       6.831   3.290  25.951  1.00  0.00    -0.005 C
HETATM   14  C9  UNL     1       7.574   2.260  26.611  1.00  0.00    -0.028 C
HETATM   15  C10 UNL     1       7.148   1.623  27.946  1.00  0.00     0.038 C
HETATM   16  C11 UNL     1       7.018   2.720  29.052  1.00  0.00     0.083 C
HETATM   17  C12 UNL     1       6.877   3.940  28.374  1.00  0.00    -0.180 C
HETATM   18  C13 UNL     1       6.738   5.126  27.679  1.00  0.00     0.109 C
ENDBRANCH  10  12
ENDBRANCH   7   8
ENDBRANCH   6   7
ENDBRANCH   1   6
TORSDOF 5
ENDMDL