MODEL 2
REMARK VINA RESULT: -7.657844649      1.013      1.093
REMARK  6 active torsions:
REMARK  status: ('A' for Active; 'I' for Inactive)
REMARK    1  A    between atoms: C1_2  and  C2_4
REMARK    2  A    between atoms: C2_4  and  C3_5
REMARK    3  A    between atoms: C3_5  and  C4_6
REMARK    4  A    between atoms: C4_6  and  O3_7
REMARK    5  A    between atoms: O3_7  and  C5_8
REMARK    6  A    between atoms: C5_8  and  C6_10
ROOT
HETATM    1  C4  UNL     1       2.510  10.403  23.549  1.00  0.00     0.188 C
ENDROOT
BRANCH   1   2
HETATM    2  C3  UNL     1       2.344  10.451  22.033  1.00  0.00    -0.009 C
HETATM    3  C12 UNL     1       3.029   9.329  21.327  1.00  0.00     0.012 C
HETATM    4  C13 UNL     1       1.760   9.007  20.608  1.00  0.00     0.002 C
HETATM    5  C14 UNL     1       1.023   9.946  21.560  1.00  0.00     0.012 C
BRANCH   2   6
HETATM    6  C2  UNL     1       2.662  11.846  21.552  1.00  0.00     0.124 C
BRANCH   6   7
HETATM    7  C1  UNL     1       1.496  12.727  21.477  1.00  0.00     0.173 C
HETATM    8  O1  UNL     1       1.023  13.025  20.357  1.00  0.00    -0.648 OA
HETATM    9  O2  UNL     1       0.895  13.245  22.616  1.00  0.00    -0.648 OA
ENDBRANCH   6   7
ENDBRANCH   2   6
ENDBRANCH   1   2
BRANCH   1  10
HETATM   10  O3  UNL     1       3.901  10.167  23.787  1.00  0.00    -0.320 OA
BRANCH  10  11
HETATM   11  C5  UNL     1       4.345   9.517  24.912  1.00  0.00     0.263 C
HETATM   12  O4  UNL     1       4.801  10.186  25.860  1.00  0.00    -0.265 OA
BRANCH  11  13
HETATM   13  C6  UNL     1       4.272   8.023  24.984  1.00  0.00     0.085 C
HETATM   14  C7  UNL     1       4.804   7.365  23.765  1.00  0.00     0.014 C
HETATM   15  C8  UNL     1       6.068   6.618  23.921  1.00  0.00     0.001 C
HETATM   16  C9  UNL     1       6.188   5.798  25.166  1.00  0.00     0.000 C
HETATM   17  C10 UNL     1       5.181   6.142  26.222  1.00  0.00     0.001 C
HETATM   18  C11 UNL     1       4.966   7.616  26.261  1.00  0.00     0.014 C
ENDBRANCH  11  13
ENDBRANCH  10  11
ENDBRANCH   1  10
TORSDOF 6
ENDMDL