MODEL 5
REMARK VINA RESULT: -6.337552106      3.587      6.870
REMARK  8 active torsions:
REMARK  status: ('A' for Active; 'I' for Inactive)
REMARK    1  A    between atoms: C2_2  and  C4_4
REMARK    2  A    between atoms: C4_4  and  C5_5
REMARK    3  A    between atoms: C4_4  and  N2_12
REMARK    4  A    between atoms: C5_5  and  C6_6
REMARK    5  A    between atoms: C6_6  and  C7_7
REMARK    6  A    between atoms: C7_7  and  N1_8
REMARK    7  A    between atoms: N1_8  and  C8_10
REMARK    8  A    between atoms: N2_12  and  N3_14
ROOT
HETATM    1  C4  UNL     1       3.529   9.727  25.159  1.00  0.00     0.022 C
ENDROOT
BRANCH   1   2
HETATM    2  C2  UNL     1       3.100  10.298  26.269  1.00  0.00    -0.064 C
HETATM    3  C1  UNL     1       3.403   9.642  27.563  1.00  0.00     0.045 C
HETATM    4  C3  UNL     1       2.328  11.563  26.295  1.00  0.00     0.045 C
ENDBRANCH   1   2
BRANCH   1   5
HETATM    5  C5  UNL     1       3.994   8.340  25.101  1.00  0.00     0.060 C
BRANCH   5   6
HETATM    6  C6  UNL     1       5.244   8.108  24.314  1.00  0.00     0.025 C
BRANCH   6   7
HETATM    7  C7  UNL     1       5.078   6.967  23.340  1.00  0.00     0.120 C
BRANCH   7   8
HETATM    8  N1  UNL     1       6.088   5.955  23.556  1.00  0.00    -0.390 N
ATOM      9  H1  UNL     1       6.471   5.457  22.752  1.00  0.00     0.159 HD
BRANCH   8  10
HETATM   10  C8  UNL     1       6.511   5.668  24.720  1.00  0.00     0.165 C
HETATM   11  S1  UNL     1       6.616   5.073  26.212  1.00  0.00    -0.075 SA
ENDBRANCH   8  10
ENDBRANCH   7   8
ENDBRANCH   6   7
ENDBRANCH   5   6
ENDBRANCH   1   5
BRANCH   1  12
HETATM   12  N2  UNL     1       3.503  10.516  23.990  1.00  0.00    -0.323 N
ATOM     13  H2  UNL     1       4.275  11.156  23.804  1.00  0.00     0.180 HD
BRANCH  12  14
HETATM   14  N3  UNL     1       2.466  10.442  23.100  1.00  0.00    -0.231 NA
HETATM   15  C9  UNL     1       2.886   9.639  21.957  1.00  0.00     0.113 C
HETATM   16  C10 UNL     1       1.662   9.586  21.031  1.00  0.00     0.016 C
HETATM   17  C11 UNL     1       1.616  10.934  20.346  1.00  0.00     0.002 C
HETATM   18  C12 UNL     1       2.126  12.037  21.244  1.00  0.00     0.016 C
HETATM   19  C13 UNL     1       1.946  11.731  22.700  1.00  0.00     0.113 C
ENDBRANCH  12  14
ENDBRANCH   1  12
TORSDOF 8
ENDMDL