MODEL 1
REMARK VINA RESULT: -4.523794180      0.000      0.000
REMARK  1 active torsions:
REMARK  status: ('A' for Active; 'I' for Inactive)
REMARK    1  A    between atoms: C2_2  and  C3_3
ROOT
HETATM    1  C3  UNL     1      50.455  36.192  39.063  1.00  0.00    -0.009 C
HETATM    2  C4  UNL     1      50.481  35.949  40.521  1.00  0.00     0.049 C
HETATM    3  C5  UNL     1      49.499  34.979  41.058  1.00  0.00     0.056 C
HETATM    4  N1  UNL     1      49.077  33.935  40.211  1.00  0.00    -0.402 N
ATOM      5  H1  UNL     1      48.512  33.160  40.558  1.00  0.00     0.158 HD
HETATM    6  C6  UNL     1      49.479  34.017  38.844  1.00  0.00     0.119 C
HETATM    7  C7  UNL     1      49.267  35.478  38.430  1.00  0.00     0.024 C
ENDROOT
BRANCH   1   8
HETATM    8  C2  UNL     1      50.462  37.661  38.699  1.00  0.00     0.000 C
HETATM    9  C1  UNL     1      50.513  38.427  40.019  1.00  0.00     0.005 C
ENDBRANCH   1   8
TORSDOF 1
ENDMDL