MODEL 4
REMARK VINA RESULT: -4.727196411      1.815      2.157
REMARK  2 active torsions:
REMARK  status: ('A' for Active; 'I' for Inactive)
REMARK    1  A    between atoms: N2_4  and  N3_6
REMARK    2  A    between atoms: N3_6  and  C1_8
ROOT
HETATM    1  N3  UNL     1      51.017  37.674  39.547  1.00  0.00    -0.317 N
ATOM      2  H3  UNL     1      51.662  37.605  40.335  1.00  0.00     0.182 HD
ENDROOT
BRANCH   1   3
HETATM    3  N2  UNL     1      51.216  38.643  38.569  1.00  0.00    -0.253 N
HETATM    4  N1  UNL     1      50.443  39.648  38.508  1.00  0.00    -0.331 N
ATOM      5  H12 UNL     1      49.683  39.731  39.182  1.00  0.00     0.178 HD
ATOM      6  H11 UNL     1      50.588  40.358  37.790  1.00  0.00     0.178 HD
ATOM      7  H2  UNL     1      51.982  38.546  37.901  1.00  0.00     0.207 HD
ENDBRANCH   1   3
BRANCH   1   8
HETATM    8  C1  UNL     1      49.917  36.784  39.449  1.00  0.00     0.105 C
HETATM    9  C2  UNL     1      50.219  35.428  40.123  1.00  0.00     0.031 C
HETATM   10  C3  UNL     1      49.862  34.522  38.993  1.00  0.00    -0.012 C
HETATM   11  C4  UNL     1      50.637  35.183  37.847  1.00  0.00     0.011 C
HETATM   12  C6  UNL     1      48.631  35.172  38.355  1.00  0.00     0.011 C
HETATM   13  C5  UNL     1      49.612  36.303  38.071  1.00  0.00     0.010 C
ENDBRANCH   1   8
TORSDOF 2
ENDMDL