MODEL 4
REMARK VINA RESULT: -3.263381185      3.674      5.141
REMARK  1 active torsions:
REMARK  status: ('A' for Active; 'I' for Inactive)
REMARK    1  A    between atoms: C3_3  and  N1_4
ROOT
HETATM    1  C1  UNL     1      43.819  34.999  36.461  1.00  0.00     0.013 C
HETATM    2  C2  UNL     1      44.412  33.956  36.424  1.00  0.00    -0.089 C
HETATM    3  C3  UNL     1      45.110  32.698  36.378  1.00  0.00     0.331 C
ENDROOT
BRANCH   3   4
HETATM    4  N1  UNL     1      45.762  32.359  37.602  1.00  0.00    -0.036 N
HETATM    5  C4  UNL     1      44.737  32.144  38.620  1.00  0.00     0.275 C
HETATM    6  C5  UNL     1      46.554  31.156  37.388  1.00  0.00     0.267 C
HETATM    7  C6  UNL     1      47.794  31.301  38.227  1.00  0.00     0.262 C
HETATM    8  N2  UNL     1      47.574  32.521  38.955  1.00  0.00    -0.049 N
HETATM    9  C7  UNL     1      46.694  33.318  38.085  1.00  0.00     0.468 C
ATOM     10  H22 UNL     1      47.212  32.383  39.899  1.00  0.00     0.279 HD
ATOM     11  H21 UNL     1      48.431  33.000  39.231  1.00  0.00     0.279 HD
ENDBRANCH   3   4
TORSDOF 1
ENDMDL