MODEL 5
REMARK VINA RESULT: -4.318745794      1.681      4.054
REMARK  1 active torsions:
REMARK  status: ('A' for Active; 'I' for Inactive)
REMARK    1  A    between atoms: C3_3  and  C4_4
ROOT
HETATM    1  C1  UNL     1      50.606  38.468  40.096  1.00  0.00     0.012 C
HETATM    2  C2  UNL     1      50.329  37.749  39.158  1.00  0.00    -0.115 C
HETATM    3  C3  UNL     1      50.013  36.886  38.007  1.00  0.00     0.118 C
ENDROOT
BRANCH   3   4
HETATM    4  C4  UNL     1      49.915  35.442  38.481  1.00  0.00     0.095 C
HETATM    5  C5  UNL     1      48.556  34.921  38.099  1.00  0.00     0.045 C
HETATM    6  C6  UNL     1      48.397  33.563  38.738  1.00  0.00     0.122 C
HETATM    7  N1  UNL     1      48.614  33.601  40.144  1.00  0.00    -0.386 N
HETATM    8  C7  UNL     1      49.797  34.247  40.577  1.00  0.00     0.171 C
ATOM      9  H1  UNL     1      47.954  33.186  40.802  1.00  0.00     0.160 HD
HETATM   10  N2  UNL     1      50.173  35.420  39.878  1.00  0.00    -0.381 N
ATOM     11  H2  UNL     1      50.607  36.210  40.354  1.00  0.00     0.160 HD
ENDBRANCH   3   4
TORSDOF 1
ENDMDL