MODEL 2
REMARK VINA RESULT: -3.307095287      5.009      6.186
REMARK  2 active torsions:
REMARK  status: ('A' for Active; 'I' for Inactive)
REMARK    1  A    between atoms: O1_1  and  C1_3
REMARK    2  A    between atoms: C1_3  and  N1_4
ROOT
HETATM    1  N1  UNL     1      45.838  31.888  37.718  1.00  0.00    -0.034 N
HETATM    2  C2  UNL     1      45.324  30.918  36.763  1.00  0.00     0.245 C
HETATM    3  C3  UNL     1      43.847  31.294  36.811  1.00  0.00     0.016 C
HETATM    4  C4  UNL     1      43.979  32.786  36.570  1.00  0.00     0.042 C
HETATM    5  C5  UNL     1      45.059  33.068  37.632  1.00  0.00     0.225 A
HETATM    6  C6  UNL     1      44.825  32.131  38.693  1.00  0.00     0.225 A
HETATM    7  C7  UNL     1      43.617  31.262  38.299  1.00  0.00     0.042 C
ENDROOT
BRANCH   1   8
HETATM    8  C1  UNL     1      47.192  31.860  38.133  1.00  0.00     0.402 C
BRANCH   8   9
HETATM    9  O1  UNL     1      47.376  32.265  39.455  1.00  0.00    -0.374 OA
ATOM     10  H1  UNL     1      47.009  33.120  39.644  1.00  0.00     0.211 HD
ENDBRANCH   8   9
ENDBRANCH   1   8
TORSDOF 2
ENDMDL