MODEL 2
REMARK VINA RESULT: -2.789398391      1.741      2.766
REMARK  2 active torsions:
REMARK  status: ('A' for Active; 'I' for Inactive)
REMARK    1  A    between atoms: N2_6  and  C6_8
REMARK    2  A    between atoms: C6_8  and  O1_9
ROOT
HETATM    1  C1  UNL     1      44.113  31.426  38.292  1.00  0.00     0.309 C
HETATM    2  N1  UNL     1      45.085  30.891  37.341  1.00  0.00     0.084 N
HETATM    3  C2  UNL     1      44.830  29.503  37.095  1.00  0.00     0.309 C
HETATM    4  C3  UNL     1      45.014  31.633  36.075  1.00  0.00     0.301 C
HETATM    5  C4  UNL     1      46.508  31.669  36.118  1.00  0.00     0.304 C
HETATM    6  N2  UNL     1      46.375  31.298  37.506  1.00  0.00     0.106 N
HETATM    7  C5  UNL     1      47.360  30.324  37.870  1.00  0.00     0.312 C
ENDROOT
BRANCH   6   8
HETATM    8  C6  UNL     1      46.523  32.483  38.348  1.00  0.00     0.436 C
BRANCH   8   9
HETATM    9  O1  UNL     1      47.403  32.236  39.402  1.00  0.00    -0.373 OA
ATOM     10  H1  UNL     1      47.924  33.007  39.595  1.00  0.00     0.211 HD
ENDBRANCH   8   9
ENDBRANCH   6   8
TORSDOF 2
ENDMDL