MODEL 2
REMARK VINA RESULT: -3.160596421      1.024      1.664
REMARK  1 active torsions:
REMARK  status: ('A' for Active; 'I' for Inactive)
REMARK    1  A    between atoms: C2_2  and  N1_3
ROOT
HETATM    1  N1  UNL     1      49.916  36.203  39.020  1.00  0.00     0.011 N
HETATM    2  C3  UNL     1      50.697  35.131  38.378  1.00  0.00     0.268 C
HETATM    3  C4  UNL     1      49.509  34.286  38.732  1.00  0.00     0.058 C
HETATM    4  C5  UNL     1      49.465  34.404  40.226  1.00  0.00     0.150 C
HETATM    5  N2  UNL     1      49.765  35.847  40.346  1.00  0.00    -0.046 NA
HETATM    6  C6  UNL     1      48.775  35.574  38.330  1.00  0.00     0.268 C
ENDROOT
BRANCH   1   7
HETATM    7  C2  UNL     1      50.227  37.518  38.673  1.00  0.00     0.256 C
HETATM    8  C1  UNL     1      50.497  38.445  39.838  1.00  0.00     0.036 C
ENDBRANCH   1   7
TORSDOF 1
ENDMDL