MODEL 3
REMARK VINA RESULT: -3.385095710      0.069      1.352
REMARK  2 active torsions:
REMARK  status: ('A' for Active; 'I' for Inactive)
REMARK    1  A    between atoms: N1_2  and  C4_5
REMARK    2  A    between atoms: C4_5  and  C5_6
ROOT
HETATM    1  C5  UNL     1      48.393  34.023  39.021  1.00  0.00     0.213 C
HETATM    2  C6  UNL     1      49.823  34.412  38.711  1.00  0.00     0.062 C
HETATM    3  C7  UNL     1      49.999  34.709  40.192  1.00  0.00     0.235 C
HETATM    4  N2  UNL     1      48.826  33.846  40.411  1.00  0.00    -0.069 N
ATOM      5  H21 UNL     1      48.959  32.903  40.777  1.00  0.00     0.277 HD
ATOM      6  H22 UNL     1      48.179  34.063  41.169  1.00  0.00     0.277 HD
ENDROOT
BRANCH   1   7
HETATM    7  C4  UNL     1      47.914  32.735  38.464  1.00  0.00     0.269 C
BRANCH   7   8
HETATM    8  N1  UNL     1      46.739  32.780  37.659  1.00  0.00    -0.077 N
HETATM    9  C1  UNL     1      45.596  32.525  38.537  1.00  0.00     0.271 C
HETATM   10  C2  UNL     1      46.685  31.867  36.572  1.00  0.00     0.271 C
HETATM   11  C3  UNL     1      46.499  34.125  37.107  1.00  0.00     0.271 C
ENDBRANCH   7   8
ENDBRANCH   1   7
TORSDOF 2
ENDMDL