MODEL 1
REMARK VINA RESULT: -4.275860672      0.000      0.000
REMARK  1 active torsions:
REMARK  status: ('A' for Active; 'I' for Inactive)
REMARK    1  A    between atoms: C3_3  and  N1_4
ROOT
HETATM    1  C1  UNL     1      50.513  38.726  39.625  1.00  0.00     0.013 C
HETATM    2  C2  UNL     1      50.320  37.749  38.923  1.00  0.00    -0.088 C
HETATM    3  C3  UNL     1      50.110  36.596  38.098  1.00  0.00     0.352 C
ENDROOT
BRANCH   3   4
HETATM    4  N1  UNL     1      49.744  35.463  38.815  1.00  0.00     0.023 N
HETATM    5  C4  UNL     1      49.757  35.472  40.252  1.00  0.00     0.263 C
HETATM    6  C5  UNL     1      49.373  33.996  40.490  1.00  0.00     0.054 C
HETATM    7  C6  UNL     1      49.149  33.634  39.036  1.00  0.00     0.136 C
HETATM    8  C7  UNL     1      48.447  34.841  38.512  1.00  0.00     0.284 C
HETATM    9  N2  UNL     1      50.312  34.229  38.410  1.00  0.00    -0.039 NA
ENDBRANCH   3   4
TORSDOF 1
ENDMDL