MODEL 4
REMARK VINA RESULT: -3.151513953      1.103      3.186
REMARK  0 active torsions:
REMARK  status: ('A' for Active; 'I' for Inactive)
ROOT
HETATM    1  C1  UNL     1      50.765  36.776  38.607  1.00  0.00     0.056 A
HETATM    2  C2  UNL     1      49.651  36.328  39.533  1.00  0.00     0.241 A
HETATM    3  N1  UNL     1      49.462  35.109  38.794  1.00  0.00    -0.042 N
HETATM    4  C3  UNL     1      50.525  35.479  37.872  1.00  0.00     0.241 A
HETATM    5  C4  UNL     1      48.145  35.042  38.210  1.00  0.00     0.267 C
HETATM    6  C5  UNL     1      47.731  33.602  38.289  1.00  0.00     0.262 C
HETATM    7  N2  UNL     1      48.564  33.024  39.298  1.00  0.00    -0.049 N
ATOM      8  H21 UNL     1      48.840  32.068  39.076  1.00  0.00     0.279 HD
ATOM      9  H22 UNL     1      48.056  32.828  40.160  1.00  0.00     0.279 HD
HETATM   10  C6  UNL     1      49.690  33.884  39.509  1.00  0.00     0.467 C
ENDROOT
TORSDOF 0
ENDMDL