MODEL 2
REMARK VINA RESULT: -6.743432156      2.326      6.108
REMARK  20 active torsions:
REMARK  status: ('A' for Active; 'I' for Inactive)
REMARK    1  A    between atoms: N2_3  and  C2_5
REMARK    2  A    between atoms: C2_5  and  C3_6
REMARK    3  A    between atoms: C3_6  and  C4_7
REMARK    4  A    between atoms: C4_7  and  C5_8
REMARK    5  A    between atoms: C5_8  and  C6_9
REMARK    6  A    between atoms: C6_9  and  N3_10
REMARK    7  A    between atoms: C7_15  and  C8_16
REMARK    8  A    between atoms: C8_16  and  O1_17
REMARK    9  A    between atoms: C8_16  and  C9_19
REMARK   10  A    between atoms: C9_19  and  O2_20
REMARK   11  A    between atoms: C9_19  and  C10_22
REMARK   12  A    between atoms: C10_22  and  N6_23
REMARK       I    between atoms: N6_23  and  C11_25
REMARK   13  A    between atoms: C11_25  and  C12_27
REMARK   14  A    between atoms: C12_27  and  S1_28
REMARK   15  A    between atoms: S1_28  and  C13_29
REMARK   16  A    between atoms: C14_32  and  N8_33
REMARK   17  A    between atoms: N8_33  and  N9_35
REMARK   18  A    between atoms: C15_38  and  N11_39
REMARK   19  A    between atoms: C16_43  and  N12_44
REMARK   20  A    between atoms: C17_49  and  N14_50
ROOT
HETATM    1  N1  UNL     1      14.365  15.312   5.438  1.00  0.00    -0.172 NA
HETATM    2  C1  UNL     1      14.065  14.478   6.188  1.00  0.00     0.177 C
HETATM    3  N2  UNL     1      13.690  13.470   7.089  1.00  0.00    -0.329 N
ATOM      4  H2  UNL     1      13.843  12.493   6.838  1.00  0.00     0.171 HD
ENDROOT
BRANCH   3   5
HETATM    5  C2  UNL     1      13.087  13.792   8.378  1.00  0.00     0.131 C
BRANCH   5   6
HETATM    6  C3  UNL     1      11.864  12.928   8.632  1.00  0.00     0.020 C
BRANCH   6   7
HETATM    7  C4  UNL     1      11.251  13.444   9.917  1.00  0.00     0.003 C
BRANCH   7   8
HETATM    8  C5  UNL     1      11.186  14.930  10.011  1.00  0.00     0.024 C
BRANCH   8   9
HETATM    9  C6  UNL     1       9.795  15.504  10.001  1.00  0.00     0.171 C
BRANCH   9  10
HETATM   10  N3  UNL     1       9.937  16.947  10.263  1.00  0.00    -0.218 N
HETATM   11  N4  UNL     1       9.007  17.820  10.561  1.00  0.00    -0.225 N
HETATM   12  N5  UNL     1       9.509  19.026  10.719  1.00  0.00    -0.270 N
ATOM     13  H4  UNL     1       8.017  17.593  10.657  1.00  0.00     0.210 HD
HETATM   14  C7  UNL     1      10.839  18.916  10.512  1.00  0.00     0.145 A
ATOM     15  H5  UNL     1       8.996  19.876  10.953  1.00  0.00     0.190 HD
HETATM   16  N16 UNL     1      11.068  17.630  10.235  1.00  0.00    -0.268 N
ATOM     17  H16 UNL     1      11.984  17.232  10.032  1.00  0.00     0.190 HD
BRANCH  14  18
HETATM   18  C8  UNL     1      11.878  19.946  10.542  1.00  0.00     0.218 C
BRANCH  18  19
HETATM   19  O1  UNL     1      12.118  20.427   9.222  1.00  0.00    -0.385 OA
ATOM     20  H1  UNL     1      12.798  21.091   9.240  1.00  0.00     0.210 HD
ENDBRANCH  18  19
BRANCH  18  21
HETATM   21  C9  UNL     1      11.620  21.160  11.366  1.00  0.00     0.172 C
BRANCH  21  22
HETATM   22  O2  UNL     1      10.915  22.031  10.439  1.00  0.00    -0.391 OA
ATOM     23  H2  UNL     1      11.268  22.888  10.648  1.00  0.00     0.210 HD
ENDBRANCH  21  22
BRANCH  21  24
HETATM   24  C10 UNL     1      12.814  21.964  11.747  1.00  0.00     0.157 C
BRANCH  24  25
HETATM   25  N6  UNL     1      13.522  22.435  10.587  1.00  0.00    -0.358 N
HETATM   26  C11 UNL     1      14.906  22.218  10.424  1.00  0.00     0.227 C
HETATM   27  O3  UNL     1      15.552  21.610  11.293  1.00  0.00    -0.273 OA
ATOM     28  H6  UNL     1      13.009  22.939   9.863  1.00  0.00     0.162 HD
BRANCH  26  29
HETATM   29  C12 UNL     1      15.585  22.721   9.210  1.00  0.00     0.185 C
BRANCH  29  30
HETATM   30  S1  UNL     1      16.434  21.392   8.321  1.00  0.00    -0.084 SA
BRANCH  30  31
HETATM   31  C13 UNL     1      15.438  19.920   8.328  1.00  0.00     0.175 A
HETATM   32  N7  UNL     1      14.610  19.665   7.283  1.00  0.00    -0.168 N
HETATM   33  C14 UNL     1      13.825  18.579   7.231  1.00  0.00     0.715 A
ATOM     34  H7  UNL     1      14.584  20.326   6.507  1.00  0.00     0.186 HD
HETATM   35  N13 UNL     1      13.893  17.730   8.285  1.00  0.00    -0.021 N
HETATM   36  C17 UNL     1      14.704  17.961   9.328  1.00  0.00     0.692 A
ATOM     37  H13 UNL     1      13.312  16.891   8.284  1.00  0.00     0.203 HD
HETATM   38  N15 UNL     1      15.491  19.064   9.363  1.00  0.00    -0.170 N
ATOM     39  H15 UNL     1      16.108  19.241  10.156  1.00  0.00     0.186 HD
BRANCH  33  40
HETATM   40  N8  UNL     1      13.041  18.360   6.221  1.00  0.00    -0.108 N
ATOM     41  H8  UNL     1      13.406  18.101   5.304  1.00  0.00     0.208 HD
BRANCH  40  42
HETATM   42  N9  UNL     1      11.626  18.505   6.464  1.00  0.00    -0.156 N
HETATM   43  N10 UNL     1      11.052  19.639   6.592  1.00  0.00    -0.256 N
HETATM   44  C15 UNL     1       9.737  19.681   6.816  1.00  0.00     0.162 A
ATOM     45  H10 UNL     1      11.592  20.501   6.525  1.00  0.00     0.191 HD
HETATM   46  S2  UNL     1       9.327  18.023   6.840  1.00  0.00    -0.014 SA
HETATM   47  C16 UNL     1      10.888  17.395   6.559  1.00  0.00     0.185 A
BRANCH  44  48
HETATM   48  N11 UNL     1       8.965  20.734   6.975  1.00  0.00    -0.378 N
ATOM     49 2H11 UNL     1       8.836  21.541   6.363  1.00  0.00     0.158 HD
ATOM     50 1H11 UNL     1       8.337  20.952   7.750  1.00  0.00     0.158 HD
ENDBRANCH  44  48
BRANCH  47  51
HETATM   51  N12 UNL     1      11.286  16.142   6.457  1.00  0.00    -0.377 N
ATOM     52 2H12 UNL     1      12.041  15.657   6.942  1.00  0.00     0.158 HD
ATOM     53 1H12 UNL     1      10.904  15.406   5.863  1.00  0.00     0.158 HD
ENDBRANCH  47  51
ENDBRANCH  40  42
ENDBRANCH  33  40
BRANCH  36  54
HETATM   54  N14 UNL     1      14.777  17.162  10.332  1.00  0.00    -0.234 N
ATOM     55 2H14 UNL     1      14.480  17.528  11.236  1.00  0.00     0.174 HD
ATOM     56 1H14 UNL     1      15.113  16.203  10.243  1.00  0.00     0.174 HD
ENDBRANCH  36  54
ENDBRANCH  30  31
ENDBRANCH  29  30
ENDBRANCH  26  29
ENDBRANCH  24  25
ENDBRANCH  21  24
ENDBRANCH  18  21
ENDBRANCH  14  18
ENDBRANCH   9  10
ENDBRANCH   8   9
ENDBRANCH   7   8
ENDBRANCH   6   7
ENDBRANCH   5   6
ENDBRANCH   3   5
TORSDOF 20
ENDMDL