MODEL 1
REMARK VINA RESULT: -7.597770431      0.000      0.000
REMARK  20 active torsions:
REMARK  status: ('A' for Active; 'I' for Inactive)
REMARK    1  A    between atoms: C4_8  and  N3_9
REMARK    2  A    between atoms: C5_12  and  C6_13
REMARK    3  A    between atoms: C6_13  and  C7_14
REMARK    4  A    between atoms: C7_14  and  O1_15
REMARK    5  A    between atoms: C7_14  and  N4_17
REMARK    6  A    between atoms: N4_17  and  C8_18
REMARK    7  A    between atoms: C10_25  and  N8_26
REMARK    8  A    between atoms: N8_26  and  C11_28
REMARK    9  A    between atoms: C11_28  and  C13_30
REMARK   10  A    between atoms: C13_30  and  O2_31
REMARK   11  A    between atoms: C13_30  and  C14_33
REMARK       I    between atoms: C14_33  and  N9_35
REMARK   12  A    between atoms: N9_35  and  O4_37
REMARK   13  A    between atoms: O4_37  and  C15_38
REMARK   14  A    between atoms: C15_38  and  C16_39
REMARK   15  A    between atoms: C16_39  and  N10_40
REMARK   16  A    between atoms: N10_40  and  N11_41
REMARK   17  A    between atoms: N10_40  and  C17_44
REMARK   18  A    between atoms: C17_44  and  C18_45
REMARK   19  A    between atoms: C19_50  and  N14_51
REMARK   20  A    between atoms: N14_51  and  N15_53
ROOT
HETATM    1  C13 UNL     1       9.623  18.562   5.872  1.00  0.00     0.234 C
ENDROOT
BRANCH   1   2
HETATM    2  C11 UNL     1      10.834  19.477   5.847  1.00  0.00     0.117 C
HETATM    3  C12 UNL     1      10.814  20.496   4.769  1.00  0.00     0.035 C
BRANCH   2   4
HETATM    4  N8  UNL     1      12.016  18.656   5.759  1.00  0.00    -0.364 N
ATOM      5  H8  UNL     1      12.074  17.917   5.058  1.00  0.00     0.161 HD
BRANCH   4   6
HETATM    6  C10 UNL     1      13.087  18.876   6.640  1.00  0.00     0.178 A
HETATM    7  C8  UNL     1      13.997  17.873   7.064  1.00  0.00     0.237 A
HETATM    8  N5  UNL     1      14.829  18.551   7.912  1.00  0.00    -0.255 N
HETATM    9  N6  UNL     1      14.510  19.800   8.021  1.00  0.00    -0.235 N
ATOM     10  H5  UNL     1      15.614  18.120   8.402  1.00  0.00     0.191 HD
HETATM   11  C9  UNL     1      15.169  20.849   8.827  1.00  0.00     0.200 C
HETATM   12  N7  UNL     1      13.466  19.995   7.258  1.00  0.00    -0.265 N
ATOM     13  H7  UNL     1      12.998  20.895   7.150  1.00  0.00     0.190 HD
BRANCH   7  14
HETATM   14  N4  UNL     1      13.999  16.711   6.730  1.00  0.00    -0.393 NA
BRANCH  14  15
HETATM   15  C7  UNL     1      13.816  15.425   6.446  1.00  0.00     0.304 C
BRANCH  15  16
HETATM   16  C6  UNL     1      14.054  14.305   7.433  1.00  0.00     0.112 C
BRANCH  16  17
HETATM   17  C5  UNL     1      12.945  13.856   8.226  1.00  0.00     0.013 A
HETATM   18  C2  UNL     1      12.519  14.480   9.370  1.00  0.00     0.016 A
HETATM   19  C1  UNL     1      13.249  15.608   9.998  1.00  0.00     0.069 C
HETATM   20  N1  UNL     1      11.397  14.023  10.010  1.00  0.00    -0.355 N
HETATM   21  C3  UNL     1      10.683  12.978   9.567  1.00  0.00     0.182 A
ATOM     22  H1  UNL     1      11.091  14.499  10.859  1.00  0.00     0.166 HD
HETATM   23  N2  UNL     1      11.092  12.367   8.461  1.00  0.00    -0.339 N
HETATM   24  C4  UNL     1      12.169  12.771   7.807  1.00  0.00     0.108 A
ATOM     25  H2  UNL     1      10.564  11.569   8.108  1.00  0.00     0.168 HD
BRANCH  24  26
HETATM   26  N3  UNL     1      12.541  12.153   6.741  1.00  0.00    -0.385 N
ATOM     27  H32 UNL     1      12.316  12.586   5.845  1.00  0.00     0.157 HD
ATOM     28  H31 UNL     1      13.045  11.270   6.816  1.00  0.00     0.157 HD
ENDBRANCH  24  26
ENDBRANCH  16  17
ENDBRANCH  15  16
BRANCH  15  29
HETATM   29  O1  UNL     1      14.581  15.107   5.253  1.00  0.00    -0.365 OA
ATOM     30  H1  UNL     1      13.962  14.801   4.601  1.00  0.00     0.213 HD
ENDBRANCH  15  29
ENDBRANCH  14  15
ENDBRANCH   7  14
ENDBRANCH   4   6
ENDBRANCH   2   4
ENDBRANCH   1   2
BRANCH   1  31
HETATM   31  O2  UNL     1       8.488  19.242   6.312  1.00  0.00    -0.384 OA
ATOM     32  H2  UNL     1       8.340  19.098   7.240  1.00  0.00     0.210 HD
ENDBRANCH   1  31
BRANCH   1  33
HETATM   33  C14 UNL     1       9.888  17.396   6.796  1.00  0.00     0.272 C
HETATM   34  O3  UNL     1      10.508  16.403   6.355  1.00  0.00    -0.268 OA
HETATM   35  N9  UNL     1       9.420  17.486   8.127  1.00  0.00    -0.232 N
ATOM     36  H9  UNL     1       8.920  18.331   8.403  1.00  0.00     0.197 HD
BRANCH  35  37
HETATM   37  O4  UNL     1       9.593  16.527   9.051  1.00  0.00    -0.273 OA
BRANCH  37  38
HETATM   38  C15 UNL     1       9.520  16.987  10.350  1.00  0.00     0.247 C
BRANCH  38  39
HETATM   39  C16 UNL     1      10.679  17.827  10.756  1.00  0.00     0.111 C
BRANCH  39  40
HETATM   40  N10 UNL     1      10.448  19.193  10.992  1.00  0.00    -0.304 N
BRANCH  40  41
HETATM   41  N11 UNL     1       9.831  19.501  12.186  1.00  0.00    -0.343 N
ATOM     42 2H11 UNL     1      10.158  18.975  12.997  1.00  0.00     0.177 HD
ATOM     43 1H11 UNL     1       8.860  19.803  12.120  1.00  0.00     0.177 HD
ENDBRANCH  40  41
BRANCH  40  44
HETATM   44  C17 UNL     1      11.340  20.168  10.501  1.00  0.00     0.225 C
BRANCH  44  45
HETATM   45  C18 UNL     1      10.752  21.044   9.458  1.00  0.00     0.132 A
HETATM   46  N12 UNL     1       9.555  20.749   8.860  1.00  0.00    -0.273 N
HETATM   47  N13 UNL     1       9.271  21.694   7.974  1.00  0.00    -0.129 N
ATOM     48  H12 UNL     1       8.975  19.934   9.063  1.00  0.00     0.189 HD
HETATM   49  C19 UNL     1      10.266  22.624   7.966  1.00  0.00     0.714 A
ATOM     50  H13 UNL     1       8.437  21.720   7.388  1.00  0.00     0.205 HD
HETATM   51  N17 UNL     1      11.148  22.170   8.899  1.00  0.00    -0.175 N
ATOM     52  H17 UNL     1      12.017  22.648   9.139  1.00  0.00     0.185 HD
BRANCH  49  53
HETATM   53  N14 UNL     1      10.401  23.793   7.189  1.00  0.00    -0.117 N
ATOM     54  H14 UNL     1      10.930  24.587   7.550  1.00  0.00     0.207 HD
BRANCH  53  55
HETATM   55  N15 UNL     1       9.870  23.857   6.057  1.00  0.00    -0.235 N
HETATM   56  N16 UNL     1       9.813  24.020   4.815  1.00  0.00    -0.330 N
ATOM     57 2H16 UNL     1      10.798  24.217   4.642  1.00  0.00     0.178 HD
ATOM     58 1H16 UNL     1       9.380  24.071   3.892  1.00  0.00     0.178 HD
ATOM     59  H15 UNL     1       8.895  23.654   6.279  1.00  0.00     0.208 HD
ENDBRANCH  53  55
ENDBRANCH  49  53
ENDBRANCH  44  45
ENDBRANCH  40  44
ENDBRANCH  39  40
ENDBRANCH  38  39
ENDBRANCH  37  38
ENDBRANCH  35  37
ENDBRANCH   1  33
TORSDOF 20
ENDMDL