MODEL 5
REMARK VINA RESULT: -6.200178068      2.946      7.408
REMARK  19 active torsions:
REMARK  status: ('A' for Active; 'I' for Inactive)
REMARK    1  A    between atoms: C2_7  and  N3_8
REMARK    2  A    between atoms: N3_8  and  C3_9
REMARK    3  A    between atoms: N3_8  and  C5_13
REMARK    4  A    between atoms: C3_9  and  C4_10
REMARK    5  A    between atoms: C4_10  and  O1_11
REMARK    6  A    between atoms: C5_13  and  C6_14
REMARK    7  A    between atoms: C6_14  and  C7_15
REMARK    8  A    between atoms: C7_15  and  N4_16
REMARK    9  A    between atoms: N7_27  and  C11_28
REMARK   10  A    between atoms: C12_30  and  C13_31
REMARK   11  A    between atoms: C13_31  and  O3_32
REMARK   12  A    between atoms: C14_34  and  N8_35
REMARK   13  A    between atoms: C16_42  and  N12_43
REMARK   14  A    between atoms: C17_46  and  C18_47
REMARK   15  A    between atoms: C18_47  and  S1_48
REMARK   16  A    between atoms: S1_48  and  C19_49
REMARK   17  A    between atoms: C19_49  and  C20_50
REMARK   18  A    between atoms: C20_50  and  C21_51
REMARK   19  A    between atoms: C21_51  and  O4_52
ROOT
HETATM    1  N1  UNL     1      14.954  14.163   6.906  1.00  0.00    -0.383 N
ATOM      2  H11 UNL     1      15.600  14.610   6.255  1.00  0.00     0.157 HD
ATOM      3  H12 UNL     1      15.237  13.294   7.360  1.00  0.00     0.157 HD
HETATM    4  C1  UNL     1      13.783  14.692   7.153  1.00  0.00     0.145 A
HETATM    5  N2  UNL     1      12.929  14.102   8.014  1.00  0.00    -0.175 N
ATOM      6  H2  UNL     1      13.213  13.234   8.466  1.00  0.00     0.186 HD
HETATM    7  C2  UNL     1      11.724  14.610   8.298  1.00  0.00     0.683 A
HETATM    8  N5  UNL     1      11.345  15.755   7.703  1.00  0.00    -0.173 N
ATOM      9  H5  UNL     1      10.429  16.151   7.912  1.00  0.00     0.186 HD
HETATM   10  C8  UNL     1      12.158  16.383   6.837  1.00  0.00     0.162 A
HETATM   11  C9  UNL     1      13.399  15.873   6.536  1.00  0.00     0.123 A
HETATM   12  N6  UNL     1      13.965  16.701   5.662  1.00  0.00    -0.346 N
ATOM     13  H6  UNL     1      14.889  16.598   5.244  1.00  0.00     0.167 HD
HETATM   14  C10 UNL     1      13.095  17.702   5.429  1.00  0.00     0.195 A
HETATM   15  N7  UNL     1      11.969  17.541   6.135  1.00  0.00    -0.250 N
ENDROOT
BRANCH  15  16
HETATM   16  C11 UNL     1      10.765  18.387   6.198  1.00  0.00     0.275 C
HETATM   17  O2  UNL     1      10.576  19.068   5.053  1.00  0.00    -0.306 OA
HETATM   18  C12 UNL     1      10.574  20.439   5.058  1.00  0.00     0.184 C
HETATM   19  C14 UNL     1      10.380  21.053   6.399  1.00  0.00     0.188 C
HETATM   20  C17 UNL     1      10.992  20.285   7.532  1.00  0.00     0.169 C
HETATM   21  O5  UNL     1      10.587  18.989   7.398  1.00  0.00    -0.307 OA
BRANCH  18  22
HETATM   22  C13 UNL     1      11.827  20.878   4.328  1.00  0.00     0.199 C
BRANCH  22  23
HETATM   23  O3  UNL     1      12.031  20.123   3.169  1.00  0.00    -0.398 OA
ATOM     24  H3  UNL     1      11.382  20.326   2.506  1.00  0.00     0.209 HD
ENDBRANCH  22  23
ENDBRANCH  18  22
BRANCH  19  25
HETATM   25  N8  UNL     1      10.664  22.436   6.369  1.00  0.00    -0.112 N
HETATM   26  N9  UNL     1       9.760  23.337   5.955  1.00  0.00    -0.256 N
HETATM   27  C15 UNL     1      10.269  24.556   6.038  1.00  0.00     0.222 A
ATOM     28  H9  UNL     1       8.820  23.115   5.625  1.00  0.00     0.190 HD
HETATM   29  N10 UNL     1       9.636  25.785   5.705  1.00  0.00    -0.061 NA
HETATM   30  N11 UNL     1      11.506  24.465   6.505  1.00  0.00    -0.161 N
HETATM   31  C16 UNL     1      11.741  23.158   6.705  1.00  0.00     0.695 A
ATOM     32  H11 UNL     1      12.153  25.235   6.678  1.00  0.00     0.187 HD
BRANCH  31  33
HETATM   33  N12 UNL     1      12.825  22.688   7.147  1.00  0.00    -0.233 N
ATOM     34 2H12 UNL     1      12.895  21.867   7.748  1.00  0.00     0.174 HD
ATOM     35 1H12 UNL     1      13.753  23.068   6.958  1.00  0.00     0.174 HD
ENDBRANCH  31  33
ENDBRANCH  19  25
BRANCH  20  36
HETATM   36  C18 UNL     1      10.289  20.818   8.800  1.00  0.00     0.108 C
BRANCH  36  37
HETATM   37  S1  UNL     1      11.227  20.567  10.271  1.00  0.00    -0.166 SA
BRANCH  37  38
HETATM   38  C19 UNL     1      12.894  20.005  10.128  1.00  0.00     0.076 C
BRANCH  38  39
HETATM   39  C20 UNL     1      13.057  18.550   9.866  1.00  0.00     0.036 C
BRANCH  39  40
HETATM   40  C21 UNL     1      14.392  18.067   9.443  1.00  0.00     0.165 C
BRANCH  40  41
HETATM   41  O4  UNL     1      15.045  17.501  10.557  1.00  0.00    -0.401 OA
ATOM     42  H4  UNL     1      15.600  16.790  10.258  1.00  0.00     0.209 HD
ENDBRANCH  40  41
ENDBRANCH  39  40
ENDBRANCH  38  39
ENDBRANCH  37  38
ENDBRANCH  36  37
ENDBRANCH  20  36
ENDBRANCH  15  16
BRANCH   7  43
HETATM   43  N3  UNL     1      10.836  13.953   9.235  1.00  0.00    -0.215 N
BRANCH  43  44
HETATM   44  C3  UNL     1      10.830  12.519   9.309  1.00  0.00     0.167 C
BRANCH  44  45
HETATM   45  C4  UNL     1      10.827  11.814   7.991  1.00  0.00     0.184 C
BRANCH  45  46
HETATM   46  O1  UNL     1      12.078  11.407   7.546  1.00  0.00    -0.399 OA
ATOM     47  H1  UNL     1      12.072  10.922   6.729  1.00  0.00     0.209 HD
ENDBRANCH  45  46
ENDBRANCH  44  45
ENDBRANCH  43  44
BRANCH  43  48
HETATM   48  C5  UNL     1       9.979  14.755  10.063  1.00  0.00     0.143 C
BRANCH  48  49
HETATM   49  C6  UNL     1      10.664  16.028  10.518  1.00  0.00     0.048 C
BRANCH  49  50
HETATM   50  C7  UNL     1       9.644  17.136  10.593  1.00  0.00     0.231 C
BRANCH  50  51
HETATM   51  N4  UNL     1       8.890  17.183   9.364  1.00  0.00    -0.079 N
ATOM     52  H43 UNL     1       9.476  17.016   8.546  1.00  0.00     0.274 HD
ATOM     53  H42 UNL     1       8.266  16.382   9.263  1.00  0.00     0.274 HD
ATOM     54  H41 UNL     1       8.390  18.070   9.304  1.00  0.00     0.274 HD
ENDBRANCH  50  51
ENDBRANCH  49  50
ENDBRANCH  48  49
ENDBRANCH  43  48
ENDBRANCH   7  43
TORSDOF 19
ENDMDL