MODEL 2
REMARK VINA RESULT: -6.697693768      2.535      6.509
REMARK  18 active torsions:
REMARK  status: ('A' for Active; 'I' for Inactive)
REMARK    1  A    between atoms: N3_7  and  C2_8
REMARK    2  A    between atoms: C2_8  and  C3_9
REMARK    3  A    between atoms: C3_9  and  O1_10
REMARK    4  A    between atoms: C3_9  and  N4_12
REMARK    5  A    between atoms: N4_12  and  C4_15
REMARK    6  A    between atoms: C4_15  and  C5_16
REMARK    7  A    between atoms: C10_21  and  C11_22
REMARK    8  A    between atoms: C11_22  and  N5_23
REMARK    9  A    between atoms: N5_23  and  C12_26
REMARK   10  A    between atoms: C12_26  and  C13_27
REMARK   11  A    between atoms: C13_27  and  O2_28
REMARK   12  A    between atoms: O2_28  and  S1_29
REMARK   13  A    between atoms: S1_29  and  C14_32
REMARK   14  A    between atoms: C14_32  and  S2_33
REMARK   15  A    between atoms: S2_33  and  C15_34
REMARK   16  A    between atoms: N7_36  and  C16_38
REMARK   17  A    between atoms: C16_38  and  C17_39
REMARK   18  A    between atoms: C17_39  and  O5_40
ROOT
HETATM    1  C5  UNL     1      11.550  18.085   5.902  1.00  0.00     0.061 A
HETATM    2  C6  UNL     1      11.801  18.702   4.695  1.00  0.00     0.029 A
HETATM    3  C7  UNL     1      11.497  20.044   4.519  1.00  0.00     0.004 A
HETATM    4  C8  UNL     1      10.947  20.726   5.577  1.00  0.00     0.034 A
HETATM    5  C9  UNL     1      10.706  20.064   6.798  1.00  0.00     0.083 A
HETATM    6  C10 UNL     1      10.064  20.491   7.965  1.00  0.00     0.081 A
HETATM    7  N8  UNL     1      10.018  19.398   8.753  1.00  0.00    -0.286 N
ATOM      8  H8  UNL     1       9.611  19.351   9.687  1.00  0.00     0.188 HD
HETATM    9  N9  UNL     1      10.596  18.396   8.105  1.00  0.00    -0.235 N
ATOM     10  H9  UNL     1      10.704  17.451   8.475  1.00  0.00     0.209 HD
HETATM   11  N10 UNL     1      11.010  18.789   6.921  1.00  0.00    -0.243 N
ENDROOT
BRANCH   1  12
HETATM   12  C4  UNL     1      11.686  16.609   6.130  1.00  0.00     0.294 C
BRANCH  12  13
HETATM   13  N4  UNL     1      13.034  16.391   6.656  1.00  0.00    -0.042 N
ATOM     14  H42 UNL     1      13.057  16.503   7.670  1.00  0.00     0.280 HD
ATOM     15  H41 UNL     1      13.661  17.153   6.396  1.00  0.00     0.280 HD
BRANCH  13  16
HETATM   16  C3  UNL     1      13.563  15.131   6.264  1.00  0.00     0.339 C
BRANCH  16  17
HETATM   17  C2  UNL     1      13.976  14.435   7.590  1.00  0.00     0.214 C
BRANCH  17  18
HETATM   18  N3  UNL     1      12.800  13.940   8.235  1.00  0.00    -0.249 N
HETATM   19  N2  UNL     1      12.125  14.595   9.209  1.00  0.00    -0.260 N
HETATM   20  C1  UNL     1      11.056  13.820   9.495  1.00  0.00     0.239 A
ATOM     21  H2  UNL     1      12.371  15.487   9.638  1.00  0.00     0.191 HD
HETATM   22  N1  UNL     1      10.215  14.216  10.404  1.00  0.00    -0.364 N
HETATM   23  O6  UNL     1      11.118  12.779   8.732  1.00  0.00    -0.245 OA
ATOM     24  H12 UNL     1      10.167  15.038  11.006  1.00  0.00     0.159 HD
ATOM     25  H11 UNL     1       9.408  13.630  10.619  1.00  0.00     0.159 HD
HETATM   26  C18 UNL     1      12.156  12.807   7.951  1.00  0.00     0.242 A
HETATM   27  N11 UNL     1      12.487  11.917   7.085  1.00  0.00    -0.364 N
ATOM     28 2H11 UNL     1      13.302  11.939   6.473  1.00  0.00     0.159 HD
ATOM     29 1H11 UNL     1      11.995  11.051   6.868  1.00  0.00     0.159 HD
ENDBRANCH  17  18
ENDBRANCH  16  17
BRANCH  16  30
HETATM   30  O1  UNL     1      14.460  15.026   5.281  1.00  0.00    -0.368 OA
ATOM     31  H1  UNL     1      14.102  14.739   4.449  1.00  0.00     0.212 HD
ENDBRANCH  16  30
ENDBRANCH  13  16
ENDBRANCH  12  13
ENDBRANCH   1  12
BRANCH   6  32
HETATM   32  C11 UNL     1       9.710  21.888   8.231  1.00  0.00     0.293 C
BRANCH  32  33
HETATM   33  N5  UNL     1      10.337  22.228   9.563  1.00  0.00    -0.068 N
ATOM     34  H52 UNL     1       9.960  23.076   9.986  1.00  0.00     0.277 HD
ATOM     35  H51 UNL     1      10.073  21.588  10.311  1.00  0.00     0.277 HD
BRANCH  33  36
HETATM   36  C12 UNL     1      11.728  22.284   9.337  1.00  0.00     0.260 C
BRANCH  36  37
HETATM   37  C13 UNL     1      12.531  21.493  10.396  1.00  0.00     0.217 C
BRANCH  37  38
HETATM   38  O2  UNL     1      12.603  20.310   9.926  1.00  0.00    -0.274 OA
BRANCH  38  39
HETATM   39  S1  UNL     1      13.684  19.237   9.661  1.00  0.00     0.274 S
HETATM   40  O3  UNL     1      12.928  17.847   9.540  1.00  0.00    -0.198 OA
HETATM   41  O4  UNL     1      14.778  19.041  10.629  1.00  0.00    -0.198 OA
BRANCH  39  42
HETATM   42  C14 UNL     1      14.437  19.487   8.025  1.00  0.00     0.252 C
BRANCH  42  43
HETATM   43  S2  UNL     1      15.671  20.776   8.141  1.00  0.00    -0.080 SA
BRANCH  43  44
HETATM   44  C15 UNL     1      17.291  20.009   8.367  1.00  0.00     0.151 C
HETATM   45  N6  UNL     1      18.174  19.764   7.311  1.00  0.00    -0.075 NA
HETATM   46  N7  UNL     1      17.615  19.629   9.549  1.00  0.00    -0.371 N
ATOM     47  H7  UNL     1      16.937  19.781  10.295  1.00  0.00     0.161 HD
BRANCH  46  48
HETATM   48  C16 UNL     1      18.862  19.005   9.903  1.00  0.00     0.147 C
BRANCH  48  49
HETATM   49  C17 UNL     1      18.485  17.747  10.717  1.00  0.00     0.183 C
BRANCH  49  50
HETATM   50  O5  UNL     1      17.127  17.640  10.781  1.00  0.00    -0.399 OA
ATOM     51  H5  UNL     1      16.756  18.476  11.038  1.00  0.00     0.209 HD
ENDBRANCH  49  50
ENDBRANCH  48  49
ENDBRANCH  46  48
ENDBRANCH  43  44
ENDBRANCH  42  43
ENDBRANCH  39  42
ENDBRANCH  38  39
ENDBRANCH  37  38
ENDBRANCH  36  37
ENDBRANCH  33  36
ENDBRANCH  32  33
ENDBRANCH   6  32
TORSDOF 18
ENDMDL