MODEL 3
REMARK VINA RESULT: -7.354491218      2.202      8.795
REMARK  18 active torsions:
REMARK  status: ('A' for Active; 'I' for Inactive)
REMARK    1  A    between atoms: N5_14  and  C6_15
REMARK    2  A    between atoms: C6_15  and  C7_16
REMARK    3  A    between atoms: C7_16  and  C8_17
REMARK    4  A    between atoms: C7_16  and  N11_33
REMARK    5  A    between atoms: C7_16  and  C17_42
REMARK    6  A    between atoms: C8_17  and  C9_18
REMARK    7  A    between atoms: C9_18  and  N6_19
REMARK    8  A    between atoms: C10_23  and  C11_24
REMARK    9  A    between atoms: N11_33  and  C16_35
REMARK   10  A    between atoms: C16_35  and  N12_36
REMARK   11  A    between atoms: C16_35  and  O1_40
REMARK   12  A    between atoms: C17_42  and  O2_43
REMARK   13  A    between atoms: C17_42  and  C18_45
REMARK   14  A    between atoms: C18_45  and  O3_46
REMARK   15  A    between atoms: C18_45  and  C19_48
REMARK   16  A    between atoms: C20_50  and  C21_51
REMARK   17  A    between atoms: C21_51  and  C22_52
REMARK   18  A    between atoms: C22_52  and  O4_53
ROOT
HETATM    1  C7  UNL     1      11.310  19.001   9.621  1.00  0.00     0.092 C
ENDROOT
BRANCH   1   2
HETATM    2  C6  UNL     1      11.817  17.696  10.283  1.00  0.00     0.106 C
BRANCH   2   3
HETATM    3  N5  UNL     1      11.135  16.493  10.058  1.00  0.00    -0.303 N
HETATM    4  C3  UNL     1      11.568  15.422   9.310  1.00  0.00     0.160 A
HETATM    5  N3  UNL     1      12.630  15.182   8.532  1.00  0.00    -0.174 N
HETATM    6  C4  UNL     1      10.646  14.404   9.386  1.00  0.00     0.148 A
HETATM    7  C2  UNL     1      12.870  14.065   7.840  1.00  0.00     0.682 A
ATOM      8  H3  UNL     1      13.326  15.925   8.461  1.00  0.00     0.186 HD
HETATM    9  N1  UNL     1      11.970  13.086   7.923  1.00  0.00    -0.150 N
HETATM   10  N2  UNL     1      13.947  13.932   7.113  1.00  0.00    -0.234 N
HETATM   11  C1  UNL     1      12.156  11.846   7.205  1.00  0.00     0.179 C
HETATM   12  C23 UNL     1      10.866  13.236   8.681  1.00  0.00     0.292 A
HETATM   13  O5  UNL     1      10.006  12.302   8.762  1.00  0.00    -0.265 OA
ATOM     14  H22 UNL     1      14.129  13.079   6.585  1.00  0.00     0.174 HD
ATOM     15  H21 UNL     1      14.635  14.682   7.050  1.00  0.00     0.174 HD
HETATM   16  N4  UNL     1       9.651  14.823  10.161  1.00  0.00    -0.344 N
HETATM   17  C5  UNL     1       9.959  16.056  10.544  1.00  0.00     0.190 A
ATOM     18  H4  UNL     1       8.813  14.299  10.413  1.00  0.00     0.167 HD
ENDBRANCH   2   3
ENDBRANCH   1   2
BRANCH   1  19
HETATM   19  C8  UNL     1      12.586  19.764   9.500  1.00  0.00     0.062 C
BRANCH  19  20
HETATM   20  C9  UNL     1      12.868  20.990  10.207  1.00  0.00     0.170 C
BRANCH  20  21
HETATM   21  N6  UNL     1      11.857  21.980   9.726  1.00  0.00    -0.216 N
HETATM   22  N7  UNL     1      10.935  22.584  10.454  1.00  0.00    -0.003 NA
HETATM   23  N8  UNL     1      10.217  23.405   9.695  1.00  0.00    -0.266 N
HETATM   24  C10 UNL     1      10.701  23.319   8.436  1.00  0.00     0.144 A
ATOM     25  H8  UNL     1       9.442  23.991  10.005  1.00  0.00     0.186 HD
HETATM   26  N10 UNL     1      11.698  22.440   8.503  1.00  0.00    -0.269 N
ATOM     27  H10 UNL     1      12.269  22.159   7.706  1.00  0.00     0.190 HD
BRANCH  24  28
HETATM   28  C11 UNL     1      10.267  24.014   7.237  1.00  0.00     0.013 A
HETATM   29  C12 UNL     1      10.221  23.376   6.018  1.00  0.00     0.032 A
HETATM   30  C13 UNL     1       9.814  24.031   4.873  1.00  0.00     0.088 A
HETATM   31  N9  UNL     1       9.446  25.323   4.907  1.00  0.00    -0.375 N
HETATM   32  C14 UNL     1       9.478  25.984   6.095  1.00  0.00     0.088 A
ATOM     33  H9  UNL     1       9.147  25.800   4.057  1.00  0.00     0.164 HD
HETATM   34  C15 UNL     1       9.883  25.344   7.248  1.00  0.00     0.032 A
ENDBRANCH  24  28
ENDBRANCH  20  21
ENDBRANCH  19  20
ENDBRANCH   1  19
BRANCH   1  35
HETATM   35  N11 UNL     1      10.305  19.550  10.459  1.00  0.00    -0.359 N
ATOM     36  H11 UNL     1       9.644  20.198  10.032  1.00  0.00     0.158 HD
BRANCH  35  37
HETATM   37  C16 UNL     1      10.148  19.284  11.801  1.00  0.00     0.420 C
BRANCH  37  38
HETATM   38  N12 UNL     1       8.719  18.872  11.972  1.00  0.00    -0.035 N
ATOM     39 3H12 UNL     1       8.166  18.956  11.119  1.00  0.00     0.279 HD
ATOM     40 2H12 UNL     1       8.598  17.867  12.100  1.00  0.00     0.279 HD
ATOM     41 1H12 UNL     1       8.358  19.427  12.748  1.00  0.00     0.279 HD
ENDBRANCH  37  38
BRANCH  37  42
HETATM   42  O1  UNL     1      10.177  20.419  12.667  1.00  0.00    -0.355 OA
ATOM     43  H1  UNL     1       9.684  20.336  13.474  1.00  0.00     0.213 HD
ENDBRANCH  37  42
ENDBRANCH  35  37
ENDBRANCH   1  35
BRANCH   1  44
HETATM   44  C17 UNL     1      10.612  18.762   8.330  1.00  0.00     0.185 C
BRANCH  44  45
HETATM   45  O2  UNL     1       9.698  19.852   8.191  1.00  0.00    -0.390 OA
ATOM     46  H2  UNL     1      10.154  20.607   8.545  1.00  0.00     0.210 HD
ENDBRANCH  44  45
BRANCH  44  47
HETATM   47  C18 UNL     1      11.375  18.754   7.045  1.00  0.00     0.196 C
BRANCH  47  48
HETATM   48  O3  UNL     1      12.357  17.746   6.995  1.00  0.00    -0.387 OA
ATOM     49  H3  UNL     1      13.091  17.970   6.435  1.00  0.00     0.210 HD
ENDBRANCH  47  48
BRANCH  47  50
HETATM   50  C19 UNL     1      10.519  18.490   5.852  1.00  0.00     0.055 C
HETATM   51  N13 UNL     1       9.409  17.546   6.169  1.00  0.00    -0.104 NA
HETATM   52  C20 UNL     1      10.155  19.455   4.844  1.00  0.00     0.023 C
BRANCH  52  53
HETATM   53  C21 UNL     1      11.117  20.116   3.944  1.00  0.00     0.000 C
BRANCH  53  54
HETATM   54  C22 UNL     1      11.565  19.494   2.678  1.00  0.00     0.191 C
BRANCH  54  55
HETATM   55  O4  UNL     1      12.553  20.280   2.073  1.00  0.00    -0.397 OA
ATOM     56  H4  UNL     1      12.872  19.858   1.283  1.00  0.00     0.209 HD
ENDBRANCH  54  55
ENDBRANCH  53  54
ENDBRANCH  52  53
ENDBRANCH  47  50
ENDBRANCH  44  47
ENDBRANCH   1  44
TORSDOF 18
ENDMDL