MODEL 1
REMARK VINA RESULT: -7.421846027      0.000      0.000
REMARK  17 active torsions:
REMARK  status: ('A' for Active; 'I' for Inactive)
REMARK    1  A    between atoms: C2_2  and  C3_4
REMARK    2  A    between atoms: C3_4  and  C4_6
REMARK    3  A    between atoms: C4_6  and  N1_7
REMARK    4  A    between atoms: C4_6  and  C14_33
REMARK    5  A    between atoms: N1_7  and  N2_9
REMARK    6  A    between atoms: N2_9  and  C5_10
REMARK    7  A    between atoms: C5_10  and  O3_11
REMARK    8  A    between atoms: C5_10  and  C6_13
REMARK    9  A    between atoms: C6_13  and  N3_14
REMARK   10  A    between atoms: C6_13  and  C12_28
REMARK       I    between atoms: N3_14  and  C7_16
REMARK   11  A    between atoms: C7_16  and  C8_18
REMARK   12  A    between atoms: C8_18  and  C9_19
REMARK   13  A    between atoms: C11_22  and  N4_23
REMARK   14  A    between atoms: C12_28  and  C13_30
REMARK   15  A    between atoms: C13_30  and  O6_31
REMARK   16  A    between atoms: C17_38  and  N7_39
REMARK       I    between atoms: N7_39  and  C18_41
REMARK   17  A    between atoms: C18_41  and  C19_43
ROOT
HETATM    1  N1  UNL     1      13.969  17.720   7.179  1.00  0.00    -0.320 N
ATOM      2  H1  UNL     1      14.470  18.113   6.382  1.00  0.00     0.177 HD
ENDROOT
BRANCH   1   3
HETATM    3  C4  UNL     1      12.630  17.241   7.058  1.00  0.00     0.207 C
BRANCH   3   4
HETATM    4  C3  UNL     1      12.645  15.829   6.618  1.00  0.00     0.222 C
HETATM    5  O2  UNL     1      11.547  15.204   6.591  1.00  0.00    -0.287 OA
BRANCH   4   6
HETATM    6  C2  UNL     1      13.836  15.117   6.214  1.00  0.00     0.193 C
HETATM    7  C1  UNL     1      14.394  14.037   7.041  1.00  0.00     0.100 C
HETATM    8  O1  UNL     1      14.407  15.421   5.143  1.00  0.00    -0.290 OA
ENDBRANCH   4   6
ENDBRANCH   3   4
BRANCH   3   9
HETATM    9  C14 UNL     1      11.809  18.023   6.118  1.00  0.00    -0.009 A
HETATM   10  C15 UNL     1      10.596  18.521   6.519  1.00  0.00     0.097 A
HETATM   11  N6  UNL     1       9.826  19.261   5.680  1.00  0.00    -0.372 N
HETATM   12  C16 UNL     1      10.245  19.520   4.432  1.00  0.00     0.117 A
ATOM     13  H6  UNL     1       8.926  19.621   6.000  1.00  0.00     0.164 HD
HETATM   14  C17 UNL     1      11.479  19.044   3.951  1.00  0.00     0.051 A
HETATM   15  C20 UNL     1      12.227  18.300   4.829  1.00  0.00     0.042 A
BRANCH  14  16
HETATM   16  N7  UNL     1      11.819  19.379   2.624  1.00  0.00    -0.319 N
HETATM   17  C18 UNL     1      12.272  20.607   2.120  1.00  0.00     0.292 C
HETATM   18  O7  UNL     1      12.433  21.601   2.843  1.00  0.00    -0.264 OA
ATOM     19  H7  UNL     1      11.723  18.629   1.940  1.00  0.00     0.169 HD
BRANCH  17  20
HETATM   20  C19 UNL     1      12.572  20.756   0.693  1.00  0.00     0.203 A
HETATM   21  N8  UNL     1      12.942  19.781  -0.143  1.00  0.00    -0.262 N
HETATM   22  N9  UNL     1      13.125  20.307  -1.354  1.00  0.00    -0.005 NA
ATOM     23  H8  UNL     1      13.063  18.799   0.104  1.00  0.00     0.186 HD
HETATM   24  N10 UNL     1      12.873  21.601  -1.285  1.00  0.00    -0.225 N
HETATM   25  N11 UNL     1      12.540  21.880  -0.053  1.00  0.00    -0.267 N
ATOM     26  H10 UNL     1      12.929  22.266  -2.056  1.00  0.00     0.205 HD
ATOM     27  H11 UNL     1      12.293  22.807   0.293  1.00  0.00     0.190 HD
ENDBRANCH  17  20
ENDBRANCH  14  16
ENDBRANCH   3   9
ENDBRANCH   1   3
BRANCH   1  28
HETATM   28  N2  UNL     1      14.552  17.627   8.420  1.00  0.00    -0.110 NA
BRANCH  28  29
HETATM   29  C5  UNL     1      15.258  18.891   8.638  1.00  0.00     0.261 C
BRANCH  29  30
HETATM   30  O3  UNL     1      15.624  19.316   7.362  1.00  0.00    -0.376 OA
ATOM     31  H3  UNL     1      16.305  18.711   7.092  1.00  0.00     0.211 HD
ENDBRANCH  29  30
BRANCH  29  32
HETATM   32  C6  UNL     1      14.472  19.904   9.335  1.00  0.00     0.202 C
BRANCH  32  33
HETATM   33  N3  UNL     1      13.299  19.388  10.063  1.00  0.00    -0.345 N
HETATM   34  C7  UNL     1      11.976  19.729   9.775  1.00  0.00     0.224 C
HETATM   35  O4  UNL     1      11.781  20.534   8.824  1.00  0.00    -0.273 OA
ATOM     36  H3  UNL     1      13.465  18.737  10.831  1.00  0.00     0.163 HD
BRANCH  34  37
HETATM   37  C8  UNL     1      10.879  19.151  10.568  1.00  0.00     0.160 C
BRANCH  37  38
HETATM   38  C9  UNL     1      10.779  17.648  10.313  1.00  0.00     0.026 A
HETATM   39  C10 UNL     1       9.553  17.094  10.060  1.00  0.00     0.078 A
HETATM   40  S1  UNL     1       9.935  15.448   9.847  1.00  0.00    -0.064 SA
HETATM   41  C11 UNL     1      11.617  15.547  10.088  1.00  0.00     0.142 A
HETATM   42  N5  UNL     1      11.816  16.841  10.323  1.00  0.00    -0.340 N
ATOM     43  H5  UNL     1      12.753  17.200  10.507  1.00  0.00     0.168 HD
BRANCH  41  44
HETATM   44  N4  UNL     1      12.530  14.593  10.058  1.00  0.00    -0.380 N
ATOM     45  H42 UNL     1      12.418  13.643   9.701  1.00  0.00     0.158 HD
ATOM     46  H41 UNL     1      13.500  14.610  10.373  1.00  0.00     0.158 HD
ENDBRANCH  41  44
ENDBRANCH  37  38
ENDBRANCH  34  37
ENDBRANCH  32  33
BRANCH  32  47
HETATM   47  C12 UNL     1      15.257  20.755  10.234  1.00  0.00     0.176 C
HETATM   48  O5  UNL     1      16.491  20.811   9.924  1.00  0.00    -0.293 OA
BRANCH  47  49
HETATM   49  C13 UNL     1      14.922  21.550  11.401  1.00  0.00     0.244 C
BRANCH  49  50
HETATM   50  O6  UNL     1      14.134  20.980  12.379  1.00  0.00    -0.394 OA
ATOM     51  H6  UNL     1      14.517  20.821  13.233  1.00  0.00     0.209 HD
ENDBRANCH  49  50
ENDBRANCH  47  49
ENDBRANCH  32  47
ENDBRANCH  29  32
ENDBRANCH  28  29
ENDBRANCH   1  28
TORSDOF 17
ENDMDL