MODEL 1
REMARK VINA RESULT: -7.390201320      0.000      0.000
REMARK  20 active torsions:
REMARK  status: ('A' for Active; 'I' for Inactive)
REMARK    1  A    between atoms: N1_1  and  C1_4
REMARK    2  A    between atoms: C2_10  and  N4_11
REMARK    3  A    between atoms: N5_13  and  N6_15
REMARK    4  A    between atoms: N6_15  and  C3_17
REMARK    5  A    between atoms: C3_17  and  C4_19
REMARK    6  A    between atoms: C4_19  and  N7_20
REMARK    7  A    between atoms: C4_19  and  C17_51
REMARK       I    between atoms: N7_20  and  C5_21
REMARK    8  A    between atoms: C5_21  and  C6_23
REMARK    9  A    between atoms: C6_23  and  N8_24
REMARK   10  A    between atoms: C6_23  and  C11_39
REMARK       I    between atoms: N8_24  and  C7_26
REMARK   11  A    between atoms: C7_26  and  C8_28
REMARK   12  A    between atoms: C8_28  and  N9_29
REMARK   13  A    between atoms: C8_28  and  C9_33
REMARK   14  A    between atoms: C9_33  and  C10_34
REMARK   15  A    between atoms: C10_34  and  N10_35
REMARK   16  A    between atoms: C13_41  and  N11_42
REMARK   17  A    between atoms: C15_46  and  N12_47
REMARK   18  A    between atoms: C17_51  and  N13_52
REMARK   19  A    between atoms: C17_51  and  C18_56
REMARK   20  A    between atoms: C18_56  and  O8_57
ROOT
HETATM    1  N7  UNL     1      10.147  18.353   7.861  1.00  0.00    -0.398 NA
HETATM    2  C5  UNL     1       9.908  18.433   6.519  1.00  0.00     0.314 C
HETATM    3  O2  UNL     1       8.812  18.053   5.945  1.00  0.00    -0.255 OA
ENDROOT
BRANCH   2   4
HETATM    4  C6  UNL     1      10.886  18.962   5.503  1.00  0.00     0.225 C
BRANCH   4   5
HETATM    5  N8  UNL     1      10.742  20.442   5.556  1.00  0.00    -0.341 N
HETATM    6  C7  UNL     1      11.222  21.226   4.485  1.00  0.00     0.249 C
HETATM    7  O3  UNL     1      11.784  20.681   3.488  1.00  0.00    -0.271 OA
ATOM      8  H8  UNL     1      10.300  20.886   6.360  1.00  0.00     0.163 HD
BRANCH   6   9
HETATM    9  C8  UNL     1      11.053  22.719   4.553  1.00  0.00     0.276 C
BRANCH   9  10
HETATM   10  N9  UNL     1       9.910  23.059   5.379  1.00  0.00    -0.066 N
ATOM     11  H93 UNL     1       9.610  22.272   5.954  1.00  0.00     0.275 HD
ATOM     12  H92 UNL     1      10.159  23.707   6.126  1.00  0.00     0.275 HD
ATOM     13  H91 UNL     1       9.151  23.419   4.801  1.00  0.00     0.275 HD
ENDBRANCH   9  10
BRANCH   9  14
HETATM   14  C9  UNL     1      12.336  23.274   5.087  1.00  0.00     0.069 C
BRANCH  14  15
HETATM   15  C10 UNL     1      12.165  23.827   6.471  1.00  0.00     0.232 C
BRANCH  15  16
HETATM   16  N10 UNL     1      12.929  23.024   7.415  1.00  0.00    -0.079 N
ATOM     17 3H10 UNL     1      13.143  22.097   7.047  1.00  0.00     0.274 HD
ATOM     18 2H10 UNL     1      13.885  23.362   7.523  1.00  0.00     0.274 HD
ATOM     19 1H10 UNL     1      12.432  22.979   8.305  1.00  0.00     0.274 HD
ENDBRANCH  15  16
ENDBRANCH  14  15
ENDBRANCH   9  14
ENDBRANCH   6   9
ENDBRANCH   4   5
BRANCH   4  20
HETATM   20  C11 UNL     1      12.253  18.617   5.976  1.00  0.00    -0.021 A
HETATM   21  C12 UNL     1      12.698  17.298   5.839  1.00  0.00     0.046 A
HETATM   22  C13 UNL     1      13.976  17.012   6.258  1.00  0.00     0.105 A
HETATM   23  C14 UNL     1      14.826  17.969   6.803  1.00  0.00     0.072 A
HETATM   24  C15 UNL     1      14.378  19.276   6.938  1.00  0.00     0.105 A
HETATM   25  C16 UNL     1      13.098  19.556   6.517  1.00  0.00     0.046 A
BRANCH  22  26
HETATM   26  N11 UNL     1      14.407  15.666   6.121  1.00  0.00    -0.116 N
HETATM   27  O4  UNL     1      14.381  15.129   5.010  1.00  0.00    -0.532 OA
HETATM   28  O5  UNL     1      14.845  14.962   7.197  1.00  0.00    -0.532 OA
ENDBRANCH  22  26
BRANCH  24  29
HETATM   29  N12 UNL     1      15.262  20.241   7.498  1.00  0.00    -0.116 N
HETATM   30  O6  UNL     1      15.382  21.329   6.923  1.00  0.00    -0.532 OA
HETATM   31  O7  UNL     1      15.971  20.010   8.637  1.00  0.00    -0.532 OA
ENDBRANCH  24  29
ENDBRANCH   4  20
ENDBRANCH   2   4
BRANCH   1  32
HETATM   32  C4  UNL     1      10.386  18.272   9.207  1.00  0.00     0.262 C
BRANCH  32  33
HETATM   33  C3  UNL     1      11.843  18.206   9.649  1.00  0.00     0.131 C
HETATM   34  S1  UNL     1      12.567  19.579  10.220  1.00  0.00    -0.060 SA
BRANCH  33  35
HETATM   35  N6  UNL     1      12.620  17.052   9.602  1.00  0.00    -0.277 N
ATOM     36  H6  UNL     1      13.544  17.061  10.034  1.00  0.00     0.189 HD
BRANCH  35  37
HETATM   37  N5  UNL     1      12.171  15.867   8.976  1.00  0.00    -0.240 N
HETATM   38  N4  UNL     1      12.647  14.731   9.318  1.00  0.00    -0.266 N
ATOM     39  H4  UNL     1      13.359  14.662  10.045  1.00  0.00     0.190 HD
ATOM     40  H5  UNL     1      11.461  15.919   8.246  1.00  0.00     0.208 HD
BRANCH  38  41
HETATM   41  C2  UNL     1      12.160  13.567   8.662  1.00  0.00     0.189 A
HETATM   42  C1  UNL     1      11.048  12.848   8.957  1.00  0.00     0.169 A
HETATM   43  N2  UNL     1      10.976  11.816   8.071  1.00  0.00    -0.222 N
HETATM   44  O1  UNL     1      12.017  11.909   7.263  1.00  0.00    -0.153 OA
ATOM     45  H2  UNL     1      10.251  11.099   8.038  1.00  0.00     0.198 HD
HETATM   46  N3  UNL     1      12.735  12.943   7.595  1.00  0.00    -0.221 N
ATOM     47  H3  UNL     1      13.593  13.240   7.129  1.00  0.00     0.198 HD
BRANCH  42  48
HETATM   48  N1  UNL     1      10.169  13.040   9.873  1.00  0.00    -0.381 N
ATOM     49  H12 UNL     1       9.198  12.730   9.917  1.00  0.00     0.157 HD
ATOM     50  H11 UNL     1      10.367  13.559  10.729  1.00  0.00     0.157 HD
ENDBRANCH  42  48
ENDBRANCH  38  41
ENDBRANCH  35  37
ENDBRANCH  33  35
ENDBRANCH  32  33
BRANCH  32  51
HETATM   51  C17 UNL     1       9.699  17.194   9.984  1.00  0.00     0.249 C
BRANCH  51  52
HETATM   52  N13 UNL     1       8.487  16.737   9.310  1.00  0.00    -0.070 N
ATOM     53 3H13 UNL     1       7.655  17.175   9.703  1.00  0.00     0.275 HD
ATOM     54 2H13 UNL     1       8.427  17.105   8.361  1.00  0.00     0.275 HD
ATOM     55 1H13 UNL     1       8.414  15.719   9.321  1.00  0.00     0.275 HD
ENDBRANCH  51  52
BRANCH  51  56
HETATM   56  C18 UNL     1       9.289  17.621  11.366  1.00  0.00     0.200 C
BRANCH  56  57
HETATM   57  O8  UNL     1       8.832  18.928  11.339  1.00  0.00    -0.399 OA
ATOM     58  H8  UNL     1       7.897  18.947  11.508  1.00  0.00     0.209 HD
ENDBRANCH  56  57
ENDBRANCH  51  56
ENDBRANCH  32  51
ENDBRANCH   1  32
TORSDOF 20
ENDMDL