MODEL 1
REMARK VINA RESULT: -7.023285603      0.000      0.000
REMARK  23 active torsions:
REMARK  status: ('A' for Active; 'I' for Inactive)
REMARK    1  A    between atoms: N1_2  and  C2_3
REMARK    2  A    between atoms: N1_2  and  C14_46
REMARK    3  A    between atoms: C2_3  and  C3_4
REMARK    4  A    between atoms: C3_4  and  O1_5
REMARK    5  A    between atoms: C4_7  and  C5_8
REMARK    6  A    between atoms: C5_8  and  N2_9
REMARK    7  A    between atoms: C5_8  and  C6_15
REMARK    8  A    between atoms: N2_9  and  N3_11
REMARK    9  A    between atoms: N3_11  and  N4_12
REMARK   10  A    between atoms: C6_15  and  N5_16
REMARK   11  A    between atoms: C6_15  and  C11_32
REMARK   12  A    between atoms: N5_16  and  O2_17
REMARK   13  A    between atoms: O2_17  and  C7_18
REMARK   14  A    between atoms: C7_18  and  C8_19
REMARK   15  A    between atoms: C8_19  and  O3_20
REMARK   16  A    between atoms: C8_19  and  C9_22
REMARK   17  A    between atoms: C9_22  and  N6_23
REMARK   18  A    between atoms: C9_22  and  C10_27
REMARK   19  A    between atoms: C10_27  and  O4_28
REMARK   20  A    between atoms: C10_27  and  O5_30
REMARK   21  A    between atoms: C12_37  and  O6_38
REMARK   22  A    between atoms: C13_40  and  N9_41
REMARK   23  A    between atoms: C14_46  and  C15_47
ROOT
HETATM    1  C6  UNL     1       9.384  16.949   9.058  1.00  0.00     0.204 C
ENDROOT
BRANCH   1   2
HETATM    2  C5  UNL     1       9.962  17.733  10.236  1.00  0.00     0.168 C
BRANCH   2   3
HETATM    3  C4  UNL     1      10.585  18.995   9.846  1.00  0.00     0.036 C
HETATM    4  C3  UNL     1      11.888  19.086   9.717  1.00  0.00     0.070 C
BRANCH   4   5
HETATM    5  C2  UNL     1      12.568  20.358   9.321  1.00  0.00     0.335 C
BRANCH   5   6
HETATM    6  N1  UNL     1      13.807  20.440  10.025  1.00  0.00     0.095 N
HETATM    7  C1  UNL     1      13.774  21.240  11.203  1.00  0.00     0.310 C
BRANCH   6   8
HETATM    8  C14 UNL     1      14.950  20.652   9.185  1.00  0.00     0.330 C
BRANCH   8   9
HETATM    9  C15 UNL     1      16.127  19.867   9.560  1.00  0.00     0.053 A
HETATM   10  C16 UNL     1      15.937  18.638  10.158  1.00  0.00     0.115 A
HETATM   11  N11 UNL     1      16.992  17.865  10.529  1.00  0.00    -0.364 N
HETATM   12  C17 UNL     1      18.254  18.266  10.328  1.00  0.00     0.049 A
ATOM     13  H11 UNL     1      16.820  16.961  10.970  1.00  0.00     0.165 HD
HETATM   14  C18 UNL     1      18.453  19.501   9.727  1.00  0.00     0.035 A
HETATM   15  C21 UNL     1      19.447  17.490  10.698  1.00  0.00     0.173 C
HETATM   16  N12 UNL     1      17.400  20.255   9.366  1.00  0.00    -0.359 N
HETATM   17  C19 UNL     1      19.870  19.906   9.528  1.00  0.00     0.078 C
ATOM     18  H12 UNL     1      17.573  21.159   8.926  1.00  0.00     0.165 HD
HETATM   19  C20 UNL     1      20.555  19.636  10.874  1.00  0.00     0.120 C
HETATM   20  N13 UNL     1      20.533  18.251  11.227  1.00  0.00    -0.416 N
ATOM     21  H13 UNL     1      21.250  17.833  11.820  1.00  0.00     0.153 HD
ENDBRANCH   8   9
ENDBRANCH   6   8
ENDBRANCH   5   6
ENDBRANCH   4   5
BRANCH   4  22
HETATM   22  O1  UNL     1      12.660  17.960   9.957  1.00  0.00    -0.363 OA
ATOM     23  H1  UNL     1      12.230  17.155  10.219  1.00  0.00     0.217 HD
ENDBRANCH   4  22
ENDBRANCH   2   3
BRANCH   2  24
HETATM   24  N2  UNL     1       8.856  18.064  11.144  1.00  0.00    -0.242 N
ATOM     25  H2  UNL     1       7.897  17.876  10.854  1.00  0.00     0.197 HD
BRANCH  24  26
HETATM   26  N3  UNL     1       9.068  18.566  12.252  1.00  0.00    -0.248 NA
BRANCH  26  27
HETATM   27  N4  UNL     1       9.247  18.749  13.449  1.00  0.00    -0.261 N
ATOM     28  H42 UNL     1       9.971  19.452  13.298  1.00  0.00     0.193 HD
ATOM     29  H41 UNL     1       9.199  18.711  14.467  1.00  0.00     0.193 HD
ENDBRANCH  26  27
ENDBRANCH  24  26
ENDBRANCH   2  24
ENDBRANCH   1   2
BRANCH   1  30
HETATM   30  N5  UNL     1       9.916  15.606   9.183  1.00  0.00    -0.086 NA
BRANCH  30  31
HETATM   31  O2  UNL     1      11.184  15.577   9.595  1.00  0.00    -0.283 OA
BRANCH  31  32
HETATM   32  C7  UNL     1      11.687  14.302   9.497  1.00  0.00     0.229 C
BRANCH  32  33
HETATM   33  C8  UNL     1      12.321  13.978   8.181  1.00  0.00     0.179 C
BRANCH  33  34
HETATM   34  O3  UNL     1      11.483  14.443   7.170  1.00  0.00    -0.391 OA
ATOM     35  H3  UNL     1      11.838  15.263   6.846  1.00  0.00     0.210 HD
ENDBRANCH  33  34
BRANCH  33  36
HETATM   36  C9  UNL     1      13.675  14.571   7.983  1.00  0.00     0.268 C
BRANCH  36  37
HETATM   37  N6  UNL     1      13.713  15.998   8.192  1.00  0.00    -0.068 N
ATOM     38  H63 UNL     1      12.842  16.325   8.611  1.00  0.00     0.275 HD
ATOM     39  H62 UNL     1      14.362  16.237   8.942  1.00  0.00     0.275 HD
ATOM     40  H61 UNL     1      13.928  16.527   7.346  1.00  0.00     0.275 HD
ENDBRANCH  36  37
BRANCH  36  41
HETATM   41  C10 UNL     1      14.297  14.175   6.660  1.00  0.00     0.286 C
BRANCH  41  42
HETATM   42  O4  UNL     1      13.762  12.980   6.183  1.00  0.00    -0.369 OA
ATOM     43  H4  UNL     1      13.311  13.107   5.358  1.00  0.00     0.212 HD
ENDBRANCH  41  42
BRANCH  41  44
HETATM   44  O5  UNL     1      14.154  15.129   5.680  1.00  0.00    -0.369 OA
ATOM     45  H5  UNL     1      14.417  14.829   4.819  1.00  0.00     0.212 HD
ENDBRANCH  41  44
ENDBRANCH  36  41
ENDBRANCH  33  36
ENDBRANCH  32  33
ENDBRANCH  31  32
ENDBRANCH  30  31
ENDBRANCH   1  30
BRANCH   1  46
HETATM   46  C11 UNL     1       9.719  17.571   7.770  1.00  0.00     0.122 A
HETATM   47  N7  UNL     1       8.893  18.437   7.150  1.00  0.00    -0.285 N
HETATM   48  N8  UNL     1       9.140  19.014   6.007  1.00  0.00    -0.276 N
ATOM     49  H7  UNL     1       8.009  18.657   7.609  1.00  0.00     0.188 HD
HETATM   50  C12 UNL     1      10.301  18.731   5.395  1.00  0.00     0.200 A
ATOM     51  H8  UNL     1       8.470  19.661   5.591  1.00  0.00     0.189 HD
HETATM   52  C13 UNL     1      11.192  17.858   5.965  1.00  0.00     0.153 A
HETATM   53  N10 UNL     1      10.888  17.298   7.131  1.00  0.00    -0.326 N
ATOM     54  H10 UNL     1      11.548  16.648   7.558  1.00  0.00     0.169 HD
BRANCH  50  55
HETATM   55  O6  UNL     1      10.622  19.314   4.173  1.00  0.00    -0.342 OA
ATOM     56  H6  UNL     1      11.249  20.027   4.124  1.00  0.00     0.219 HD
ENDBRANCH  50  55
BRANCH  52  57
HETATM   57  N9  UNL     1      12.300  17.594   5.369  1.00  0.00    -0.382 N
ATOM     58  H92 UNL     1      12.413  16.743   4.818  1.00  0.00     0.157 HD
ATOM     59  H91 UNL     1      13.085  18.240   5.445  1.00  0.00     0.157 HD
ENDBRANCH  52  57
ENDBRANCH   1  46
TORSDOF 23
ENDMDL