MODEL 4
REMARK VINA RESULT: -6.452547199      2.913      6.557
REMARK  20 active torsions:
REMARK  status: ('A' for Active; 'I' for Inactive)
REMARK    1  A    between atoms: N1_1  and  N2_4
REMARK    2  A    between atoms: N3_6  and  N4_8
REMARK    3  A    between atoms: N4_8  and  C1_10
REMARK    4  A    between atoms: C1_10  and  O1_11
REMARK    5  A    between atoms: C1_10  and  C2_13
REMARK    6  A    between atoms: C3_14  and  N5_15
REMARK       I    between atoms: N5_15  and  C4_17
REMARK    7  A    between atoms: C5_24  and  C6_25
REMARK    8  A    between atoms: C6_25  and  N8_26
REMARK    9  A    between atoms: C6_25  and  C13_46
REMARK   10  A    between atoms: N8_26  and  C7_28
REMARK   11  A    between atoms: C7_28  and  N9_29
REMARK   12  A    between atoms: C7_28  and  C8_33
REMARK   13  A    between atoms: C8_33  and  N10_34
REMARK   14  A    between atoms: C8_33  and  C9_38
REMARK   15  A    between atoms: C9_38  and  S1_39
REMARK   16  A    between atoms: S1_39  and  C10_40
REMARK   17  A    between atoms: C10_40  and  C11_41
REMARK   18  A    between atoms: C11_41  and  C12_43
REMARK   19  A    between atoms: C15_49  and  N11_50
REMARK   20  A    between atoms: C16_55  and  O7_56
ROOT
HETATM    1  C6  UNL     1      13.932  16.287   8.166  1.00  0.00     0.184 C
ENDROOT
BRANCH   1   2
HETATM    2  C5  UNL     1      13.229  17.215   7.234  1.00  0.00     0.088 A
HETATM    3  N7  UNL     1      13.746  17.627   6.082  1.00  0.00    -0.298 N
HETATM    4  N6  UNL     1      13.107  18.436   5.277  1.00  0.00    -0.284 N
ATOM      5  H7  UNL     1      14.675  17.300   5.815  1.00  0.00     0.187 HD
HETATM    6  C3  UNL     1      11.858  18.936   5.534  1.00  0.00     0.142 A
ATOM      7  H6  UNL     1      13.565  18.712   4.408  1.00  0.00     0.188 HD
HETATM    8  C2  UNL     1      11.247  18.573   6.688  1.00  0.00     0.097 A
HETATM    9  C16 UNL     1      11.943  17.686   7.572  1.00  0.00     0.110 A
BRANCH   6  10
HETATM   10  N5  UNL     1      11.333  19.758   4.505  1.00  0.00    -0.285 N
HETATM   11  C4  UNL     1      11.754  21.118   4.367  1.00  0.00     0.289 C
HETATM   12  O2  UNL     1      12.564  21.606   5.158  1.00  0.00    -0.629 OA
HETATM   13  O3  UNL     1      11.245  21.885   3.339  1.00  0.00    -0.629 OA
ATOM     14  H5  UNL     1      10.647  19.375   3.855  1.00  0.00     0.173 HD
ENDBRANCH   6  10
BRANCH   8  15
HETATM   15  C1  UNL     1       9.944  19.034   7.085  1.00  0.00     0.173 C
BRANCH  15  16
HETATM   16  N4  UNL     1       9.391  20.225   7.505  1.00  0.00    -0.264 N
ATOM     17  H4  UNL     1       8.862  20.809   6.856  1.00  0.00     0.190 HD
BRANCH  16  18
HETATM   18  N3  UNL     1       9.576  20.637   8.903  1.00  0.00    -0.227 N
HETATM   19  N2  UNL     1       9.822  19.732   9.727  1.00  0.00    -0.235 N
ATOM     20  H2  UNL     1      10.631  19.262   9.319  1.00  0.00     0.209 HD
ATOM     21  H3  UNL     1       9.506  21.614   9.186  1.00  0.00     0.210 HD
BRANCH  19  22
HETATM   22  N1  UNL     1       9.625  19.094  10.763  1.00  0.00    -0.330 N
ATOM     23  H12 UNL     1      10.570  19.060  11.145  1.00  0.00     0.178 HD
ATOM     24  H11 UNL     1       9.043  18.592  11.434  1.00  0.00     0.178 HD
ENDBRANCH  19  22
ENDBRANCH  16  18
ENDBRANCH  15  16
BRANCH  15  25
HETATM   25  O1  UNL     1       9.035  18.073   7.041  1.00  0.00    -0.344 OA
ATOM     26  H1  UNL     1       8.582  18.066   6.206  1.00  0.00     0.219 HD
ENDBRANCH  15  25
ENDBRANCH   8  15
BRANCH   9  27
HETATM   27  O7  UNL     1      11.439  17.271   8.718  1.00  0.00    -0.357 OA
ATOM     28  H7  UNL     1      11.890  16.663   9.292  1.00  0.00     0.217 HD
ENDBRANCH   9  27
ENDBRANCH   1   2
BRANCH   1  29
HETATM   29  N8  UNL     1      14.139  16.844   9.445  1.00  0.00    -0.379 N
ATOM     30  H8  UNL     1      13.679  16.420  10.250  1.00  0.00     0.156 HD
BRANCH  29  31
HETATM   31  C7  UNL     1      14.953  17.959   9.641  1.00  0.00     0.309 C
BRANCH  31  32
HETATM   32  N9  UNL     1      16.062  17.707  10.578  1.00  0.00    -0.057 N
ATOM     33  H93 UNL     1      16.556  16.848  10.334  1.00  0.00     0.276 HD
ATOM     34  H92 UNL     1      16.816  18.379  10.438  1.00  0.00     0.276 HD
ATOM     35  H91 UNL     1      15.765  17.691  11.553  1.00  0.00     0.276 HD
ENDBRANCH  31  32
BRANCH  31  36
HETATM   36  C8  UNL     1      14.329  19.264  10.008  1.00  0.00     0.242 C
BRANCH  36  37
HETATM   37  N10 UNL     1      13.800  20.043   8.936  1.00  0.00    -0.071 N
ATOM     38 3H10 UNL     1      13.884  21.035   9.160  1.00  0.00     0.274 HD
ATOM     39 2H10 UNL     1      14.419  19.980   8.128  1.00  0.00     0.274 HD
ATOM     40 1H10 UNL     1      12.842  19.837   8.652  1.00  0.00     0.274 HD
ENDBRANCH  36  37
BRANCH  36  41
HETATM   41  C9  UNL     1      15.289  20.105  10.872  1.00  0.00     0.111 C
BRANCH  41  42
HETATM   42  S1  UNL     1      15.856  21.574  10.021  1.00  0.00    -0.159 SA
BRANCH  42  43
HETATM   43  C10 UNL     1      17.480  21.376   9.250  1.00  0.00     0.164 C
BRANCH  43  44
HETATM   44  C11 UNL     1      17.543  20.230   8.342  1.00  0.00     0.234 C
HETATM   45  O4  UNL     1      18.114  19.179   8.691  1.00  0.00    -0.285 OA
BRANCH  44  46
HETATM   46  C12 UNL     1      16.939  20.311   7.029  1.00  0.00     0.247 C
HETATM   47  O5  UNL     1      17.346  21.087   6.122  1.00  0.00    -0.642 OA
HETATM   48  O6  UNL     1      15.840  19.504   6.703  1.00  0.00    -0.642 OA
ENDBRANCH  44  46
ENDBRANCH  43  44
ENDBRANCH  42  43
ENDBRANCH  41  42
ENDBRANCH  36  41
ENDBRANCH  31  36
ENDBRANCH  29  31
ENDBRANCH   1  29
BRANCH   1  49
HETATM   49  C13 UNL     1      13.112  14.994   8.265  1.00  0.00     0.046 A
HETATM   50  C14 UNL     1      12.980  14.151   7.195  1.00  0.00     0.080 A
HETATM   51  S2  UNL     1      11.994  12.911   7.828  1.00  0.00    -0.064 SA
HETATM   52  C15 UNL     1      11.805  13.526   9.403  1.00  0.00     0.142 A
HETATM   53  N12 UNL     1      12.506  14.657   9.380  1.00  0.00    -0.338 N
ATOM     54  H12 UNL     1      12.571  15.249  10.209  1.00  0.00     0.168 HD
BRANCH  52  55
HETATM   55  N11 UNL     1      11.132  13.026  10.421  1.00  0.00    -0.380 N
ATOM     56 2H11 UNL     1      10.881  12.049  10.574  1.00  0.00     0.158 HD
ATOM     57 1H11 UNL     1      10.740  13.502  11.234  1.00  0.00     0.158 HD
ENDBRANCH  52  55
ENDBRANCH   1  49
TORSDOF 20
ENDMDL