MODEL 5
REMARK VINA RESULT: -8.603992137      0.920      1.190
REMARK  13 active torsions:
REMARK  status: ('A' for Active; 'I' for Inactive)
REMARK       I    between atoms: N1_2  and  C2_4
REMARK       I    between atoms: C2_4  and  N10_42
REMARK    1  A    between atoms: N2_5  and  C3_7
REMARK    2  A    between atoms: C3_7  and  C5_9
REMARK    3  A    between atoms: C5_9  and  C6_10
REMARK    4  A    between atoms: C6_10  and  C7_11
REMARK    5  A    between atoms: C8_14  and  C9_15
REMARK    6  A    between atoms: C9_15  and  C10_16
REMARK    7  A    between atoms: C10_16  and  C11_17
REMARK    8  A    between atoms: C11_17  and  C12_18
REMARK       I    between atoms: C12_18  and  N4_20
REMARK    9  A    between atoms: C18_29  and  C19_30
REMARK   10  A    between atoms: C19_30  and  C20_31
REMARK   11  A    between atoms: C20_31  and  C21_32
REMARK   12  A    between atoms: C21_32  and  N6_33
REMARK   13  A    between atoms: N10_42  and  C25_44
ROOT
HETATM    1  C7  UNL     1      -8.215  16.036  26.898  1.00  0.00     0.210 C
HETATM    2  N3  UNL     1      -7.141  17.085  27.126  1.00  0.00    -0.364 N
ATOM      3  H3  UNL     1      -6.725  17.134  28.056  1.00  0.00     0.162 HD
HETATM    4  C8  UNL     1      -6.700  17.940  26.221  1.00  0.00     0.075 C
HETATM    5  C17 UNL     1      -6.974  18.242  24.830  1.00  0.00     0.264 C
HETATM    6  O2  UNL     1      -6.402  19.279  24.378  1.00  0.00    -0.266 OA
HETATM    7  N5  UNL     1      -7.779  17.607  23.816  1.00  0.00    -0.343 N
ATOM      8  H5  UNL     1      -7.295  17.561  22.920  1.00  0.00     0.163 HD
HETATM    9  C18 UNL     1      -9.090  17.021  23.747  1.00  0.00     0.177 C
HETATM   10  C23 UNL     1      -9.767  17.039  25.082  1.00  0.00     0.244 C
HETATM   11  O3  UNL     1     -10.983  17.281  25.064  1.00  0.00    -0.271 OA
HETATM   12  N9  UNL     1      -9.297  16.828  26.437  1.00  0.00    -0.330 N
HETATM   13  C24 UNL     1     -10.029  17.620  27.380  1.00  0.00     0.155 C
ENDROOT
BRANCH   1  14
HETATM   14  C6  UNL     1      -8.264  15.227  28.103  1.00  0.00     0.021 C
BRANCH  14  15
HETATM   15  C5  UNL     1      -7.939  15.662  29.447  1.00  0.00     0.025 C
BRANCH  15  16
HETATM   16  C3  UNL     1      -8.845  16.385  30.362  1.00  0.00     0.022 C
HETATM   17  C4  UNL     1      -8.384  17.788  30.595  1.00  0.00     0.068 C
BRANCH  16  18
HETATM   18  N2  UNL     1      -9.322  15.676  31.500  1.00  0.00    -0.196 N
HETATM   19  C2  UNL     1     -10.478  15.126  31.519  1.00  0.00     0.674 C
HETATM   20  N1  UNL     1     -10.937  14.420  32.669  1.00  0.00    -0.231 N
HETATM   21  N10 UNL     1     -11.374  15.186  30.398  1.00  0.00    -0.222 N
HETATM   22  C1  UNL     1     -12.005  14.967  33.502  1.00  0.00     0.165 C
ATOM     23  H1  UNL     1     -10.515  13.524  32.914  1.00  0.00     0.177 HD
ATOM     24  H10 UNL     1     -11.934  16.030  30.274  1.00  0.00     0.178 HD
ATOM     25  H2  UNL     1      -8.726  15.604  32.326  1.00  0.00     0.184 HD
BRANCH  21  26
HETATM   26  C25 UNL     1     -11.525  14.125  29.444  1.00  0.00     0.099 C
HETATM   27  C26 UNL     1     -12.775  13.299  29.665  1.00  0.00     0.026 C
HETATM   28  C27 UNL     1     -13.889  14.178  29.173  1.00  0.00     0.002 C
HETATM   29  C28 UNL     1     -13.246  15.282  28.354  1.00  0.00     0.002 C
HETATM   30  C29 UNL     1     -11.832  14.777  28.096  1.00  0.00     0.026 C
ENDBRANCH  21  26
ENDBRANCH  16  18
ENDBRANCH  15  16
ENDBRANCH  14  15
ENDBRANCH   1  14
BRANCH   4  31
HETATM   31  C9  UNL     1      -5.634  18.824  26.800  1.00  0.00     0.063 C
BRANCH  31  32
HETATM   32  C10 UNL     1      -4.348  18.105  27.019  1.00  0.00     0.015 C
BRANCH  32  33
HETATM   33  C11 UNL     1      -4.032  17.228  25.839  1.00  0.00     0.103 C
BRANCH  33  34
HETATM   34  C12 UNL     1      -3.084  17.823  24.893  1.00  0.00     0.219 C
HETATM   35  O1  UNL     1      -3.098  19.036  24.571  1.00  0.00    -0.273 OA
HETATM   36  N4  UNL     1      -2.103  16.936  24.325  1.00  0.00    -0.352 N
HETATM   37  C13 UNL     1      -1.968  15.533  24.600  1.00  0.00     0.126 C
HETATM   38  C16 UNL     1      -1.095  17.364  23.371  1.00  0.00     0.126 C
HETATM   39  C14 UNL     1      -0.826  15.057  23.739  1.00  0.00     0.021 C
HETATM   40  C15 UNL     1      -0.789  16.077  22.632  1.00  0.00     0.021 C
ENDBRANCH  33  34
ENDBRANCH  32  33
ENDBRANCH  31  32
ENDBRANCH   4  31
BRANCH   9  41
HETATM   41  C19 UNL     1      -9.036  15.639  23.171  1.00  0.00     0.036 C
BRANCH  41  42
HETATM   42  C20 UNL     1      -9.757  15.540  21.868  1.00  0.00     0.022 C
BRANCH  42  43
HETATM   43  C21 UNL     1      -9.332  16.603  20.881  1.00  0.00     0.122 C
BRANCH  43  44
HETATM   44  N6  UNL     1      -7.976  16.315  20.484  1.00  0.00    -0.367 N
HETATM   45  C22 UNL     1      -7.055  17.232  20.472  1.00  0.00     0.196 C
HETATM   46  N7  UNL     1      -5.712  16.905  20.070  1.00  0.00    -0.067 NA
HETATM   47  N8  UNL     1      -7.424  18.534  20.863  1.00  0.00    -0.067 NA
ATOM     48  H6  UNL     1      -7.733  15.365  20.206  1.00  0.00     0.161 HD
ENDBRANCH  43  44
ENDBRANCH  42  43
ENDBRANCH  41  42
ENDBRANCH   9  41
TORSDOF 13
ENDMDL