MODEL 3
REMARK VINA RESULT: -7.863497614      3.033     11.226
REMARK  20 active torsions:
REMARK  status: ('A' for Active; 'I' for Inactive)
REMARK    1  A    between atoms: C7_7  and  C8_8
REMARK    2  A    between atoms: C9_9  and  C10_10
REMARK    3  A    between atoms: C11_11  and  C12_12
REMARK    4  A    between atoms: C12_12  and  N1_13
REMARK    5  A    between atoms: N2_16  and  C15_17
REMARK    6  A    between atoms: C15_17  and  C16_18
REMARK    7  A    between atoms: C16_18  and  C17_19
REMARK    8  A    between atoms: C17_19  and  N3_20
REMARK    9  A    between atoms: N3_20  and  C18_22
REMARK   10  A    between atoms: C18_22  and  C19_23
REMARK   11  A    between atoms: C18_22  and  N7_31
REMARK   12  A    between atoms: C19_23  and  C20_24
REMARK   13  A    between atoms: C20_24  and  C21_25
REMARK   14  A    between atoms: C21_25  and  N4_26
REMARK   15  A    between atoms: N7_31  and  C23_32
REMARK   16  A    between atoms: C23_32  and  C24_33
REMARK   17  A    between atoms: C24_33  and  O1_34
REMARK   18  A    between atoms: C24_33  and  C25_36
REMARK   19  A    between atoms: C25_36  and  O2_37
REMARK   20  A    between atoms: C30_44  and  O4_45
ROOT
HETATM    1  N1  UNL     1      -8.058  16.022  26.901  1.00  0.00    -0.322 N
HETATM    2  C13 UNL     1      -9.135  16.857  26.458  1.00  0.00     0.148 C
HETATM    3  C14 UNL     1      -8.512  18.044  25.786  1.00  0.00     0.147 C
HETATM    4  N2  UNL     1      -7.157  18.046  26.321  1.00  0.00    -0.332 N
HETATM    5  C26 UNL     1      -6.855  16.766  26.873  1.00  0.00     0.321 C
HETATM    6  O3  UNL     1      -5.695  16.450  27.242  1.00  0.00    -0.247 OA
ENDROOT
BRANCH   4   7
HETATM    7  C15 UNL     1      -6.295  19.185  26.255  1.00  0.00     0.129 C
BRANCH   7   8
HETATM    8  C16 UNL     1      -5.272  19.191  25.184  1.00  0.00     0.039 C
BRANCH   8   9
HETATM    9  C17 UNL     1      -5.398  20.316  24.182  1.00  0.00     0.123 C
BRANCH   9  10
HETATM   10  N3  UNL     1      -6.272  19.966  23.088  1.00  0.00    -0.369 N
ATOM     11  H3  UNL     1      -7.042  20.594  22.862  1.00  0.00     0.161 HD
BRANCH  10  12
HETATM   12  C18 UNL     1      -6.108  18.767  22.298  1.00  0.00     0.150 C
BRANCH  12  13
HETATM   13  C19 UNL     1      -7.316  17.842  22.375  1.00  0.00     0.093 C
BRANCH  13  14
HETATM   14  C20 UNL     1      -7.963  17.779  21.009  1.00  0.00     0.028 C
BRANCH  14  15
HETATM   15  C21 UNL     1      -9.372  17.251  21.118  1.00  0.00     0.122 C
BRANCH  15  16
HETATM   16  N4  UNL     1      -9.331  15.849  21.433  1.00  0.00    -0.367 N
HETATM   17  C22 UNL     1     -10.014  15.411  22.426  1.00  0.00     0.196 C
HETATM   18  N5  UNL     1      -9.977  14.043  22.738  1.00  0.00    -0.067 NA
HETATM   19  N6  UNL     1     -10.805  16.281  23.215  1.00  0.00    -0.067 NA
ATOM     20  H4  UNL     1      -8.766  15.211  20.873  1.00  0.00     0.161 HD
ENDBRANCH  15  16
ENDBRANCH  14  15
ENDBRANCH  13  14
ENDBRANCH  12  13
BRANCH  12  21
HETATM   21  N7  UNL     1      -5.175  18.459  21.637  1.00  0.00    -0.406 NA
BRANCH  21  22
HETATM   22  C23 UNL     1      -4.138  18.015  20.910  1.00  0.00     0.191 C
BRANCH  22  23
HETATM   23  C24 UNL     1      -4.367  17.871  19.406  1.00  0.00     0.193 C
BRANCH  23  24
HETATM   24  O1  UNL     1      -5.473  18.558  18.970  1.00  0.00    -0.387 OA
ATOM     25  H1  UNL     1      -5.320  19.020  18.154  1.00  0.00     0.210 HD
ENDBRANCH  23  24
BRANCH  23  26
HETATM   26  C25 UNL     1      -4.599  16.389  19.146  1.00  0.00     0.202 C
BRANCH  26  27
HETATM   27  O2  UNL     1      -5.125  15.817  20.300  1.00  0.00    -0.398 OA
ATOM     28  H2  UNL     1      -5.534  14.992  20.067  1.00  0.00     0.209 HD
ENDBRANCH  26  27
ENDBRANCH  23  26
ENDBRANCH  22  23
ENDBRANCH  21  22
ENDBRANCH  12  21
ENDBRANCH  10  12
ENDBRANCH   9  10
ENDBRANCH   8   9
ENDBRANCH   7   8
ENDBRANCH   4   7
BRANCH   1  29
HETATM   29  C12 UNL     1      -8.186  14.646  27.312  1.00  0.00     0.222 C
BRANCH  29  30
HETATM   30  C11 UNL     1      -9.240  14.498  28.341  1.00  0.00    -0.081 C
HETATM   31  C10 UNL     1     -10.104  14.401  29.181  1.00  0.00    -0.063 C
BRANCH  31  32
HETATM   32  C9  UNL     1     -11.137  14.314  30.186  1.00  0.00     0.046 A
HETATM   33  C8  UNL     1     -10.952  14.885  31.442  1.00  0.00     0.065 A
HETATM   34  N8  UNL     1     -11.919  14.813  32.388  1.00  0.00    -0.330 N
HETATM   35  C30 UNL     1     -13.063  14.175  32.085  1.00  0.00     0.148 A
HETATM   36  C31 UNL     1     -11.671  15.425  33.673  1.00  0.00     0.158 C
HETATM   37  C28 UNL     1     -13.287  13.592  30.843  1.00  0.00    -0.009 A
HETATM   38  C27 UNL     1     -12.314  13.664  29.891  1.00  0.00     0.034 A
HETATM   39  C29 UNL     1     -14.596  12.909  30.614  1.00  0.00     0.052 C
BRANCH  33  40
HETATM   40  C7  UNL     1      -9.699  15.563  31.740  1.00  0.00    -0.002 A
HETATM   41  C2  UNL     1      -9.438  16.809  31.211  1.00  0.00    -0.050 A
HETATM   42  C1  UNL     1     -10.432  17.474  30.330  1.00  0.00     0.049 C
HETATM   43  C3  UNL     1      -8.235  17.464  31.497  1.00  0.00     0.007 A
HETATM   44  C4  UNL     1      -7.293  16.870  32.313  1.00  0.00     0.001 A
HETATM   45  C5  UNL     1      -7.581  15.622  32.827  1.00  0.00     0.001 A
HETATM   46  C6  UNL     1      -8.767  14.964  32.553  1.00  0.00     0.014 A
ENDBRANCH  33  40
BRANCH  35  47
HETATM   47  O4  UNL     1     -14.030  14.121  33.078  1.00  0.00    -0.346 OA
ATOM     48  H4  UNL     1     -14.655  14.828  33.185  1.00  0.00     0.219 HD
ENDBRANCH  35  47
ENDBRANCH  31  32
ENDBRANCH  29  30
ENDBRANCH   1  29
TORSDOF 20
ENDMDL