MODEL 3
REMARK VINA RESULT: -8.895066128      1.983      5.504
REMARK  15 active torsions:
REMARK  status: ('A' for Active; 'I' for Inactive)
REMARK    1  A    between atoms: C3_3  and  C4_4
REMARK    2  A    between atoms: C4_4  and  N1_5
REMARK       I    between atoms: N1_5  and  C5_7
REMARK    3  A    between atoms: C5_7  and  C6_9
REMARK    4  A    between atoms: N2_13  and  C10_14
REMARK    5  A    between atoms: C10_14  and  O2_15
REMARK    6  A    between atoms: C10_14  and  C11_17
REMARK       I    between atoms: N3_22  and  C16_23
REMARK    7  A    between atoms: C16_23  and  C17_25
REMARK    8  A    between atoms: C17_25  and  C18_26
REMARK    9  A    between atoms: C17_25  and  N4_28
REMARK       I    between atoms: N4_28  and  C20_30
REMARK   10  A    between atoms: C20_30  and  C21_32
REMARK   11  A    between atoms: C21_32  and  C22_33
REMARK   12  A    between atoms: C22_33  and  C23_34
REMARK   13  A    between atoms: C27_41  and  C28_42
REMARK   14  A    between atoms: C28_42  and  C29_43
REMARK   15  A    between atoms: C29_43  and  C30_44
ROOT
HETATM    1  C1  UNL     1     -12.232  14.414  35.840  1.00  0.00     0.097 C
HETATM    2  C2  UNL     1     -11.732  15.260  34.975  1.00  0.00    -0.186 C
HETATM    3  C3  UNL     1     -11.172  16.044  34.078  1.00  0.00     0.099 C
ENDROOT
BRANCH   3   4
HETATM    4  C4  UNL     1     -10.738  15.378  32.841  1.00  0.00     0.134 C
BRANCH   4   5
HETATM    5  N1  UNL     1     -11.687  15.435  31.783  1.00  0.00    -0.358 N
HETATM    6  C5  UNL     1     -12.593  14.355  31.487  1.00  0.00     0.240 C
HETATM    7  O1  UNL     1     -12.492  13.349  32.233  1.00  0.00    -0.271 OA
ATOM      8  H1  UNL     1     -11.726  16.276  31.208  1.00  0.00     0.162 HD
BRANCH   6   9
HETATM    9  C6  UNL     1     -13.582  14.356  30.419  1.00  0.00     0.178 C
HETATM   10  C7  UNL     1     -14.473  13.142  30.534  1.00  0.00     0.037 C
HETATM   11  C8  UNL     1     -13.597  12.091  29.887  1.00  0.00     0.022 C
HETATM   12  C9  UNL     1     -13.036  12.881  28.700  1.00  0.00     0.126 C
HETATM   13  N2  UNL     1     -12.958  14.248  29.086  1.00  0.00    -0.350 N
BRANCH  13  14
HETATM   14  C10 UNL     1     -12.433  15.342  28.405  1.00  0.00     0.138 C
BRANCH  14  15
HETATM   15  O2  UNL     1     -13.298  16.347  28.327  1.00  0.00    -0.348 OA
ATOM     16  H2  UNL     1     -12.955  17.077  27.826  1.00  0.00     0.219 HD
ENDBRANCH  14  15
BRANCH  14  17
HETATM   17  C11 UNL     1     -11.151  15.591  27.776  1.00  0.00     0.161 C
HETATM   18  C12 UNL     1     -11.232  15.539  26.249  1.00  0.00     0.034 C
HETATM   19  C13 UNL     1     -10.273  16.524  25.629  1.00  0.00     0.004 C
HETATM   20  C14 UNL     1     -10.599  17.908  26.080  1.00  0.00     0.020 C
HETATM   21  C15 UNL     1     -10.362  17.986  27.575  1.00  0.00     0.127 C
HETATM   22  N3  UNL     1     -10.325  16.671  28.210  1.00  0.00    -0.338 N
HETATM   23  C16 UNL     1      -9.378  16.504  29.264  1.00  0.00     0.243 C
HETATM   24  O3  UNL     1      -9.329  15.340  29.819  1.00  0.00    -0.271 OA
BRANCH  23  25
HETATM   25  C17 UNL     1      -8.449  17.524  29.772  1.00  0.00     0.176 C
BRANCH  25  26
HETATM   26  C18 UNL     1      -8.311  17.517  31.252  1.00  0.00     0.030 C
HETATM   27  C19 UNL     1      -6.961  16.910  31.677  1.00  0.00     0.007 C
ENDBRANCH  25  26
BRANCH  25  28
HETATM   28  N4  UNL     1      -7.081  17.232  29.245  1.00  0.00    -0.348 N
HETATM   29  C20 UNL     1      -6.613  17.922  28.104  1.00  0.00     0.218 C
HETATM   30  O4  UNL     1      -7.350  18.767  27.536  1.00  0.00    -0.274 OA
ATOM     31  H4  UNL     1      -6.489  16.541  29.706  1.00  0.00     0.163 HD
BRANCH  29  32
HETATM   32  C21 UNL     1      -5.255  17.626  27.591  1.00  0.00     0.105 C
BRANCH  32  33
HETATM   33  C22 UNL     1      -5.362  17.089  26.175  1.00  0.00     0.040 C
BRANCH  33  34
HETATM   34  C23 UNL     1      -4.749  18.066  25.221  1.00  0.00     0.037 C
HETATM   35  C24 UNL     1      -3.256  17.822  25.107  1.00  0.00     0.039 C
HETATM   36  N5  UNL     1      -5.036  19.430  25.532  1.00  0.00    -0.352 N
HETATM   37  C25 UNL     1      -5.050  20.167  24.319  1.00  0.00     0.218 C
ATOM     38  H5  UNL     1      -5.202  19.810  26.465  1.00  0.00     0.163 HD
HETATM   39  O5  UNL     1      -5.288  21.365  24.085  1.00  0.00    -0.274 OA
HETATM   40  C26 UNL     1      -4.695  19.187  23.217  1.00  0.00     0.113 C
HETATM   41  C27 UNL     1      -5.342  17.905  23.793  1.00  0.00     0.045 C
BRANCH  41  42
HETATM   42  C28 UNL     1      -6.795  18.094  23.851  1.00  0.00    -0.014 C
BRANCH  42  43
HETATM   43  C29 UNL     1      -7.721  17.345  22.981  1.00  0.00     0.067 C
BRANCH  43  44
HETATM   44  C30 UNL     1      -7.668  17.391  21.542  1.00  0.00     0.254 C
HETATM   45  N6  UNL     1      -8.613  18.158  20.792  1.00  0.00    -0.058 NA
HETATM   46  O6  UNL     1      -6.787  16.743  20.869  1.00  0.00    -0.272 OA
ENDBRANCH  43  44
ENDBRANCH  42  43
ENDBRANCH  41  42
ENDBRANCH  33  34
ENDBRANCH  32  33
ENDBRANCH  29  32
ENDBRANCH  25  28
ENDBRANCH  23  25
ENDBRANCH  14  17
ENDBRANCH  13  14
ENDBRANCH   6   9
ENDBRANCH   4   5
ENDBRANCH   3   4
TORSDOF 15
ENDMDL