MODEL 5
REMARK VINA RESULT: -8.365164083      2.604     11.208
REMARK  12 active torsions:
REMARK  status: ('A' for Active; 'I' for Inactive)
REMARK       I    between atoms: N1_4  and  C4_5
REMARK    1  A    between atoms: C4_5  and  C5_7
REMARK    2  A    between atoms: C9_11  and  C10_12
REMARK    3  A    between atoms: C10_12  and  C11_13
REMARK    4  A    between atoms: C15_20  and  C16_21
REMARK    5  A    between atoms: C16_21  and  C17_22
REMARK    6  A    between atoms: C17_22  and  C18_23
REMARK    7  A    between atoms: C18_23  and  N3_24
REMARK    8  A    between atoms: C23_34  and  C24_35
REMARK       I    between atoms: C24_35  and  N7_37
REMARK    9  A    between atoms: N7_37  and  C25_39
REMARK   10  A    between atoms: C25_39  and  C26_40
REMARK   11  A    between atoms: C26_40  and  C27_41
REMARK   12  A    between atoms: C27_41  and  N8_42
ROOT
HETATM    1  C5  UNL     1      -6.148  16.943  26.460  1.00  0.00     0.180 C
HETATM    2  C6  UNL     1      -4.937  17.399  27.264  1.00  0.00     0.037 C
HETATM    3  C7  UNL     1      -4.286  18.471  26.357  1.00  0.00     0.029 C
HETATM    4  C8  UNL     1      -4.545  17.812  25.036  1.00  0.00     0.101 C
HETATM    5  C9  UNL     1      -4.088  18.613  23.837  1.00  0.00     0.101 C
HETATM    6  C14 UNL     1      -5.064  19.767  23.840  1.00  0.00     0.228 C
HETATM    7  O2  UNL     1      -4.772  20.803  24.441  1.00  0.00    -0.273 OA
HETATM    8  N2  UNL     1      -6.333  19.695  23.165  1.00  0.00    -0.322 N
ATOM      9  H2  UNL     1      -6.620  20.524  22.644  1.00  0.00     0.169 HD
HETATM   10  C15 UNL     1      -7.246  18.571  23.144  1.00  0.00     0.099 C
HETATM   11  C20 UNL     1      -6.904  17.519  24.098  1.00  0.00     0.271 C
HETATM   12  O3  UNL     1      -7.628  16.487  24.017  1.00  0.00    -0.266 OA
HETATM   13  N6  UNL     1      -5.909  17.455  25.093  1.00  0.00    -0.328 N
ENDROOT
BRANCH   1  14
HETATM   14  C4  UNL     1      -7.309  17.607  27.106  1.00  0.00     0.243 C
HETATM   15  N1  UNL     1      -8.507  16.981  27.431  1.00  0.00    -0.346 N
HETATM   16  C3  UNL     1      -9.572  17.725  28.057  1.00  0.00     0.160 C
HETATM   17  C21 UNL     1      -8.747  15.580  27.164  1.00  0.00     0.127 C
HETATM   18  C2  UNL     1     -10.781  16.893  28.342  1.00  0.00    -0.058 C
HETATM   19  C1  UNL     1     -11.353  17.019  29.528  1.00  0.00     0.017 C
HETATM   20  C23 UNL     1     -11.240  15.997  27.261  1.00  0.00     0.109 C
HETATM   21  C22 UNL     1     -10.091  15.372  26.540  1.00  0.00     0.038 C
HETATM   22  O1  UNL     1      -7.173  18.833  27.369  1.00  0.00    -0.271 OA
BRANCH  20  23
HETATM   23  C24 UNL     1     -12.148  14.959  27.857  1.00  0.00     0.226 C
HETATM   24  O4  UNL     1     -13.370  15.188  27.699  1.00  0.00    -0.273 OA
HETATM   25  N7  UNL     1     -11.599  13.866  28.512  1.00  0.00    -0.360 N
ATOM     26  H7  UNL     1     -10.580  13.856  28.572  1.00  0.00     0.162 HD
BRANCH  25  27
HETATM   27  C25 UNL     1     -12.252  12.765  29.105  1.00  0.00     0.124 C
BRANCH  27  28
HETATM   28  C26 UNL     1     -12.492  12.765  30.571  1.00  0.00     0.047 C
BRANCH  28  29
HETATM   29  C27 UNL     1     -11.827  13.757  31.429  1.00  0.00     0.237 C
BRANCH  29  30
HETATM   30  N8  UNL     1     -12.659  14.143  32.574  1.00  0.00    -0.079 N
HETATM   31  C28 UNL     1     -13.670  13.174  32.862  1.00  0.00     0.271 C
HETATM   32  C29 UNL     1     -11.829  14.337  33.756  1.00  0.00     0.271 C
HETATM   33  C30 UNL     1     -13.266  15.421  32.276  1.00  0.00     0.271 C
ENDBRANCH  29  30
ENDBRANCH  28  29
ENDBRANCH  27  28
ENDBRANCH  25  27
ENDBRANCH  20  23
ENDBRANCH   1  14
BRANCH   5  34
HETATM   34  C10 UNL     1      -2.679  19.003  24.027  1.00  0.00     0.020 C
BRANCH  34  35
HETATM   35  C11 UNL     1      -1.654  18.197  23.321  1.00  0.00    -0.022 C
HETATM   36  C12 UNL     1      -2.069  17.932  21.865  1.00  0.00     0.009 C
HETATM   37  C13 UNL     1      -1.088  16.990  23.938  1.00  0.00     0.009 C
ENDBRANCH  34  35
ENDBRANCH   5  34
BRANCH  10  38
HETATM   38  C16 UNL     1      -7.756  18.160  21.830  1.00  0.00     0.010 C
BRANCH  38  39
HETATM   39  C17 UNL     1      -6.909  18.122  20.635  1.00  0.00     0.049 C
BRANCH  39  40
HETATM   40  C18 UNL     1      -6.017  16.942  20.436  1.00  0.00     0.126 C
BRANCH  40  41
HETATM   41  N3  UNL     1      -5.647  16.702  19.082  1.00  0.00    -0.367 N
HETATM   42  C19 UNL     1      -4.614  16.121  18.627  1.00  0.00     0.196 C
HETATM   43  N4  UNL     1      -4.475  16.008  17.193  1.00  0.00    -0.067 NA
HETATM   44  N5  UNL     1      -3.567  15.557  19.381  1.00  0.00    -0.067 NA
ATOM     45  H3  UNL     1      -6.304  17.045  18.380  1.00  0.00     0.161 HD
ENDBRANCH  40  41
ENDBRANCH  39  40
ENDBRANCH  38  39
ENDBRANCH  10  38
TORSDOF 12
ENDMDL