MODEL 1
REMARK VINA RESULT: -9.564213480      0.000      0.000
REMARK  14 active torsions:
REMARK  status: ('A' for Active; 'I' for Inactive)
REMARK    1  A    between atoms: N1_2  and  C4_5
REMARK    2  A    between atoms: C4_5  and  C5_6
REMARK    3  A    between atoms: C5_6  and  N2_7
REMARK    4  A    between atoms: C7_9  and  C8_10
REMARK    5  A    between atoms: C8_10  and  C9_11
REMARK    6  A    between atoms: C9_11  and  C10_12
REMARK    7  A    between atoms: C13_15  and  N3_16
REMARK       I    between atoms: N3_16  and  C14_18
REMARK    8  A    between atoms: C16_28  and  N8_29
REMARK    9  A    between atoms: N8_29  and  C17_30
REMARK   10  A    between atoms: N8_29  and  C18_32
REMARK   11  A    between atoms: C18_32  and  C19_33
REMARK   12  A    between atoms: C22_36  and  C23_37
REMARK   13  A    between atoms: C23_37  and  N9_38
REMARK   14  A    between atoms: C27_42  and  C28_43
ROOT
HETATM    1  N2  UNL     1      -5.205  18.071  23.155  1.00  0.00    -0.300 N
HETATM    2  C6  UNL     1      -5.413  18.596  24.384  1.00  0.00     0.117 A
HETATM    3  C7  UNL     1      -6.598  18.494  25.045  1.00  0.00    -0.037 A
HETATM    4  C15 UNL     1      -7.644  17.823  24.437  1.00  0.00     0.058 A
HETATM    5  C16 UNL     1      -7.431  17.290  23.190  1.00  0.00     0.125 A
HETATM    6  N12 UNL     1      -6.225  17.439  22.608  1.00  0.00    -0.283 N
ATOM      7  H12 UNL     1      -6.092  17.035  21.681  1.00  0.00     0.188 HD
ENDROOT
BRANCH   5   8
HETATM    8  N8  UNL     1      -8.474  16.571  22.538  1.00  0.00    -0.306 N
BRANCH   8   9
HETATM    9  C17 UNL     1      -9.041  17.004  21.330  1.00  0.00     0.357 C
HETATM   10  O1  UNL     1      -8.721  18.107  20.796  1.00  0.00    -0.283 OA
ENDBRANCH   8   9
BRANCH   8  11
HETATM   11  C18 UNL     1      -8.977  15.369  23.164  1.00  0.00     0.171 C
BRANCH  11  12
HETATM   12  C19 UNL     1      -9.638  15.636  24.466  1.00  0.00    -0.040 A
HETATM   13  C20 UNL     1     -10.788  16.422  24.476  1.00  0.00     0.009 A
HETATM   14  C21 UNL     1     -11.431  16.681  25.667  1.00  0.00     0.009 A
HETATM   15  C22 UNL     1     -10.970  16.180  26.875  1.00  0.00    -0.040 A
HETATM   16  C30 UNL     1      -9.832  15.403  26.864  1.00  0.00     0.009 A
HETATM   17  C31 UNL     1      -9.180  15.143  25.644  1.00  0.00     0.009 A
BRANCH  15  18
HETATM   18  C23 UNL     1     -11.695  16.474  28.143  1.00  0.00     0.166 C
BRANCH  18  19
HETATM   19  N9  UNL     1     -12.277  15.234  28.665  1.00  0.00    -0.361 N
HETATM   20  C24 UNL     1     -12.661  14.289  27.784  1.00  0.00     0.090 A
HETATM   21  C25 UNL     1     -13.219  13.110  28.232  1.00  0.00     0.018 A
HETATM   22  C26 UNL     1     -13.392  12.881  29.592  1.00  0.00     0.017 A
HETATM   23  C27 UNL     1     -12.991  13.865  30.486  1.00  0.00     0.020 A
HETATM   24  C29 UNL     1     -12.441  15.023  29.987  1.00  0.00     0.105 A
BRANCH  23  25
HETATM   25  C28 UNL     1     -13.176  13.630  31.916  1.00  0.00     0.121 C
HETATM   26  N10 UNL     1     -12.216  13.680  32.753  1.00  0.00    -0.387 N
ATOM     27 2H10 UNL     1     -11.282  13.895  32.403  1.00  0.00     0.157 HD
ATOM     28 1H10 UNL     1     -12.345  13.516  33.751  1.00  0.00     0.157 HD
HETATM   29  N11 UNL     1     -14.471  13.331  32.401  1.00  0.00    -0.082 NA
ENDBRANCH  23  25
ENDBRANCH  18  19
ENDBRANCH  15  18
ENDBRANCH  11  12
ENDBRANCH   8  11
ENDBRANCH   5   8
BRANCH   3  30
HETATM   30  C8  UNL     1      -6.733  19.087  26.407  1.00  0.00     0.046 C
BRANCH  30  31
HETATM   31  C9  UNL     1      -8.105  18.771  26.977  1.00  0.00     0.063 C
BRANCH  31  32
HETATM   32  C10 UNL     1      -8.021  18.155  28.320  1.00  0.00     0.026 A
HETATM   33  C11 UNL     1      -6.938  17.431  28.774  1.00  0.00     0.030 A
HETATM   34  C12 UNL     1      -6.922  16.897  30.056  1.00  0.00     0.052 A
HETATM   35  C13 UNL     1      -7.995  17.085  30.891  1.00  0.00     0.122 A
HETATM   36  N6  UNL     1      -9.039  17.797  30.413  1.00  0.00    -0.285 N
HETATM   37  N7  UNL     1      -9.051  18.304  29.196  1.00  0.00    -0.303 N
ATOM     38  H6  UNL     1      -9.847  17.949  31.017  1.00  0.00     0.188 HD
ATOM     39  H7  UNL     1      -9.871  18.832  28.896  1.00  0.00     0.186 HD
BRANCH  35  40
HETATM   40  N3  UNL     1      -8.018  16.596  32.105  1.00  0.00    -0.316 N
HETATM   41  C14 UNL     1      -9.017  15.686  32.478  1.00  0.00     0.187 C
HETATM   42  N4  UNL     1      -8.796  14.430  32.475  1.00  0.00    -0.373 N
HETATM   43  N5  UNL     1     -10.295  16.165  32.855  1.00  0.00    -0.064 NA
ATOM     44  H42 UNL     1      -7.875  14.085  32.204  1.00  0.00     0.158 HD
ATOM     45  H41 UNL     1      -9.523  13.767  32.747  1.00  0.00     0.158 HD
ATOM     46  H3  UNL     1      -7.308  16.879  32.781  1.00  0.00     0.170 HD
ENDBRANCH  35  40
ENDBRANCH  31  32
ENDBRANCH  30  31
ENDBRANCH   3  30
BRANCH   1  47
HETATM   47  C5  UNL     1      -3.949  18.184  22.447  1.00  0.00     0.176 C
BRANCH  47  48
HETATM   48  C4  UNL     1      -2.778  18.273  23.399  1.00  0.00     0.257 C
BRANCH  48  49
HETATM   49  N1  UNL     1      -2.027  17.034  23.441  1.00  0.00    -0.077 N
HETATM   50  C1  UNL     1      -2.504  16.194  24.542  1.00  0.00     0.271 C
HETATM   51  C2  UNL     1      -0.610  17.281  23.669  1.00  0.00     0.271 C
HETATM   52  C3  UNL     1      -2.140  16.263  22.238  1.00  0.00     0.271 C
ENDBRANCH  48  49
ENDBRANCH  47  48
ENDBRANCH   1  47
TORSDOF 14
ENDMDL