MODEL 4
REMARK VINA RESULT: -7.850577133      2.028      4.458
REMARK  22 active torsions:
REMARK  status: ('A' for Active; 'I' for Inactive)
REMARK    1  A    between atoms: C3_5  and  C4_6
REMARK    2  A    between atoms: C5_7  and  C6_8
REMARK    3  A    between atoms: C7_9  and  C8_10
REMARK    4  A    between atoms: C8_10  and  C9_11
REMARK    5  A    between atoms: C9_11  and  N2_12
REMARK    6  A    between atoms: C9_11  and  C22_38
REMARK    7  A    between atoms: N2_12  and  C10_14
REMARK    8  A    between atoms: C10_14  and  O1_15
REMARK    9  A    between atoms: C10_14  and  N3_17
REMARK   10  A    between atoms: N3_17  and  C12_19
REMARK   11  A    between atoms: C12_19  and  C13_20
REMARK   12  A    between atoms: C13_20  and  C14_21
REMARK   13  A    between atoms: C14_21  and  N4_24
REMARK   14  A    between atoms: N5_28  and  C17_30
REMARK   15  A    between atoms: C17_30  and  C18_31
REMARK   16  A    between atoms: C18_31  and  C19_32
REMARK   17  A    between atoms: C19_32  and  C20_33
REMARK   18  A    between atoms: C24_42  and  C25_43
REMARK   19  A    between atoms: C25_43  and  C26_44
REMARK   20  A    between atoms: C26_44  and  C27_45
REMARK       I    between atoms: C27_45  and  N8_47
REMARK   21  A    between atoms: N8_47  and  C28_48
REMARK   22  A    between atoms: N8_47  and  C30_50
ROOT
HETATM    1  N2  UNL     1     -10.393  14.718  32.425  1.00  0.00    -0.342 N
ATOM      2  H2  UNL     1     -10.275  14.016  33.156  1.00  0.00     0.164 HD
ENDROOT
BRANCH   1   3
HETATM    3  C9  UNL     1     -10.065  16.100  32.719  1.00  0.00     0.185 C
BRANCH   3   4
HETATM    4  C8  UNL     1      -8.565  16.265  32.677  1.00  0.00     0.129 C
BRANCH   4   5
HETATM    5  C7  UNL     1      -8.178  16.733  31.350  1.00  0.00    -0.090 C
HETATM    6  C6  UNL     1      -7.832  17.152  30.254  1.00  0.00    -0.015 C
BRANCH   6   7
HETATM    7  C5  UNL     1      -7.418  17.672  28.993  1.00  0.00    -0.008 C
HETATM    8  C4  UNL     1      -7.037  18.124  27.935  1.00  0.00    -0.035 C
BRANCH   8   9
HETATM    9  C3  UNL     1      -6.550  18.677  26.690  1.00  0.00     0.089 A
HETATM   10  N1  UNL     1      -5.572  19.605  26.554  1.00  0.00    -0.349 N
HETATM   11  C2  UNL     1      -5.369  19.883  25.234  1.00  0.00     0.033 A
ATOM     12  H1  UNL     1      -5.061  20.034  27.326  1.00  0.00     0.166 HD
HETATM   13  C1  UNL     1      -4.475  20.758  24.835  1.00  0.00     0.044 C
HETATM   14  C24 UNL     1      -6.220  19.133  24.479  1.00  0.00    -0.011 A
HETATM   15  C23 UNL     1      -6.950  18.386  25.411  1.00  0.00     0.052 A
BRANCH  14  16
HETATM   16  C25 UNL     1      -6.417  19.018  23.179  1.00  0.00    -0.004 C
BRANCH  16  17
HETATM   17  C26 UNL     1      -6.475  17.778  22.416  1.00  0.00     0.131 C
BRANCH  17  18
HETATM   18  C27 UNL     1      -7.780  17.725  21.666  1.00  0.00     0.223 C
HETATM   19  O4  UNL     1      -7.962  18.506  20.703  1.00  0.00    -0.273 OA
HETATM   20  N8  UNL     1      -8.753  16.793  22.076  1.00  0.00    -0.353 N
BRANCH  20  21
HETATM   21  C28 UNL     1     -10.012  16.722  21.382  1.00  0.00     0.121 C
HETATM   22  C29 UNL     1      -9.912  15.923  20.104  1.00  0.00     0.026 C
ENDBRANCH  20  21
BRANCH  20  23
HETATM   23  C30 UNL     1      -8.501  15.909  23.179  1.00  0.00     0.121 C
HETATM   24  C31 UNL     1      -9.729  15.723  24.051  1.00  0.00     0.026 C
ENDBRANCH  20  23
ENDBRANCH  17  18
ENDBRANCH  16  17
ENDBRANCH  14  16
ENDBRANCH   8   9
ENDBRANCH   6   7
ENDBRANCH   4   5
ENDBRANCH   3   4
BRANCH   3  25
HETATM   25  C22 UNL     1     -10.505  16.509  34.065  1.00  0.00     0.254 C
HETATM   26  N7  UNL     1     -11.793  16.147  34.519  1.00  0.00    -0.060 NA
HETATM   27  O3  UNL     1      -9.734  17.172  34.791  1.00  0.00    -0.275 OA
ENDBRANCH   3  25
ENDBRANCH   1   3
BRANCH   1  28
HETATM   28  C10 UNL     1     -10.866  14.319  31.171  1.00  0.00     0.221 C
BRANCH  28  29
HETATM   29  O1  UNL     1      -9.916  14.292  30.263  1.00  0.00    -0.332 OA
ATOM     30  H1  UNL     1      -9.760  15.146  29.877  1.00  0.00     0.220 HD
ENDBRANCH  28  29
BRANCH  28  31
HETATM   31  N3  UNL     1     -12.130  13.947  30.772  1.00  0.00    -0.307 N
HETATM   32  C11 UNL     1     -13.244  14.654  31.550  1.00  0.00     0.161 C
BRANCH  31  33
HETATM   33  C12 UNL     1     -12.653  12.919  29.984  1.00  0.00     0.087 C
HETATM   34  N5  UNL     1     -13.201  12.957  28.864  1.00  0.00    -0.359 N
ATOM     35  H5  UNL     1     -13.494  12.039  28.532  1.00  0.00     0.166 HD
BRANCH  33  36
HETATM   36  C13 UNL     1     -12.533  11.521  30.604  1.00  0.00     0.114 C
BRANCH  36  37
HETATM   37  C14 UNL     1     -13.649  11.124  31.478  1.00  0.00     0.123 C
HETATM   38  C15 UNL     1     -13.496  11.516  32.924  1.00  0.00     0.046 C
HETATM   39  C16 UNL     1     -13.739   9.575  31.485  1.00  0.00     0.046 C
BRANCH  37  40
HETATM   40  N4  UNL     1     -14.947  11.552  30.983  1.00  0.00    -0.071 N
ATOM     41  H43 UNL     1     -14.932  12.541  30.736  1.00  0.00     0.275 HD
ATOM     42  H42 UNL     1     -15.135  11.151  30.065  1.00  0.00     0.275 HD
ATOM     43  H41 UNL     1     -15.711  11.352  31.628  1.00  0.00     0.275 HD
ENDBRANCH  37  40
ENDBRANCH  36  37
ENDBRANCH  33  36
BRANCH  34  44
HETATM   44  C17 UNL     1     -13.501  13.978  27.969  1.00  0.00     0.062 C
BRANCH  44  45
HETATM   45  C18 UNL     1     -12.315  14.845  27.614  1.00  0.00     0.047 C
BRANCH  45  46
HETATM   46  C19 UNL     1     -12.524  16.261  28.018  1.00  0.00     0.040 C
BRANCH  46  47
HETATM   47  C20 UNL     1     -11.163  16.902  28.322  1.00  0.00     0.177 A
HETATM   48  N6  UNL     1     -11.236  18.303  28.712  1.00  0.00    -0.346 N
HETATM   49  C21 UNL     1     -10.729  17.984  27.424  1.00  0.00     0.241 A
ATOM     50  H6  UNL     1     -11.478  19.007  29.409  1.00  0.00     0.163 HD
HETATM   51  O2  UNL     1     -10.257  18.382  26.331  1.00  0.00    -0.271 OA
ENDBRANCH  46  47
ENDBRANCH  45  46
ENDBRANCH  44  45
ENDBRANCH  34  44
ENDBRANCH  31  33
ENDBRANCH  28  31
ENDBRANCH   1  28
TORSDOF 22
ENDMDL