MODEL 2
REMARK VINA RESULT: -9.174896359      1.038      1.472
REMARK  17 active torsions:
REMARK  status: ('A' for Active; 'I' for Inactive)
REMARK    1  A    between atoms: C7_8  and  C9_10
REMARK    2  A    between atoms: C10_11  and  C11_12
REMARK    3  A    between atoms: C11_12  and  C12_13
REMARK       I    between atoms: C12_13  and  N2_15
REMARK    4  A    between atoms: N2_15  and  C13_17
REMARK    5  A    between atoms: C13_17  and  C14_18
REMARK       I    between atoms: C14_18  and  N3_20
REMARK    6  A    between atoms: C21_32  and  C22_33
REMARK    7  A    between atoms: C22_33  and  C23_34
REMARK    8  A    between atoms: C23_34  and  C24_35
REMARK    9  A    between atoms: C24_35  and  N6_36
REMARK   10  A    between atoms: N6_36  and  C25_38
REMARK   11  A    between atoms: C25_38  and  O3_39
REMARK   12  A    between atoms: C25_38  and  C26_41
REMARK   13  A    between atoms: C26_41  and  C27_42
REMARK   14  A    between atoms: C27_42  and  C28_43
REMARK   15  A    between atoms: C28_43  and  N7_44
REMARK   16  A    between atoms: N7_44  and  C30_46
REMARK   17  A    between atoms: C30_46  and  C31_47
ROOT
HETATM    1  C1  UNL     1     -11.064  15.410  26.496  1.00  0.00     0.016 C
HETATM    2  C2  UNL     1     -10.963  16.622  25.620  1.00  0.00     0.041 A
HETATM    3  C3  UNL     1     -10.980  16.411  24.345  1.00  0.00     0.005 A
HETATM    4  C4  UNL     1     -10.483  16.351  23.785  1.00  0.00     0.200 A
HETATM    5  N1  UNL     1      -9.306  16.390  23.614  1.00  0.00    -0.038 N
HETATM    6  C5  UNL     1      -8.481  15.190  23.498  1.00  0.00     0.245 C
HETATM    7  C6  UNL     1      -8.228  15.213  21.995  1.00  0.00     0.043 C
HETATM    8  C7  UNL     1      -8.289  16.710  21.652  1.00  0.00    -0.000 C
HETATM    9  C8  UNL     1      -9.491  16.993  20.794  1.00  0.00     0.021 C
HETATM   10  C20 UNL     1      -8.461  17.362  23.050  1.00  0.00     0.257 C
HETATM   11  C21 UNL     1      -9.204  16.672  25.300  1.00  0.00     0.225 A
ENDROOT
BRANCH  11  12
HETATM   12  C22 UNL     1      -8.801  17.955  25.531  1.00  0.00     0.005 C
BRANCH  12  13
HETATM   13  C23 UNL     1      -8.410  18.493  26.862  1.00  0.00    -0.009 C
BRANCH  13  14
HETATM   14  C24 UNL     1      -8.315  17.753  28.096  1.00  0.00     0.148 C
BRANCH  14  15
HETATM   15  N6  UNL     1      -9.289  18.104  29.153  1.00  0.00    -0.368 N
ATOM     16  H6  UNL     1      -8.941  18.632  29.954  1.00  0.00     0.161 HD
BRANCH  15  17
HETATM   17  C25 UNL     1     -10.634  17.774  29.143  1.00  0.00     0.135 C
BRANCH  17  18
HETATM   18  O3  UNL     1     -11.381  18.593  28.455  1.00  0.00    -0.346 OA
ATOM     19  H3  UNL     1     -11.316  19.502  28.726  1.00  0.00     0.219 HD
ENDBRANCH  17  18
BRANCH  17  20
HETATM   20  C26 UNL     1     -11.331  16.700  29.766  1.00  0.00     0.053 C
BRANCH  20  21
HETATM   21  C27 UNL     1     -11.132  15.916  30.761  1.00  0.00    -0.003 C
BRANCH  21  22
HETATM   22  C28 UNL     1     -10.040  15.023  31.148  1.00  0.00     0.144 C
BRANCH  22  23
HETATM   23  N7  UNL     1      -9.752  15.154  32.557  1.00  0.00    -0.405 N
HETATM   24  C29 UNL     1      -8.376  15.038  32.907  1.00  0.00     0.144 C
BRANCH  23  25
HETATM   25  C30 UNL     1     -10.520  16.109  33.268  1.00  0.00     0.216 C
BRANCH  25  26
HETATM   26  C31 UNL     1     -11.364  15.580  34.351  1.00  0.00     0.248 C
HETATM   27  N8  UNL     1     -11.740  14.209  34.269  1.00  0.00    -0.061 NA
HETATM   28  O4  UNL     1     -11.775  16.236  35.331  1.00  0.00    -0.275 OA
ENDBRANCH  25  26
ENDBRANCH  23  25
ENDBRANCH  22  23
ENDBRANCH  21  22
ENDBRANCH  20  21
ENDBRANCH  17  20
ENDBRANCH  15  17
ENDBRANCH  14  15
ENDBRANCH  13  14
ENDBRANCH  12  13
ENDBRANCH  11  12
BRANCH   8  29
HETATM   29  C9  UNL     1      -7.026  17.073  21.012  1.00  0.00    -0.019 C
HETATM   30  C10 UNL     1      -6.352  16.248  20.201  1.00  0.00    -0.021 C
BRANCH  30  31
HETATM   31  C11 UNL     1      -5.063  16.602  19.546  1.00  0.00     0.129 C
BRANCH  31  32
HETATM   32  C12 UNL     1      -4.202  17.227  20.602  1.00  0.00     0.221 C
HETATM   33  O1  UNL     1      -4.062  18.486  20.639  1.00  0.00    -0.273 OA
HETATM   34  N2  UNL     1      -3.530  16.443  21.576  1.00  0.00    -0.352 N
ATOM     35  H2  UNL     1      -3.630  15.427  21.578  1.00  0.00     0.162 HD
BRANCH  34  36
HETATM   36  C13 UNL     1      -2.711  17.090  22.556  1.00  0.00     0.227 C
BRANCH  36  37
HETATM   37  C14 UNL     1      -3.141  16.893  23.948  1.00  0.00     0.256 C
HETATM   38  O2  UNL     1      -2.525  16.020  24.633  1.00  0.00    -0.270 OA
HETATM   39  N3  UNL     1      -4.191  17.602  24.600  1.00  0.00    -0.258 N
HETATM   40  C15 UNL     1      -4.395  17.204  25.945  1.00  0.00     0.163 C
HETATM   41  N5  UNL     1      -4.777  18.550  23.710  1.00  0.00    -0.284 N
HETATM   42  C16 UNL     1      -4.472  18.348  27.003  1.00  0.00     0.102 C
HETATM   43  C17 UNL     1      -4.890  19.491  26.318  1.00  0.00    -0.174 C
HETATM   44  C18 UNL     1      -5.293  20.524  25.432  1.00  0.00     0.157 C
HETATM   45  C19 UNL     1      -5.340  19.826  24.053  1.00  0.00     0.100 C
HETATM   46  N4  UNL     1      -5.947  20.446  23.119  1.00  0.00    -0.387 N
ATOM     47  H42 UNL     1      -6.347  21.352  23.363  1.00  0.00     0.157 HD
ATOM     48  H41 UNL     1      -5.978  19.985  22.209  1.00  0.00     0.157 HD
ATOM     49  H5  UNL     1      -4.799  18.293  22.723  1.00  0.00     0.188 HD
ENDBRANCH  36  37
ENDBRANCH  34  36
ENDBRANCH  31  32
ENDBRANCH  30  31
ENDBRANCH   8  29
TORSDOF 17
ENDMDL