MODEL 5
REMARK VINA RESULT: -9.780302275      1.528      2.303
REMARK  15 active torsions:
REMARK  status: ('A' for Active; 'I' for Inactive)
REMARK       I    between atoms: N2_6  and  C4_8
REMARK    1  A    between atoms: C4_8  and  C5_10
REMARK    2  A    between atoms: C8_15  and  C9_16
REMARK    3  A    between atoms: C9_16  and  C10_17
REMARK    4  A    between atoms: C10_17  and  C11_18
REMARK    5  A    between atoms: C11_18  and  O5_20
REMARK    6  A    between atoms: O5_20  and  C12_21
REMARK    7  A    between atoms: C12_21  and  C13_22
REMARK    8  A    between atoms: C13_22  and  C14_23
REMARK    9  A    between atoms: C14_23  and  C15_24
REMARK   10  A    between atoms: C21_30  and  C22_31
REMARK   11  A    between atoms: C22_31  and  C23_32
REMARK   12  A    between atoms: C26_35  and  C27_36
REMARK   13  A    between atoms: C27_36  and  C28_37
REMARK   14  A    between atoms: C28_37  and  C29_38
REMARK   15  A    between atoms: C29_38  and  N3_39
REMARK       I    between atoms: N3_39  and  C30_41
ROOT
HETATM    1  C15 UNL     1      -9.205  15.498  32.635  1.00  0.00    -0.057 A
HETATM    2  C16 UNL     1      -9.964  16.071  33.633  1.00  0.00     0.009 A
HETATM    3  C17 UNL     1     -11.353  16.022  33.601  1.00  0.00     0.031 A
HETATM    4  C18 UNL     1     -12.009  15.395  32.562  1.00  0.00     0.046 A
HETATM    5  C19 UNL     1     -11.284  14.812  31.548  1.00  0.00     0.003 A
HETATM    6  C20 UNL     1      -9.896  14.876  31.604  1.00  0.00     0.021 A
HETATM    7  C21 UNL     1     -12.133  14.272  30.665  1.00  0.00     0.027 A
HETATM    8  C33 UNL     1     -13.473  14.538  31.167  1.00  0.00     0.253 A
HETATM    9  O6  UNL     1     -14.601  14.225  30.682  1.00  0.00    -0.268 OA
HETATM   10  N6  UNL     1     -13.280  15.262  32.386  1.00  0.00    -0.322 N
ATOM     11  H6  UNL     1     -14.014  15.609  33.004  1.00  0.00     0.169 HD
ENDROOT
BRANCH   1  12
HETATM   12  C14 UNL     1      -7.716  15.540  32.655  1.00  0.00     0.041 C
BRANCH  12  13
HETATM   13  C13 UNL     1      -7.136  16.836  32.198  1.00  0.00     0.031 C
BRANCH  13  14
HETATM   14  C12 UNL     1      -7.799  17.403  30.968  1.00  0.00     0.179 C
BRANCH  14  15
HETATM   15  O5  UNL     1      -7.403  16.850  29.762  1.00  0.00    -0.321 OA
BRANCH  15  16
HETATM   16  C11 UNL     1      -7.150  17.481  28.577  1.00  0.00     0.259 C
HETATM   17  O4  UNL     1      -7.980  18.325  28.163  1.00  0.00    -0.265 OA
BRANCH  16  18
HETATM   18  C10 UNL     1      -5.942  17.198  27.788  1.00  0.00     0.116 C
BRANCH  18  19
HETATM   19  C9  UNL     1      -5.263  18.408  27.234  1.00  0.00     0.050 C
BRANCH  19  20
HETATM   20  C8  UNL     1      -4.498  18.170  25.997  1.00  0.00    -0.035 A
HETATM   21  C2  UNL     1      -4.378  19.142  25.057  1.00  0.00     0.013 A
HETATM   22  C1  UNL     1      -5.016  20.493  25.245  1.00  0.00     0.068 C
HETATM   23  N1  UNL     1      -3.684  18.960  23.906  1.00  0.00    -0.346 N
HETATM   24  C3  UNL     1      -3.089  17.778  23.679  1.00  0.00     0.108 A
ATOM     25  H1  UNL     1      -3.615  19.713  23.221  1.00  0.00     0.167 HD
HETATM   26  N2  UNL     1      -2.426  17.573  22.608  1.00  0.00    -0.304 N
HETATM   27  C6  UNL     1      -3.184  16.754  24.610  1.00  0.00     0.049 A
HETATM   28  C4  UNL     1      -2.300  18.582  21.633  1.00  0.00     0.323 C
ATOM     29  H2  UNL     1      -1.982  16.668  22.456  1.00  0.00     0.171 HD
HETATM   30  O1  UNL     1      -3.266  18.942  20.916  1.00  0.00    -0.260 OA
HETATM   31  C7  UNL     1      -3.884  16.938  25.772  1.00  0.00     0.013 A
BRANCH  28  32
HETATM   32  C5  UNL     1      -1.012  19.230  21.445  1.00  0.00     0.270 C
HETATM   33  O2  UNL     1      -0.352  19.019  20.396  1.00  0.00    -0.640 OA
HETATM   34  O3  UNL     1      -0.467  20.088  22.390  1.00  0.00    -0.640 OA
ENDBRANCH  28  32
ENDBRANCH  19  20
ENDBRANCH  18  19
ENDBRANCH  16  18
ENDBRANCH  15  16
ENDBRANCH  14  15
ENDBRANCH  13  14
ENDBRANCH  12  13
ENDBRANCH   1  12
BRANCH   7  35
HETATM   35  C22 UNL     1     -11.792  13.554  29.435  1.00  0.00     0.083 C
BRANCH  35  36
HETATM   36  C23 UNL     1     -11.233  14.376  28.355  1.00  0.00    -0.054 A
HETATM   37  C24 UNL     1     -12.005  15.207  27.571  1.00  0.00     0.008 A
HETATM   38  C25 UNL     1     -11.446  15.974  26.554  1.00  0.00     0.007 A
HETATM   39  C26 UNL     1     -10.088  15.915  26.309  1.00  0.00    -0.058 A
HETATM   40  C31 UNL     1      -9.314  15.094  27.081  1.00  0.00     0.007 A
HETATM   41  C32 UNL     1      -9.886  14.337  28.090  1.00  0.00     0.008 A
BRANCH  39  42
HETATM   42  C27 UNL     1      -9.571  16.765  25.199  1.00  0.00     0.040 C
BRANCH  42  43
HETATM   43  C28 UNL     1      -8.410  16.084  24.504  1.00  0.00     0.024 C
BRANCH  43  44
HETATM   44  C29 UNL     1      -7.354  17.065  24.088  1.00  0.00     0.122 C
BRANCH  44  45
HETATM   45  N3  UNL     1      -7.859  18.009  23.124  1.00  0.00    -0.365 N
HETATM   46  C30 UNL     1      -7.401  18.065  21.785  1.00  0.00     0.181 C
HETATM   47  N4  UNL     1      -6.157  18.008  21.506  1.00  0.00    -0.374 N
HETATM   48  N5  UNL     1      -8.361  18.190  20.719  1.00  0.00    -0.064 NA
ATOM     49  H42 UNL     1      -5.476  17.919  22.260  1.00  0.00     0.158 HD
ATOM     50  H41 UNL     1      -5.826  18.048  20.542  1.00  0.00     0.158 HD
ATOM     51  H3  UNL     1      -8.580  18.668  23.419  1.00  0.00     0.162 HD
ENDBRANCH  44  45
ENDBRANCH  43  44
ENDBRANCH  42  43
ENDBRANCH  39  42
ENDBRANCH  35  36
ENDBRANCH   7  35
TORSDOF 15
ENDMDL