MODEL 3
REMARK VINA RESULT: -8.410717231      2.114      6.338
REMARK  13 active torsions:
REMARK  status: ('A' for Active; 'I' for Inactive)
REMARK    1  A    between atoms: C2_2  and  C3_3
REMARK    2  A    between atoms: C3_3  and  C4_4
REMARK    3  A    between atoms: C4_4  and  C5_5
REMARK       I    between atoms: C5_5  and  N1_7
REMARK       I    between atoms: N2_10  and  C8_11
REMARK    4  A    between atoms: C8_11  and  C9_13
REMARK    5  A    between atoms: C9_13  and  C10_14
REMARK    6  A    between atoms: C9_13  and  N6_22
REMARK    7  A    between atoms: C10_14  and  C11_15
REMARK    8  A    between atoms: C11_15  and  C12_16
REMARK    9  A    between atoms: C12_16  and  N3_17
REMARK       I    between atoms: N6_22  and  C14_24
REMARK   10  A    between atoms: C14_24  and  C15_26
REMARK       I    between atoms: N7_31  and  C20_32
REMARK   11  A    between atoms: C20_32  and  C21_34
REMARK   12  A    between atoms: C21_34  and  C22_36
REMARK   13  A    between atoms: C22_36  and  C23_37
ROOT
HETATM    1  C9  UNL     1      -8.516  16.330  29.656  1.00  0.00     0.176 C
ENDROOT
BRANCH   1   2
HETATM    2  C8  UNL     1      -8.654  16.659  31.109  1.00  0.00     0.242 C
HETATM    3  N2  UNL     1      -9.277  15.899  32.086  1.00  0.00    -0.347 N
HETATM    4  C7  UNL     1      -9.888  14.621  31.834  1.00  0.00     0.145 C
HETATM    5  C29 UNL     1      -9.334  16.418  33.468  1.00  0.00     0.145 C
HETATM    6  C6  UNL     1     -11.358  14.653  32.233  1.00  0.00     0.145 C
HETATM    7  N1  UNL     1     -11.393  15.063  33.617  1.00  0.00    -0.349 N
HETATM    8  C5  UNL     1     -12.141  14.291  34.537  1.00  0.00     0.219 C
HETATM    9  C30 UNL     1     -10.693  16.237  34.052  1.00  0.00     0.145 C
HETATM   10  O1  UNL     1     -12.180  14.628  35.740  1.00  0.00    -0.273 OA
HETATM   11  O2  UNL     1      -8.127  17.766  31.451  1.00  0.00    -0.271 OA
BRANCH   8  12
HETATM   12  C4  UNL     1     -12.884  13.087  34.105  1.00  0.00     0.103 C
BRANCH  12  13
HETATM   13  C3  UNL     1     -12.554  11.928  34.992  1.00  0.00     0.009 C
BRANCH  13  14
HETATM   14  C2  UNL     1     -12.954  10.619  34.358  1.00  0.00    -0.004 C
HETATM   15  C1  UNL     1     -13.327  10.830  32.920  1.00  0.00     0.005 C
ENDBRANCH  13  14
ENDBRANCH  12  13
ENDBRANCH   8  12
ENDBRANCH   1   2
BRANCH   1  16
HETATM   16  C10 UNL     1      -9.772  15.893  29.028  1.00  0.00     0.036 C
BRANCH  16  17
HETATM   17  C11 UNL     1     -10.798  16.879  28.643  1.00  0.00     0.022 C
BRANCH  17  18
HETATM   18  C12 UNL     1     -12.046  16.336  28.022  1.00  0.00     0.122 C
BRANCH  18  19
HETATM   19  N3  UNL     1     -12.964  15.903  29.083  1.00  0.00    -0.367 N
HETATM   20  C13 UNL     1     -13.506  14.738  29.069  1.00  0.00     0.196 C
HETATM   21  N4  UNL     1     -13.256  13.794  28.032  1.00  0.00    -0.067 NA
HETATM   22  N5  UNL     1     -14.383  14.390  30.134  1.00  0.00    -0.067 NA
ATOM     23  H3  UNL     1     -13.178  16.542  29.848  1.00  0.00     0.161 HD
ENDBRANCH  18  19
ENDBRANCH  17  18
ENDBRANCH  16  17
ENDBRANCH   1  16
BRANCH   1  24
HETATM   24  N6  UNL     1      -7.707  17.284  28.992  1.00  0.00    -0.346 N
HETATM   25  C14 UNL     1      -6.806  16.930  27.919  1.00  0.00     0.241 C
HETATM   26  O3  UNL     1      -6.764  15.706  27.603  1.00  0.00    -0.271 OA
ATOM     27  H6  UNL     1      -7.762  18.261  29.283  1.00  0.00     0.163 HD
BRANCH  25  28
HETATM   28  C15 UNL     1      -5.966  17.891  27.206  1.00  0.00     0.183 C
HETATM   29  C16 UNL     1      -4.513  17.687  27.504  1.00  0.00     0.015 C
HETATM   30  C17 UNL     1      -3.948  18.809  28.303  1.00  0.00     0.012 C
HETATM   31  C18 UNL     1      -3.837  17.494  26.151  1.00  0.00     0.027 C
HETATM   32  C19 UNL     1      -5.008  16.812  25.400  1.00  0.00     0.127 C
HETATM   33  N7  UNL     1      -6.067  17.716  25.743  1.00  0.00    -0.334 N
HETATM   34  C20 UNL     1      -7.039  18.280  24.925  1.00  0.00     0.264 C
HETATM   35  O4  UNL     1      -7.981  18.938  25.497  1.00  0.00    -0.267 OA
BRANCH  34  36
HETATM   36  C21 UNL     1      -7.112  18.205  23.467  1.00  0.00     0.092 C
HETATM   37  N8  UNL     1      -6.738  19.410  22.764  1.00  0.00    -0.101 NA
BRANCH  36  38
HETATM   38  C22 UNL     1      -8.323  17.545  22.894  1.00  0.00     0.064 C
BRANCH  38  39
HETATM   39  C23 UNL     1      -8.440  16.083  22.950  1.00  0.00    -0.009 C
HETATM   40  C24 UNL     1      -9.725  15.576  22.304  1.00  0.00     0.005 C
HETATM   41  C25 UNL     1     -10.933  15.857  23.129  1.00  0.00     0.000 C
HETATM   42  C26 UNL     1     -10.727  16.116  24.569  1.00  0.00     0.000 C
HETATM   43  C27 UNL     1      -9.480  15.583  25.187  1.00  0.00     0.000 C
HETATM   44  C28 UNL     1      -8.328  15.404  24.263  1.00  0.00     0.005 C
ENDBRANCH  38  39
ENDBRANCH  36  38
ENDBRANCH  34  36
ENDBRANCH  25  28
ENDBRANCH   1  24
TORSDOF 13
ENDMDL