MODEL 4
REMARK VINA RESULT: -8.643022616      1.270      1.931
REMARK  16 active torsions:
REMARK  status: ('A' for Active; 'I' for Inactive)
REMARK    1  A    between atoms: C2_2  and  N1_3
REMARK    2  A    between atoms: C6_7  and  O1_8
REMARK    3  A    between atoms: C7_10  and  C8_11
REMARK    4  A    between atoms: C8_11  and  C9_12
REMARK    5  A    between atoms: C9_12  and  C10_13
REMARK    6  A    between atoms: N5_25  and  C16_26
REMARK    7  A    between atoms: C16_26  and  C17_27
REMARK    8  A    between atoms: C17_27  and  C18_28
REMARK    9  A    between atoms: C18_28  and  C19_29
REMARK   10  A    between atoms: C19_29  and  C20_30
REMARK   11  A    between atoms: C20_30  and  C21_31
REMARK   12  A    between atoms: C21_31  and  N6_32
REMARK   13  A    between atoms: C24_35  and  C25_36
REMARK       I    between atoms: C25_36  and  N7_38
REMARK   14  A    between atoms: N7_38  and  C26_40
REMARK   15  A    between atoms: C26_40  and  C27_41
REMARK   16  A    between atoms: C27_41  and  O4_42
ROOT
HETATM    1  N1  UNL     1      -9.329  15.781  24.693  1.00  0.00    -0.366 N
HETATM    2  C3  UNL     1     -10.486  16.458  24.616  1.00  0.00     0.091 A
HETATM    3  C4  UNL     1     -11.292  16.519  25.733  1.00  0.00     0.032 A
HETATM    4  C5  UNL     1     -10.957  15.910  26.922  1.00  0.00     0.017 A
HETATM    5  C6  UNL     1     -11.740  15.956  28.052  1.00  0.00     0.099 A
HETATM    6  C7  UNL     1     -11.337  15.317  29.231  1.00  0.00     0.049 A
HETATM    7  N5  UNL     1     -10.185  14.655  29.266  1.00  0.00    -0.315 N
HETATM    8  C30 UNL     1      -9.424  14.613  28.163  1.00  0.00     0.260 A
HETATM    9  O5  UNL     1      -8.324  13.978  28.208  1.00  0.00    -0.267 OA
HETATM   10  C31 UNL     1      -9.766  15.221  26.980  1.00  0.00     0.061 A
HETATM   11  C32 UNL     1      -8.988  15.183  25.842  1.00  0.00     0.108 A
ENDROOT
BRANCH   7  12
HETATM   12  C16 UNL     1      -9.773  13.978  30.445  1.00  0.00     0.132 C
BRANCH  12  13
HETATM   13  C17 UNL     1      -8.652  14.755  31.075  1.00  0.00     0.020 C
BRANCH  13  14
HETATM   14  C18 UNL     1      -9.153  15.652  32.216  1.00  0.00     0.002 C
BRANCH  14  15
HETATM   15  C19 UNL     1      -8.784  17.084  31.930  1.00  0.00     0.002 C
BRANCH  15  16
HETATM   16  C20 UNL     1      -7.873  17.262  30.761  1.00  0.00     0.020 C
BRANCH  16  17
HETATM   17  C21 UNL     1      -8.545  17.852  29.568  1.00  0.00     0.128 C
BRANCH  17  18
HETATM   18  N6  UNL     1      -7.762  17.786  28.369  1.00  0.00    -0.366 N
HETATM   19  C22 UNL     1      -6.661  17.032  28.303  1.00  0.00     0.091 A
HETATM   20  C23 UNL     1      -5.845  16.956  27.174  1.00  0.00     0.034 A
HETATM   21  C24 UNL     1      -6.184  17.694  26.063  1.00  0.00     0.034 A
HETATM   22  C28 UNL     1      -7.306  18.469  26.108  1.00  0.00     0.034 A
HETATM   23  C29 UNL     1      -8.078  18.505  27.260  1.00  0.00     0.091 A
BRANCH  21  24
HETATM   24  C25 UNL     1      -5.353  17.660  24.841  1.00  0.00     0.251 C
HETATM   25  O3  UNL     1      -5.790  18.180  23.776  1.00  0.00    -0.268 OA
HETATM   26  N7  UNL     1      -4.093  17.049  24.873  1.00  0.00    -0.355 N
ATOM     27  H7  UNL     1      -3.810  16.660  25.772  1.00  0.00     0.162 HD
BRANCH  26  28
HETATM   28  C26 UNL     1      -3.154  16.899  23.807  1.00  0.00     0.148 C
BRANCH  28  29
HETATM   29  C27 UNL     1      -1.951  16.069  24.092  1.00  0.00     0.183 C
BRANCH  29  30
HETATM   30  O4  UNL     1      -2.115  14.994  24.922  1.00  0.00    -0.399 OA
ATOM     31  H4  UNL     1      -1.351  14.457  25.094  1.00  0.00     0.209 HD
ENDBRANCH  29  30
ENDBRANCH  28  29
ENDBRANCH  26  28
ENDBRANCH  21  24
ENDBRANCH  17  18
ENDBRANCH  16  17
ENDBRANCH  15  16
ENDBRANCH  14  15
ENDBRANCH  13  14
ENDBRANCH  12  13
ENDBRANCH   7  12
BRANCH   6  32
HETATM   32  C8  UNL     1     -12.189  15.412  30.411  1.00  0.00     0.066 C
BRANCH  32  33
HETATM   33  C9  UNL     1     -13.222  14.302  30.300  1.00  0.00     0.065 C
BRANCH  33  34
HETATM   34  C10 UNL     1     -13.301  13.492  31.559  1.00  0.00     0.034 A
HETATM   35  C11 UNL     1     -13.530  13.950  32.837  1.00  0.00     0.115 A
HETATM   36  N2  UNL     1     -13.513  12.871  33.634  1.00  0.00    -0.345 N
HETATM   37  C12 UNL     1     -13.287  11.762  32.917  1.00  0.00     0.181 A
ATOM     38  H2  UNL     1     -13.653  12.892  34.644  1.00  0.00     0.167 HD
HETATM   39  C13 UNL     1     -13.177  10.413  33.241  1.00  0.00     0.290 A
HETATM   40  N4  UNL     1     -13.158  12.161  31.642  1.00  0.00    -0.305 N
HETATM   41  O2  UNL     1     -13.302  10.073  34.443  1.00  0.00    -0.264 OA
HETATM   42  N3  UNL     1     -12.940   9.545  32.244  1.00  0.00    -0.329 N
HETATM   43  C14 UNL     1     -12.809   9.920  30.971  1.00  0.00     0.109 A
ATOM     44  H3  UNL     1     -12.856   8.555  32.470  1.00  0.00     0.168 HD
HETATM   45  C15 UNL     1     -12.918  11.259  30.645  1.00  0.00     0.116 A
ENDBRANCH  33  34
ENDBRANCH  32  33
ENDBRANCH   6  32
BRANCH   5  46
HETATM   46  O1  UNL     1     -12.925  16.643  28.002  1.00  0.00    -0.358 OA
ATOM     47  H1  UNL     1     -12.933  17.509  27.613  1.00  0.00     0.217 HD
ENDBRANCH   5  46
BRANCH   1  48
HETATM   48  C2  UNL     1      -8.417  15.667  23.571  1.00  0.00     0.123 C
HETATM   49  C1  UNL     1      -8.914  14.795  22.468  1.00  0.00     0.027 C
ENDBRANCH   1  48
TORSDOF 16
ENDMDL