MODEL 5
REMARK VINA RESULT: -6.702188297      8.764     12.492
REMARK  6 active torsions:
REMARK  status: ('A' for Active; 'I' for Inactive)
REMARK    1  A    between atoms: C5_5  and  S1_6
REMARK    2  A    between atoms: S1_6  and  N1_9
REMARK    3  A    between atoms: C6_11  and  N2_13
REMARK    4  A    between atoms: C9_18  and  C10_19
REMARK    5  A    between atoms: C18_28  and  C19_29
REMARK    6  A    between atoms: C22_32  and  C23_33
ROOT
HETATM    1  N2  UNL     1      -6.036   3.049 -20.906  1.00  0.00    -0.297 N
HETATM    2  C7  UNL     1      -5.512   2.597 -19.702  1.00  0.00     0.148 C
HETATM    3  S3  UNL     1      -5.741   2.836 -18.196  1.00  0.00    -0.052 SA
HETATM    4  S4  UNL     1      -4.162   1.442 -20.265  1.00  0.00    -0.062 SA
HETATM    5  C8  UNL     1      -3.739   2.666 -21.535  1.00  0.00     0.014 C
HETATM    6  C9  UNL     1      -2.572   3.020 -21.784  1.00  0.00     0.027 C
HETATM    7  C18 UNL     1      -5.060   3.070 -22.000  1.00  0.00     0.167 C
ENDROOT
BRANCH   1   8
HETATM    8  C6  UNL     1      -7.361   3.450 -21.186  1.00  0.00     0.170 C
HETATM    9  N1  UNL     1      -8.192   4.504 -21.171  1.00  0.00    -0.259 N
ATOM     10  H1  UNL     1      -9.122   4.204 -21.462  1.00  0.00     0.181 HD
HETATM   11  S2  UNL     1      -8.334   2.057 -21.712  1.00  0.00    -0.012 SA
BRANCH   9  12
HETATM   12  S1  UNL     1      -8.222   6.137 -20.837  1.00  0.00     0.264 S
HETATM   13  O1  UNL     1      -6.784   6.617 -20.475  1.00  0.00    -0.200 OA
HETATM   14  O2  UNL     1      -8.951   6.435 -19.495  1.00  0.00    -0.200 OA
BRANCH  12  15
HETATM   15  C5  UNL     1      -8.863   7.248 -22.002  1.00  0.00     0.080 A
HETATM   16  C4  UNL     1      -8.740   8.625 -21.815  1.00  0.00     0.026 A
HETATM   17  C3  UNL     1      -9.165   9.505 -22.765  1.00  0.00     0.008 A
HETATM   18  C2  UNL     1      -9.728   9.095 -23.939  1.00  0.00    -0.062 A
HETATM   19  C1  UNL     1     -10.176  10.093 -24.936  1.00  0.00     0.048 C
HETATM   20  C29 UNL     1      -9.874   7.725 -24.176  1.00  0.00     0.008 A
HETATM   21  C28 UNL     1      -9.438   6.872 -23.203  1.00  0.00     0.026 A
ENDBRANCH  12  15
ENDBRANCH   9  12
ENDBRANCH   1   8
BRANCH   7  22
HETATM   22  C19 UNL     1      -4.916   4.476 -22.477  1.00  0.00    -0.030 A
HETATM   23  C20 UNL     1      -5.828   4.964 -23.424  1.00  0.00     0.010 A
HETATM   24  C21 UNL     1      -5.717   6.252 -23.881  1.00  0.00     0.008 A
HETATM   25  C22 UNL     1      -4.739   7.133 -23.461  1.00  0.00    -0.055 A
HETATM   26  C26 UNL     1      -3.844   6.644 -22.528  1.00  0.00     0.008 A
HETATM   27  C27 UNL     1      -3.942   5.339 -22.054  1.00  0.00     0.010 A
BRANCH  25  28
HETATM   28  C23 UNL     1      -4.697   8.514 -23.995  1.00  0.00     0.010 C
HETATM   29  C24 UNL     1      -3.645   8.755 -25.022  1.00  0.00     0.015 C
HETATM   30  C25 UNL     1      -6.085   8.978 -24.457  1.00  0.00     0.015 C
ENDBRANCH  25  28
ENDBRANCH   7  22
BRANCH   6  31
HETATM   31  C10 UNL     1      -1.398   2.595 -21.194  1.00  0.00    -0.016 A
HETATM   32  C11 UNL     1      -0.894   1.690 -22.029  1.00  0.00     0.113 A
HETATM   33  C12 UNL     1      -0.780   0.841 -23.187  1.00  0.00     0.045 A
HETATM   34  N3  UNL     1       0.002   1.280 -21.360  1.00  0.00    -0.410 NA
HETATM   35  C13 UNL     1       0.317  -0.044 -23.017  1.00  0.00     0.006 A
HETATM   36  C14 UNL     1       1.190  -0.022 -21.731  1.00  0.00     0.040 A
HETATM   37  C15 UNL     1       0.918   0.827 -20.725  1.00  0.00     0.085 A
HETATM   38  C16 UNL     1       0.539   1.809 -19.658  1.00  0.00     0.077 A
HETATM   39  C17 UNL     1      -0.586   2.664 -19.876  1.00  0.00     0.049 A
ENDBRANCH   6  31
TORSDOF 6
ENDMDL