MODEL 1
REMARK VINA RESULT: -11.480783137      0.000      0.000
REMARK  9 active torsions:
REMARK  status: ('A' for Active; 'I' for Inactive)
REMARK       I    between atoms: C1_2  and  N1_3
REMARK    1  A    between atoms: C1_2  and  C25_39
REMARK    2  A    between atoms: N1_3  and  C2_5
REMARK    3  A    between atoms: C4_7  and  C5_8
REMARK    4  A    between atoms: N2_20  and  C17_21
REMARK    5  A    between atoms: C17_21  and  O2_22
REMARK    6  A    between atoms: C17_21  and  N3_24
REMARK    7  A    between atoms: N3_24  and  C18_26
REMARK    8  A    between atoms: C18_26  and  C19_27
REMARK    9  A    between atoms: C29_43  and  C30_44
ROOT
HETATM    1  C5  UNL     1      -7.577   3.664 -21.351  1.00  0.00     0.004 A
HETATM    2  C6  UNL     1      -8.434   2.617 -21.744  1.00  0.00     0.015 A
HETATM    3  C7  UNL     1      -9.564   2.847 -22.456  1.00  0.00     0.003 A
HETATM    4  C8  UNL     1      -9.849   4.166 -22.784  1.00  0.00     0.031 A
HETATM    5  C9  UNL     1      -9.048   5.219 -22.424  1.00  0.00     0.055 A
HETATM    6  C10 UNL     1      -7.882   4.963 -21.689  1.00  0.00     0.016 A
HETATM    7  C11 UNL     1      -7.249   6.172 -21.443  1.00  0.00     0.005 A
HETATM    8  C12 UNL     1      -6.092   6.452 -20.763  1.00  0.00     0.014 A
HETATM    9  C13 UNL     1      -5.702   7.800 -20.674  1.00  0.00     0.001 A
HETATM   10  C14 UNL     1      -6.439   8.793 -21.237  1.00  0.00     0.002 A
HETATM   11  C15 UNL     1      -7.602   8.435 -21.910  1.00  0.00     0.031 A
HETATM   12  C16 UNL     1      -8.048   7.137 -22.040  1.00  0.00     0.054 A
HETATM   13  N2  UNL     1      -9.117   6.579 -22.624  1.00  0.00    -0.276 N
ENDROOT
BRANCH   1  14
HETATM   14  C4  UNL     1      -6.394   3.290 -20.594  1.00  0.00     0.047 A
HETATM   15  C3  UNL     1      -5.192   3.077 -21.229  1.00  0.00     0.079 A
HETATM   16  C2  UNL     1      -4.022   2.746 -20.548  1.00  0.00     0.110 A
HETATM   17  N6  UNL     1      -4.146   2.647 -19.209  1.00  0.00    -0.338 N
HETATM   18  C24 UNL     1      -5.326   2.858 -18.601  1.00  0.00     0.182 A
ATOM     19  H6  UNL     1      -3.329   2.408 -18.647  1.00  0.00     0.168 HD
HETATM   20  N5  UNL     1      -6.456   3.177 -19.257  1.00  0.00    -0.352 N
ATOM     21  H5  UNL     1      -7.331   3.329 -18.755  1.00  0.00     0.166 HD
BRANCH  16  22
HETATM   22  N1  UNL     1      -2.915   2.557 -21.182  1.00  0.00    -0.309 N
HETATM   23  C1  UNL     1      -1.634   2.503 -20.640  1.00  0.00     0.257 C
HETATM   24  O1  UNL     1      -1.092   3.554 -20.217  1.00  0.00    -0.267 OA
ATOM     25  H1  UNL     1      -2.985   2.434 -22.192  1.00  0.00     0.170 HD
BRANCH  23  26
HETATM   26  C25 UNL     1      -0.904   1.260 -20.549  1.00  0.00     0.033 A
HETATM   27  C26 UNL     1      -1.498   0.198 -19.886  1.00  0.00     0.017 A
HETATM   28  C27 UNL     1      -0.821  -0.975 -19.797  1.00  0.00     0.002 A
HETATM   29  C28 UNL     1       0.433  -1.133 -20.346  1.00  0.00     0.012 A
HETATM   30  C29 UNL     1       1.044  -0.074 -21.016  1.00  0.00    -0.025 A
HETATM   31  C36 UNL     1       0.358   1.099 -21.101  1.00  0.00     0.029 A
BRANCH  30  32
HETATM   32  C30 UNL     1       2.367  -0.295 -21.579  1.00  0.00    -0.026 A
HETATM   33  C31 UNL     1       2.742  -1.584 -21.872  1.00  0.00     0.012 A
HETATM   34  C32 UNL     1       4.001  -1.863 -22.417  1.00  0.00     0.001 A
HETATM   35  C33 UNL     1       4.880  -0.856 -22.668  1.00  0.00     0.000 A
HETATM   36  C34 UNL     1       4.518   0.446 -22.380  1.00  0.00     0.001 A
HETATM   37  C35 UNL     1       3.267   0.716 -21.838  1.00  0.00     0.012 A
ENDBRANCH  30  32
ENDBRANCH  23  26
ENDBRANCH  16  22
ENDBRANCH   1  14
BRANCH  13  38
HETATM   38  C17 UNL     1     -10.176   7.188 -23.324  1.00  0.00     0.225 C
BRANCH  38  39
HETATM   39  O2  UNL     1     -11.227   7.567 -22.651  1.00  0.00    -0.332 OA
ATOM     40  H2  UNL     1     -12.007   7.026 -22.689  1.00  0.00     0.221 HD
ENDBRANCH  38  39
BRANCH  38  41
HETATM   41  N3  UNL     1     -10.297   7.467 -24.687  1.00  0.00    -0.350 N
ATOM     42  H3  UNL     1     -11.132   7.921 -25.057  1.00  0.00     0.163 HD
BRANCH  41  43
HETATM   43  C18 UNL     1      -9.174   7.082 -25.584  1.00  0.00     0.180 C
BRANCH  43  44
HETATM   44  C19 UNL     1      -8.090   8.085 -25.538  1.00  0.00     0.026 A
HETATM   45  C20 UNL     1      -6.804   7.599 -25.444  1.00  0.00     0.027 A
HETATM   46  C21 UNL     1      -5.764   8.502 -25.397  1.00  0.00     0.003 A
HETATM   47  C22 UNL     1      -6.016   9.858 -25.443  1.00  0.00     0.017 A
HETATM   48  C23 UNL     1      -7.316  10.313 -25.537  1.00  0.00     0.088 A
HETATM   49  N4  UNL     1      -8.306   9.408 -25.581  1.00  0.00    -0.368 N
ATOM     50  H4  UNL     1      -9.267   9.743 -25.651  1.00  0.00     0.165 HD
ENDBRANCH  43  44
ENDBRANCH  41  43
ENDBRANCH  38  41
ENDBRANCH  13  38
TORSDOF 9
ENDMDL