MODEL 3
REMARK VINA RESULT: -10.442828593      0.665      1.344
REMARK  6 active torsions:
REMARK  status: ('A' for Active; 'I' for Inactive)
REMARK    1  A    between atoms: S1_2  and  C1_4
REMARK    2  A    between atoms: S1_2  and  C7_10
REMARK    3  A    between atoms: C14_17  and  O3_18
REMARK    4  A    between atoms: C14_17  and  C15_20
REMARK    5  A    between atoms: C18_23  and  C19_24
REMARK    6  A    between atoms: C30_37  and  C31_38
ROOT
HETATM    1  C7  UNL     1      -6.653   5.221 -19.874  1.00  0.00     0.072 A
HETATM    2  C8  UNL     1      -6.509   5.437 -18.507  1.00  0.00     0.024 A
HETATM    3  C9  UNL     1      -6.586   6.692 -17.941  1.00  0.00     0.004 A
HETATM    4  C10 UNL     1      -6.818   7.752 -18.798  1.00  0.00     0.030 A
HETATM    5  C11 UNL     1      -6.965   7.566 -20.166  1.00  0.00     0.040 A
HETATM    6  C12 UNL     1      -6.887   6.320 -20.716  1.00  0.00    -0.006 A
HETATM    7  C13 UNL     1      -7.026   5.996 -22.146  1.00  0.00     0.092 C
HETATM    8  C14 UNL     1      -7.164   7.206 -23.050  1.00  0.00     0.132 C
HETATM    9  C30 UNL     1      -7.854   8.271 -22.324  1.00  0.00     0.060 C
HETATM   10  N2  UNL     1      -7.234   8.658 -21.062  1.00  0.00    -0.356 N
ATOM     11  H2  UNL     1      -7.009   9.626 -20.833  1.00  0.00     0.166 HD
ENDROOT
BRANCH   8  12
HETATM   12  O3  UNL     1      -8.109   6.771 -24.038  1.00  0.00    -0.378 OA
ATOM     13  H3  UNL     1      -8.939   6.811 -23.577  1.00  0.00     0.211 HD
ENDBRANCH   8  12
BRANCH   8  14
HETATM   14  C15 UNL     1      -5.950   7.418 -23.790  1.00  0.00    -0.018 A
HETATM   15  C16 UNL     1      -6.139   7.817 -25.127  1.00  0.00     0.011 A
HETATM   16  C17 UNL     1      -5.106   8.084 -25.984  1.00  0.00     0.013 A
HETATM   17  C18 UNL     1      -3.801   7.969 -25.560  1.00  0.00    -0.026 A
HETATM   18  C28 UNL     1      -3.593   7.578 -24.254  1.00  0.00     0.013 A
HETATM   19  C29 UNL     1      -4.656   7.309 -23.397  1.00  0.00     0.011 A
BRANCH  17  20
HETATM   20  C19 UNL     1      -2.656   8.247 -26.419  1.00  0.00    -0.025 A
HETATM   21  C20 UNL     1      -1.667   9.154 -26.039  1.00  0.00     0.014 A
HETATM   22  C21 UNL     1      -0.563   9.405 -26.816  1.00  0.00     0.031 A
HETATM   23  C22 UNL     1      -0.395   8.764 -28.009  1.00  0.00     0.042 A
HETATM   24  N1  UNL     1       0.692   9.013 -28.756  1.00  0.00    -0.365 N
HETATM   25  C26 UNL     1      -1.371   7.859 -28.400  1.00  0.00    -0.009 A
HETATM   26  C23 UNL     1       0.878   8.388 -29.928  1.00  0.00     0.088 A
ATOM     27  H1  UNL     1       1.385   9.687 -28.429  1.00  0.00     0.165 HD
HETATM   28  C24 UNL     1      -0.053   7.473 -30.381  1.00  0.00     0.018 A
HETATM   29  C25 UNL     1      -1.167   7.224 -29.605  1.00  0.00     0.015 A
HETATM   30  C27 UNL     1      -2.498   7.600 -27.611  1.00  0.00     0.026 A
ENDBRANCH  17  20
ENDBRANCH   8  14
BRANCH   9  31
HETATM   31  C31 UNL     1      -8.509   9.344 -23.053  1.00  0.00    -0.010 A
HETATM   32  C32 UNL     1      -8.093  10.679 -22.935  1.00  0.00     0.013 A
HETATM   33  C33 UNL     1      -8.677  11.702 -23.641  1.00  0.00     0.001 A
HETATM   34  C34 UNL     1      -9.711  11.442 -24.508  1.00  0.00     0.000 A
HETATM   35  C35 UNL     1     -10.139  10.149 -24.644  1.00  0.00     0.001 A
HETATM   36  C36 UNL     1      -9.538   9.131 -23.921  1.00  0.00     0.013 A
ENDBRANCH   9  31
BRANCH   1  37
HETATM   37  S1  UNL     1      -6.538   3.585 -20.482  1.00  0.00     0.207 S
HETATM   38  O1  UNL     1      -7.338   3.404 -21.750  1.00  0.00    -0.217 OA
HETATM   39  O2  UNL     1      -6.947   2.558 -19.457  1.00  0.00    -0.217 OA
BRANCH  37  40
HETATM   40  C1  UNL     1      -4.887   3.216 -20.892  1.00  0.00     0.064 A
HETATM   41  C2  UNL     1      -4.439   1.929 -20.869  1.00  0.00     0.024 A
HETATM   42  C3  UNL     1      -3.118   1.601 -21.191  1.00  0.00     0.002 A
HETATM   43  C4  UNL     1      -2.245   2.611 -21.545  1.00  0.00     0.000 A
HETATM   44  C5  UNL     1      -2.688   3.905 -21.573  1.00  0.00     0.002 A
HETATM   45  C6  UNL     1      -3.984   4.205 -21.252  1.00  0.00     0.024 A
ENDBRANCH  37  40
ENDBRANCH   1  37
TORSDOF 6
ENDMDL