MODEL 4
REMARK VINA RESULT: -8.089506605      3.396      6.627
REMARK  8 active torsions:
REMARK  status: ('A' for Active; 'I' for Inactive)
REMARK    1  A    between atoms: C2_2  and  C5_5
REMARK    2  A    between atoms: C8_8  and  C9_9
REMARK    3  A    between atoms: C9_9  and  O1_10
REMARK    4  A    between atoms: N1_12  and  C10_14
REMARK    5  A    between atoms: C12_16  and  N2_17
REMARK    6  A    between atoms: C17_26  and  C18_27
REMARK    7  A    between atoms: C19_28  and  C20_29
REMARK    8  A    between atoms: C28_38  and  C29_39
ROOT
HETATM    1  C20 UNL     1       5.385  -0.095 -26.250  1.00  0.00    -0.035 A
HETATM    2  C21 UNL     1       6.763   0.064 -26.081  1.00  0.00     0.011 A
HETATM    3  C22 UNL     1       7.609  -0.975 -26.417  1.00  0.00     0.002 A
HETATM    4  C23 UNL     1       7.088  -2.145 -26.912  1.00  0.00     0.023 A
HETATM    5  C24 UNL     1       5.736  -2.309 -27.090  1.00  0.00     0.045 A
HETATM    6  C25 UNL     1       5.229  -3.547 -27.584  1.00  0.00     0.099 C
HETATM    7  N5  UNL     1       4.840  -4.588 -27.982  1.00  0.00    -0.191 NA
HETATM    8  C26 UNL     1       4.883  -1.271 -26.751  1.00  0.00     0.034 A
ENDROOT
BRANCH   1   9
HETATM    9  C19 UNL     1       4.516   0.967 -25.839  1.00  0.00     0.014 C
HETATM   10  C18 UNL     1       3.469   1.453 -26.441  1.00  0.00     0.033 C
BRANCH  10  11
HETATM   11  C17 UNL     1       2.719   2.543 -25.801  1.00  0.00     0.071 A
HETATM   12  N2  UNL     1       1.871   2.460 -24.819  1.00  0.00    -0.254 N
HETATM   13  N3  UNL     1       1.517   3.732 -24.468  1.00  0.00    -0.277 N
HETATM   14  C13 UNL     1       2.148   4.604 -25.244  1.00  0.00     0.133 A
ATOM     15  H3  UNL     1       0.865   3.974 -23.722  1.00  0.00     0.189 HD
HETATM   16  N4  UNL     1       2.328   5.942 -25.485  1.00  0.00    -0.350 N
HETATM   17  C16 UNL     1       2.944   3.917 -26.123  1.00  0.00     0.039 A
HETATM   18  C14 UNL     1       3.216   6.069 -26.499  1.00  0.00     0.091 A
ATOM     19  H4  UNL     1       1.872   6.708 -24.987  1.00  0.00     0.166 HD
HETATM   20  C15 UNL     1       3.609   4.820 -26.909  1.00  0.00     0.034 A
BRANCH  12  21
HETATM   21  C12 UNL     1       1.198   1.383 -24.146  1.00  0.00     0.062 A
HETATM   22  C11 UNL     1       0.353   1.736 -23.139  1.00  0.00     0.080 A
HETATM   23  C10 UNL     1      -0.174   0.732 -22.281  1.00  0.00     0.109 A
HETATM   24  N7  UNL     1       0.174  -0.549 -22.495  1.00  0.00    -0.342 N
HETATM   25  C28 UNL     1       1.007  -0.953 -23.489  1.00  0.00     0.047 A
ATOM     26  H7  UNL     1      -0.210  -1.261 -21.874  1.00  0.00     0.167 HD
HETATM   27  C27 UNL     1       1.508   0.054 -24.306  1.00  0.00     0.062 A
BRANCH  23  28
HETATM   28  N1  UNL     1      -0.880   1.100 -21.314  1.00  0.00    -0.323 N
HETATM   29  C9  UNL     1      -1.952   1.708 -20.956  1.00  0.00     0.151 C
ATOM     30  H1  UNL     1      -0.410   0.789 -20.463  1.00  0.00     0.169 HD
BRANCH  29  31
HETATM   31  C8  UNL     1      -3.122   2.376 -20.572  1.00  0.00     0.015 A
HETATM   32  C7  UNL     1      -4.175   2.075 -19.765  1.00  0.00     0.016 A
HETATM   33  C6  UNL     1      -5.263   2.919 -19.583  1.00  0.00     0.009 A
HETATM   34  C5  UNL     1      -5.343   4.102 -20.203  1.00  0.00    -0.051 A
HETATM   35  C35 UNL     1      -4.314   4.487 -21.049  1.00  0.00     0.009 A
HETATM   36  C34 UNL     1      -3.254   3.657 -21.224  1.00  0.00     0.016 A
BRANCH  34  37
HETATM   37  C2  UNL     1      -6.525   4.999 -19.988  1.00  0.00    -0.024 C
HETATM   38  C1  UNL     1      -7.154   4.791 -18.614  1.00  0.00     0.019 C
HETATM   39  C3  UNL     1      -6.099   6.431 -20.113  1.00  0.00     0.019 C
HETATM   40  C4  UNL     1      -7.592   4.732 -21.023  1.00  0.00     0.019 C
ENDBRANCH  34  37
ENDBRANCH  29  31
BRANCH  29  41
HETATM   41  O1  UNL     1      -2.110   0.651 -19.773  1.00  0.00    -0.345 OA
ATOM     42  H1  UNL     1      -1.533   0.034 -20.209  1.00  0.00     0.219 HD
ENDBRANCH  29  41
ENDBRANCH  23  28
BRANCH  25  43
HETATM   43  C29 UNL     1       1.434  -2.351 -23.634  1.00  0.00     0.006 A
HETATM   44  C30 UNL     1       2.442  -2.690 -24.512  1.00  0.00     0.016 A
HETATM   45  C31 UNL     1       2.935  -4.009 -24.621  1.00  0.00     0.018 A
HETATM   46  C32 UNL     1       2.379  -4.963 -23.818  1.00  0.00     0.087 A
HETATM   47  N6  UNL     1       1.389  -4.623 -22.966  1.00  0.00    -0.374 N
HETATM   48  C33 UNL     1       0.928  -3.345 -22.879  1.00  0.00     0.101 A
ATOM     49  H6  UNL     1       0.976  -5.341 -22.372  1.00  0.00     0.164 HD
ENDBRANCH  25  43
ENDBRANCH  12  21
ENDBRANCH  10  11
ENDBRANCH   1   9
TORSDOF 8
ENDMDL