MODEL 2
REMARK VINA RESULT: -9.869184943      2.211      4.125
REMARK  6 active torsions:
REMARK  status: ('A' for Active; 'I' for Inactive)
REMARK    1  A    between atoms: C3_4  and  C4_5
REMARK    2  A    between atoms: C12_13  and  C13_14
REMARK    3  A    between atoms: C16_17  and  C17_18
REMARK    4  A    between atoms: C23_27  and  N2_28
REMARK    5  A    between atoms: N2_28  and  S2_30
REMARK    6  A    between atoms: S2_30  and  C24_33
ROOT
HETATM    1  C13 UNL     1      -8.459   5.120 -22.625  1.00  0.00     0.086 A
HETATM    2  C14 UNL     1      -9.079   3.895 -22.566  1.00  0.00     0.041 A
HETATM    3  C15 UNL     1      -8.163   3.037 -21.984  1.00  0.00     0.041 A
HETATM    4  C16 UNL     1      -7.034   3.732 -21.706  1.00  0.00     0.090 A
HETATM    5  O4  UNL     1      -7.272   4.958 -22.109  1.00  0.00    -0.309 OA
ENDROOT
BRANCH   4   6
HETATM    6  C17 UNL     1      -5.775   3.339 -21.103  1.00  0.00     0.044 A
HETATM    7  C18 UNL     1      -4.729   2.948 -21.950  1.00  0.00     0.039 A
HETATM    8  C19 UNL     1      -3.493   2.559 -21.433  1.00  0.00     0.032 A
HETATM    9  S1  UNL     1      -2.024   2.035 -22.115  1.00  0.00    -0.100 SA
HETATM   10  C22 UNL     1      -3.242   2.538 -20.092  1.00  0.00     0.051 A
HETATM   11  C20 UNL     1      -1.122   1.800 -20.692  1.00  0.00     0.053 A
HETATM   12  C21 UNL     1      -2.004   2.142 -19.704  1.00  0.00     0.038 A
HETATM   13  N1  UNL     1      -4.294   2.928 -19.291  1.00  0.00    -0.340 N
HETATM   14  C23 UNL     1      -5.469   3.299 -19.781  1.00  0.00     0.128 A
ATOM     15  H1  UNL     1      -4.164   2.931 -18.279  1.00  0.00     0.167 HD
BRANCH  14  16
HETATM   16  N2  UNL     1      -6.382   3.642 -18.976  1.00  0.00    -0.265 N
ATOM     17  H2  UNL     1      -7.134   2.978 -18.790  1.00  0.00     0.180 HD
BRANCH  16  18
HETATM   18  S2  UNL     1      -6.428   5.149 -18.183  1.00  0.00     0.264 S
HETATM   19  O2  UNL     1      -7.739   5.420 -17.480  1.00  0.00    -0.200 OA
HETATM   20  O3  UNL     1      -5.339   5.350 -17.172  1.00  0.00    -0.200 OA
BRANCH  18  21
HETATM   21  C24 UNL     1      -6.217   6.416 -19.393  1.00  0.00     0.079 A
HETATM   22  C25 UNL     1      -4.992   6.629 -19.986  1.00  0.00     0.025 A
HETATM   23  C26 UNL     1      -4.829   7.609 -20.921  1.00  0.00     0.002 A
HETATM   24  C27 UNL     1      -5.880   8.413 -21.301  1.00  0.00     0.000 A
HETATM   25  C28 UNL     1      -7.094   8.193 -20.706  1.00  0.00     0.002 A
HETATM   26  C29 UNL     1      -7.264   7.203 -19.759  1.00  0.00     0.025 A
ENDBRANCH  18  21
ENDBRANCH  16  18
ENDBRANCH  14  16
ENDBRANCH   4   6
BRANCH   1  27
HETATM   27  C12 UNL     1      -9.026   6.372 -23.166  1.00  0.00    -0.001 A
HETATM   28  C11 UNL     1      -8.242   7.152 -23.982  1.00  0.00     0.029 A
HETATM   29  C10 UNL     1      -8.716   8.354 -24.530  1.00  0.00     0.003 A
HETATM   30  C3  UNL     1      -7.915   9.095 -25.337  1.00  0.00    -0.008 A
HETATM   31  C32 UNL     1     -10.000   8.760 -24.244  1.00  0.00     0.046 A
HETATM   32  C2  UNL     1      -8.440  10.282 -25.872  1.00  0.00     0.087 A
HETATM   33  C1  UNL     1      -9.727  10.635 -25.550  1.00  0.00     0.246 A
HETATM   34  O1  UNL     1     -10.239  11.701 -26.013  1.00  0.00    -0.268 OA
HETATM   35  N3  UNL     1     -10.495   9.893 -24.754  1.00  0.00    -0.323 N
ATOM     36  H3  UNL     1     -11.448  10.184 -24.536  1.00  0.00     0.169 HD
HETATM   37  C31 UNL     1     -10.808   7.979 -23.417  1.00  0.00     0.031 A
HETATM   38  C30 UNL     1     -10.298   6.808 -22.903  1.00  0.00     0.016 A
BRANCH  30  39
HETATM   39  C4  UNL     1      -6.535   8.748 -25.651  1.00  0.00    -0.025 A
HETATM   40  C5  UNL     1      -6.258   8.561 -26.993  1.00  0.00     0.012 A
HETATM   41  C6  UNL     1      -5.009   8.268 -27.451  1.00  0.00     0.001 A
HETATM   42  C7  UNL     1      -4.010   8.162 -26.513  1.00  0.00     0.000 A
HETATM   43  C8  UNL     1      -4.241   8.341 -25.166  1.00  0.00     0.001 A
HETATM   44  C9  UNL     1      -5.515   8.634 -24.755  1.00  0.00     0.012 A
ENDBRANCH  30  39
ENDBRANCH   1  27
TORSDOF 6
ENDMDL