MODEL 2
REMARK VINA RESULT: -10.212488367      2.220      4.236
REMARK  5 active torsions:
REMARK  status: ('A' for Active; 'I' for Inactive)
REMARK    1  A    between atoms: N1_14  and  C12_15
REMARK    2  A    between atoms: C12_15  and  C13_16
REMARK    3  A    between atoms: C21_24  and  C22_25
REMARK    4  A    between atoms: N4_32  and  C24_33
REMARK    5  A    between atoms: C29_38  and  C30_39
ROOT
HETATM    1  C1  UNL     1      -1.452   3.105 -21.980  1.00  0.00     0.025 C
HETATM    2  C2  UNL     1      -2.393   2.896 -21.153  1.00  0.00    -0.020 A
HETATM    3  C3  UNL     1      -2.435   1.740 -20.211  1.00  0.00    -0.013 A
HETATM    4  C4  UNL     1      -1.501   0.722 -20.083  1.00  0.00     0.013 A
HETATM    5  C5  UNL     1      -1.705  -0.262 -19.156  1.00  0.00     0.001 A
HETATM    6  C6  UNL     1      -2.815  -0.292 -18.310  1.00  0.00     0.001 A
HETATM    7  C7  UNL     1      -3.721   0.740 -18.474  1.00  0.00     0.015 A
HETATM    8  C8  UNL     1      -3.531   1.741 -19.408  1.00  0.00     0.010 A
HETATM    9  C9  UNL     1      -4.289   2.917 -19.795  1.00  0.00     0.099 A
HETATM   10  O1  UNL     1      -5.380   3.531 -19.450  1.00  0.00    -0.302 OA
HETATM   11  C10 UNL     1      -5.539   4.610 -20.177  1.00  0.00     0.156 A
HETATM   12  C11 UNL     1      -6.517   5.564 -20.164  1.00  0.00     0.287 A
HETATM   13  O2  UNL     1      -7.484   5.539 -19.386  1.00  0.00    -0.264 OA
HETATM   14  N1  UNL     1      -6.467   6.617 -21.040  1.00  0.00    -0.286 N
HETATM   15  C19 UNL     1      -5.450   6.724 -21.947  1.00  0.00     0.054 A
HETATM   16  C20 UNL     1      -5.432   7.764 -22.859  1.00  0.00     0.042 A
HETATM   17  C21 UNL     1      -4.432   7.873 -23.823  1.00  0.00    -0.012 A
HETATM   18  C32 UNL     1      -3.492   6.897 -23.804  1.00  0.00     0.012 A
HETATM   19  C33 UNL     1      -3.470   5.822 -22.886  1.00  0.00     0.015 A
HETATM   20  C34 UNL     1      -4.442   5.739 -21.956  1.00  0.00     0.005 A
HETATM   21  C35 UNL     1      -4.474   4.693 -21.071  1.00  0.00     0.030 A
HETATM   22  C36 UNL     1      -3.650   3.611 -20.828  1.00  0.00     0.023 A
ENDROOT
BRANCH  17  23
HETATM   23  C22 UNL     1      -4.442   9.040 -24.691  1.00  0.00     0.242 C
HETATM   24  N2  UNL     1      -3.141   8.957 -25.423  1.00  0.00    -0.339 N
HETATM   25  C23 UNL     1      -3.441   8.458 -26.707  1.00  0.00     0.188 C
ATOM     26  H2  UNL     1      -2.220   9.212 -25.066  1.00  0.00     0.164 HD
HETATM   27  S1  UNL     1      -2.329   7.884 -27.772  1.00  0.00    -0.039 SA
HETATM   28  N3  UNL     1      -4.839   8.564 -26.902  1.00  0.00    -0.271 N
HETATM   29  N4  UNL     1      -5.406   9.159 -25.711  1.00  0.00    -0.261 N
ATOM     30  H3  UNL     1      -5.355   8.272 -27.733  1.00  0.00     0.189 HD
BRANCH  29  31
HETATM   31  C24 UNL     1      -6.690   9.744 -25.837  1.00  0.00     0.060 A
HETATM   32  C25 UNL     1      -6.877  11.085 -26.028  1.00  0.00     0.032 A
HETATM   33  C26 UNL     1      -8.112  11.698 -26.130  1.00  0.00     0.002 A
HETATM   34  C27 UNL     1      -9.242  10.920 -26.048  1.00  0.00     0.001 A
HETATM   35  C28 UNL     1      -9.115   9.570 -25.866  1.00  0.00     0.009 A
HETATM   36  C29 UNL     1      -7.852   8.968 -25.753  1.00  0.00    -0.030 A
BRANCH  36  37
HETATM   37  C30 UNL     1      -7.731   7.520 -25.544  1.00  0.00     0.036 C
HETATM   38  C31 UNL     1      -8.870   6.789 -26.220  1.00  0.00     0.010 C
ENDBRANCH  36  37
ENDBRANCH  29  31
ENDBRANCH  17  23
BRANCH  14  39
HETATM   39  C12 UNL     1      -7.364   7.702 -20.821  1.00  0.00     0.112 C
BRANCH  39  40
HETATM   40  C13 UNL     1      -8.507   7.852 -21.691  1.00  0.00    -0.020 A
HETATM   41  C14 UNL     1      -8.791   9.201 -22.041  1.00  0.00     0.013 A
HETATM   42  C15 UNL     1      -9.881   9.514 -22.793  1.00  0.00     0.001 A
HETATM   43  C16 UNL     1     -10.720   8.541 -23.225  1.00  0.00     0.000 A
HETATM   44  C17 UNL     1     -10.501   7.216 -22.925  1.00  0.00     0.001 A
HETATM   45  C18 UNL     1      -9.375   6.907 -22.152  1.00  0.00     0.013 A
ENDBRANCH  39  40
ENDBRANCH  14  39
TORSDOF 5
ENDMDL