MODEL 5
REMARK VINA RESULT: -8.553352092     10.192     14.049
REMARK  9 active torsions:
REMARK  status: ('A' for Active; 'I' for Inactive)
REMARK    1  A    between atoms: C3_3  and  C4_4
REMARK    2  A    between atoms: C11_13  and  C12_14
REMARK    3  A    between atoms: C13_15  and  C14_16
REMARK    4  A    between atoms: C17_19  and  C18_20
REMARK    5  A    between atoms: N2_30  and  C27_31
REMARK    6  A    between atoms: C27_31  and  O1_32
REMARK    7  A    between atoms: C27_31  and  C28_34
REMARK    8  A    between atoms: C28_34  and  N3_35
REMARK    9  A    between atoms: C28_34  and  C29_39
ROOT
HETATM    1  C1  UNL     1       3.571  -4.769 -25.711  1.00  0.00     0.112 C
HETATM    2  C2  UNL     1       3.616  -3.713 -26.725  1.00  0.00    -0.104 C
HETATM    3  C3  UNL     1       3.626  -2.825 -27.573  1.00  0.00    -0.049 C
ENDROOT
BRANCH   3   4
HETATM    4  C4  UNL     1       3.579  -1.815 -28.592  1.00  0.00     0.096 A
HETATM    5  N1  UNL     1       3.481  -2.116 -29.911  1.00  0.00    -0.348 N
HETATM    6  C5  UNL     1       3.373  -0.979 -30.607  1.00  0.00     0.044 A
ATOM      7  H1  UNL     1       3.488  -3.055 -30.308  1.00  0.00     0.167 HD
HETATM    8  C6  UNL     1       3.255  -0.780 -31.956  1.00  0.00     0.030 A
HETATM    9  C10 UNL     1       3.403   0.084 -29.697  1.00  0.00     0.002 A
HETATM   10  C7  UNL     1       3.163   0.494 -32.471  1.00  0.00     0.002 A
HETATM   11  C8  UNL     1       3.194   1.546 -31.589  1.00  0.00     0.001 A
HETATM   12  C9  UNL     1       3.312   1.337 -30.230  1.00  0.00     0.014 A
HETATM   13  C11 UNL     1       3.537  -0.431 -28.397  1.00  0.00     0.014 A
BRANCH  13  14
HETATM   14  C12 UNL     1       3.714   0.280 -27.103  1.00  0.00     0.142 C
HETATM   15  C13 UNL     1       2.693   1.351 -26.886  1.00  0.00     0.109 C
HETATM   16  S1  UNL     1       3.581   2.947 -26.924  1.00  0.00    -0.137 SA
HETATM   17  C26 UNL     1       5.118   2.171 -27.553  1.00  0.00     0.200 C
HETATM   18  N2  UNL     1       5.017   0.845 -26.915  1.00  0.00    -0.344 N
BRANCH  15  19
HETATM   19  C14 UNL     1       2.042   1.302 -25.524  1.00  0.00    -0.042 A
HETATM   20  C15 UNL     1       2.129   2.423 -24.701  1.00  0.00     0.009 A
HETATM   21  C16 UNL     1       1.572   2.406 -23.429  1.00  0.00     0.013 A
HETATM   22  C17 UNL     1       0.920   1.282 -22.948  1.00  0.00    -0.026 A
HETATM   23  C24 UNL     1       0.835   0.189 -23.750  1.00  0.00     0.013 A
HETATM   24  C25 UNL     1       1.397   0.221 -25.019  1.00  0.00     0.009 A
BRANCH  22  25
HETATM   25  C18 UNL     1       0.358   1.334 -21.587  1.00  0.00    -0.026 A
HETATM   26  C19 UNL     1       0.567   2.412 -20.769  1.00  0.00     0.012 A
HETATM   27  C20 UNL     1       0.029   2.457 -19.500  1.00  0.00     0.001 A
HETATM   28  C21 UNL     1      -0.730   1.384 -19.064  1.00  0.00     0.000 A
HETATM   29  C22 UNL     1      -0.954   0.288 -19.871  1.00  0.00     0.001 A
HETATM   30  C23 UNL     1      -0.398   0.285 -21.134  1.00  0.00     0.012 A
ENDBRANCH  22  25
ENDBRANCH  15  19
BRANCH  18  31
HETATM   31  C27 UNL     1       6.098   0.401 -26.170  1.00  0.00     0.150 C
BRANCH  31  32
HETATM   32  O1  UNL     1       7.192   1.153 -26.268  1.00  0.00    -0.348 OA
ATOM     33  H1  UNL     1       7.993   0.732 -25.980  1.00  0.00     0.219 HD
ENDBRANCH  31  32
BRANCH  31  34
HETATM   34  C28 UNL     1       6.330  -0.723 -25.272  1.00  0.00     0.290 C
BRANCH  34  35
HETATM   35  N3  UNL     1       6.367  -2.026 -25.816  1.00  0.00    -0.064 N
ATOM     36  H33 UNL     1       5.815  -2.647 -25.224  1.00  0.00     0.275 HD
ATOM     37  H32 UNL     1       5.821  -2.040 -26.678  1.00  0.00     0.275 HD
ATOM     38  H31 UNL     1       7.275  -2.455 -25.992  1.00  0.00     0.275 HD
ENDBRANCH  34  35
BRANCH  34  39
HETATM   39  C29 UNL     1       5.407  -0.705 -24.094  1.00  0.00    -0.019 A
HETATM   40  C30 UNL     1       5.329   0.386 -23.266  1.00  0.00     0.012 A
HETATM   41  C31 UNL     1       4.477   0.399 -22.155  1.00  0.00     0.033 A
HETATM   42  C32 UNL     1       3.707  -0.725 -21.908  1.00  0.00     0.067 A
HETATM   43  N4  UNL     1       2.815  -1.021 -20.943  1.00  0.00    -0.261 N
HETATM   44  C34 UNL     1       3.769  -1.831 -22.725  1.00  0.00     0.017 A
HETATM   45  O2  UNL     1       2.337  -2.219 -21.120  1.00  0.00    -0.249 OA
ATOM     46  H4  UNL     1       2.551  -0.396 -20.182  1.00  0.00     0.195 HD
HETATM   47  C33 UNL     1       2.894  -2.751 -22.199  1.00  0.00     0.181 A
HETATM   48  C35 UNL     1       4.613  -1.801 -23.798  1.00  0.00     0.025 A
ENDBRANCH  34  39
ENDBRANCH  31  34
ENDBRANCH  18  31
ENDBRANCH  13  14
ENDBRANCH   3   4
TORSDOF 9
ENDMDL