MODEL 4
REMARK VINA RESULT: -10.981392886      2.012     10.055
REMARK  7 active torsions:
REMARK  status: ('A' for Active; 'I' for Inactive)
REMARK       I    between atoms: C1_2  and  N1_3
REMARK    1  A    between atoms: C1_2  and  C27_40
REMARK    2  A    between atoms: N1_3  and  C2_5
REMARK    3  A    between atoms: C3_8  and  N3_9
REMARK    4  A    between atoms: N3_9  and  C4_11
REMARK    5  A    between atoms: C4_11  and  C5_12
REMARK    6  A    between atoms: N4_28  and  C20_29
REMARK    7  A    between atoms: C20_29  and  C21_30
ROOT
HETATM    1  C2  UNL     1      -4.305   6.873 -22.158  1.00  0.00     0.688 A
HETATM    2  N2  UNL     1      -3.314   5.965 -22.090  1.00  0.00    -0.176 N
ATOM      3  H2  UNL     1      -2.406   6.185 -22.501  1.00  0.00     0.186 HD
HETATM    4  C3  UNL     1      -3.495   4.772 -21.493  1.00  0.00     0.132 A
HETATM    5  C13 UNL     1      -4.746   4.528 -20.955  1.00  0.00     0.066 A
HETATM    6  C14 UNL     1      -5.228   3.417 -20.286  1.00  0.00     0.009 A
HETATM    7  C15 UNL     1      -4.640   2.219 -19.944  1.00  0.00     0.015 A
HETATM    8  C16 UNL     1      -5.362   1.268 -19.259  1.00  0.00     0.001 A
HETATM    9  C17 UNL     1      -6.667   1.579 -18.947  1.00  0.00     0.002 A
HETATM   10  C18 UNL     1      -7.252   2.779 -19.293  1.00  0.00     0.030 A
HETATM   11  C19 UNL     1      -6.534   3.731 -19.977  1.00  0.00     0.047 A
HETATM   12  N4  UNL     1      -6.870   4.957 -20.417  1.00  0.00    -0.327 N
HETATM   13  C26 UNL     1      -5.768   5.448 -21.019  1.00  0.00     0.139 A
HETATM   14  N6  UNL     1      -5.511   6.621 -21.632  1.00  0.00    -0.175 N
ATOM     15  H6  UNL     1      -6.246   7.326 -21.697  1.00  0.00     0.186 HD
ENDROOT
BRANCH   1  16
HETATM   16  N1  UNL     1      -4.145   8.026 -22.729  1.00  0.00    -0.155 N
HETATM   17  C1  UNL     1      -4.074   8.207 -24.128  1.00  0.00     0.269 C
HETATM   18  O1  UNL     1      -3.069   7.745 -24.727  1.00  0.00    -0.267 OA
ATOM     19  H1  UNL     1      -4.068   8.850 -22.134  1.00  0.00     0.187 HD
BRANCH  17  20
HETATM   20  C27 UNL     1      -5.100   8.896 -24.896  1.00  0.00     0.033 A
HETATM   21  C28 UNL     1      -4.955   9.078 -26.262  1.00  0.00     0.018 A
HETATM   22  C29 UNL     1      -5.929   9.730 -26.980  1.00  0.00     0.013 A
HETATM   23  C30 UNL     1      -7.076  10.226 -26.376  1.00  0.00    -0.026 A
HETATM   24  C31 UNL     1      -8.045  10.881 -27.118  1.00  0.00     0.012 A
HETATM   25  C35 UNL     1      -7.205  10.038 -25.016  1.00  0.00    -0.025 A
HETATM   26  C32 UNL     1      -9.170  11.364 -26.508  1.00  0.00     0.001 A
HETATM   27  C33 UNL     1      -9.337  11.198 -25.156  1.00  0.00     0.001 A
HETATM   28  C34 UNL     1      -8.361  10.542 -24.426  1.00  0.00     0.012 A
HETATM   29  C36 UNL     1      -6.232   9.383 -24.282  1.00  0.00     0.029 A
ENDBRANCH  17  20
ENDBRANCH   1  16
BRANCH   4  30
HETATM   30  N3  UNL     1      -2.537   3.914 -21.435  1.00  0.00    -0.369 N
ATOM     31  H3  UNL     1      -1.911   3.955 -20.631  1.00  0.00     0.161 HD
BRANCH  30  32
HETATM   32  C4  UNL     1      -2.291   2.909 -22.420  1.00  0.00     0.186 C
BRANCH  32  33
HETATM   33  C5  UNL     1      -1.174   2.048 -21.896  1.00  0.00     0.072 A
HETATM   34  C6  UNL     1      -1.269   0.936 -21.098  1.00  0.00     0.048 A
HETATM   35  C7  UNL     1       0.018   0.492 -20.884  1.00  0.00     0.000 A
HETATM   36  C8  UNL     1       0.541  -0.566 -20.174  1.00  0.00     0.014 A
HETATM   37  C12 UNL     1       0.850   1.372 -21.576  1.00  0.00     0.086 A
HETATM   38  C9  UNL     1       1.916  -0.771 -20.137  1.00  0.00     0.001 A
HETATM   39  C10 UNL     1       2.731   0.103 -20.823  1.00  0.00     0.003 A
HETATM   40  C11 UNL     1       2.210   1.161 -21.534  1.00  0.00     0.038 A
HETATM   41  O2  UNL     1       0.074   2.263 -22.148  1.00  0.00    -0.313 OA
ENDBRANCH  32  33
ENDBRANCH  30  32
ENDBRANCH   4  30
BRANCH  12  42
HETATM   42  C20 UNL     1      -8.159   5.625 -20.278  1.00  0.00     0.170 C
BRANCH  42  43
HETATM   43  C21 UNL     1      -8.776   5.983 -21.544  1.00  0.00    -0.025 A
HETATM   44  C22 UNL     1      -9.146   7.277 -21.824  1.00  0.00     0.011 A
HETATM   45  C23 UNL     1      -9.745   7.632 -23.040  1.00  0.00     0.018 A
HETATM   46  C24 UNL     1      -9.943   6.601 -23.942  1.00  0.00     0.087 A
HETATM   47  N5  UNL     1      -9.584   5.335 -23.672  1.00  0.00    -0.375 N
HETATM   48  C25 UNL     1      -9.016   5.038 -22.503  1.00  0.00     0.096 A
ATOM     49  H5  UNL     1      -9.745   4.601 -24.361  1.00  0.00     0.164 HD
ENDBRANCH  42  43
ENDBRANCH  12  42
TORSDOF 7
ENDMDL