MODEL 4
REMARK VINA RESULT: -8.972886448      1.026      1.956
REMARK  5 active torsions:
REMARK  status: ('A' for Active; 'I' for Inactive)
REMARK    1  A    between atoms: C3_3  and  C4_4
REMARK    2  A    between atoms: C13_15  and  C14_16
REMARK       I    between atoms: C14_16  and  N2_18
REMARK    3  A    between atoms: N2_18  and  N3_19
REMARK    4  A    between atoms: C15_21  and  C16_22
REMARK    5  A    between atoms: C26_34  and  O2_35
ROOT
HETATM    1  C4  UNL     1       2.722  -2.445 -23.091  1.00  0.00    -0.023 A
HETATM    2  C5  UNL     1       4.034  -2.082 -22.753  1.00  0.00     0.012 A
HETATM    3  C6  UNL     1       4.235  -1.071 -21.866  1.00  0.00     0.002 A
HETATM    4  C7  UNL     1       3.147  -0.388 -21.286  1.00  0.00     0.012 A
HETATM    5  C8  UNL     1       1.863  -0.709 -21.590  1.00  0.00    -0.024 A
HETATM    6  C9  UNL     1       0.645  -0.158 -21.046  1.00  0.00    -0.006 A
HETATM    7  C10 UNL     1      -0.118  -1.107 -20.266  1.00  0.00     0.030 A
HETATM    8  C11 UNL     1      -1.249  -0.668 -19.683  1.00  0.00     0.088 A
HETATM    9  N1  UNL     1      -1.697   0.589 -19.787  1.00  0.00    -0.374 N
ATOM     10  H1  UNL     1      -2.561   0.866 -19.323  1.00  0.00     0.164 HD
HETATM   11  C12 UNL     1      -0.979   1.503 -20.526  1.00  0.00     0.106 A
HETATM   12  C13 UNL     1       0.211   1.085 -21.161  1.00  0.00     0.075 A
HETATM   13  C29 UNL     1       1.674  -1.766 -22.518  1.00  0.00     0.024 A
ENDROOT
BRANCH  12  14
HETATM   14  C14 UNL     1       0.869   2.134 -22.016  1.00  0.00     0.348 C
HETATM   15  O1  UNL     1       1.049   3.266 -21.426  1.00  0.00    -0.249 OA
HETATM   16  N2  UNL     1       1.216   1.915 -23.239  1.00  0.00    -0.282 NA
BRANCH  16  17
HETATM   17  N3  UNL     1       1.599   1.681 -24.580  1.00  0.00    -0.242 N
HETATM   18  C15 UNL     1       2.848   1.605 -24.863  1.00  0.00     0.134 C
ATOM     19  H3  UNL     1       0.894   1.574 -25.309  1.00  0.00     0.201 HD
BRANCH  18  20
HETATM   20  C16 UNL     1       3.553   1.376 -26.093  1.00  0.00     0.007 A
HETATM   21  C17 UNL     1       4.868   0.846 -26.069  1.00  0.00     0.003 A
HETATM   22  C18 UNL     1       5.517   0.637 -24.886  1.00  0.00     0.014 A
HETATM   23  C22 UNL     1       5.525   0.540 -27.245  1.00  0.00     0.043 A
HETATM   24  C19 UNL     1       6.822   0.120 -24.807  1.00  0.00     0.001 A
HETATM   25  C20 UNL     1       7.467  -0.185 -25.957  1.00  0.00     0.002 A
HETATM   26  C21 UNL     1       6.818   0.026 -27.167  1.00  0.00     0.030 A
HETATM   27  N4  UNL     1       4.922   0.745 -28.397  1.00  0.00    -0.355 N
HETATM   28  C23 UNL     1       3.686   1.245 -28.519  1.00  0.00     0.044 A
ATOM     29  H4  UNL     1       5.428   0.507 -29.250  1.00  0.00     0.166 HD
HETATM   30  C24 UNL     1       3.094   1.421 -29.761  1.00  0.00     0.033 A
HETATM   31  C28 UNL     1       2.982   1.570 -27.361  1.00  0.00     0.006 A
HETATM   32  C25 UNL     1       1.817   1.913 -29.891  1.00  0.00     0.039 A
HETATM   33  C26 UNL     1       1.106   2.241 -28.772  1.00  0.00     0.066 A
HETATM   34  C27 UNL     1       1.709   2.061 -27.516  1.00  0.00     0.051 A
BRANCH  33  35
HETATM   35  O2  UNL     1      -0.194   2.743 -28.805  1.00  0.00    -0.361 OA
ATOM     36  H2  UNL     1      -0.495   3.456 -28.254  1.00  0.00     0.217 HD
ENDBRANCH  33  35
ENDBRANCH  18  20
ENDBRANCH  16  17
ENDBRANCH  12  14
BRANCH   1  37
HETATM   37  C3  UNL     1       2.502  -3.583 -23.954  1.00  0.00    -0.003 A
HETATM   38  C2  UNL     1       3.013  -3.479 -25.267  1.00  0.00     0.018 A
HETATM   39  C1  UNL     1       3.717  -2.230 -25.596  1.00  0.00     0.069 C
HETATM   40  N5  UNL     1       2.865  -4.467 -26.168  1.00  0.00    -0.354 N
HETATM   41  C36 UNL     1       2.208  -5.578 -25.797  1.00  0.00     0.044 A
HETATM   42  C37 UNL     1       3.398  -4.330 -27.508  1.00  0.00     0.156 C
HETATM   43  C31 UNL     1       1.676  -5.760 -24.536  1.00  0.00    -0.008 A
HETATM   44  C35 UNL     1       2.020  -6.624 -26.698  1.00  0.00     0.030 A
HETATM   45  C30 UNL     1       1.837  -4.730 -23.612  1.00  0.00     0.028 A
HETATM   46  C32 UNL     1       1.005  -6.873 -24.142  1.00  0.00     0.014 A
HETATM   47  C33 UNL     1       0.825  -7.914 -25.059  1.00  0.00     0.001 A
HETATM   48  C34 UNL     1       1.329  -7.790 -26.327  1.00  0.00     0.002 A
ENDBRANCH   1  37
TORSDOF 5
ENDMDL