MODEL 2
REMARK VINA RESULT: -9.452014117      3.485     11.629
REMARK  6 active torsions:
REMARK  status: ('A' for Active; 'I' for Inactive)
REMARK       I    between atoms: C2_2  and  N1_4
REMARK    1  A    between atoms: N1_4  and  C3_6
REMARK    2  A    between atoms: C6_9  and  C7_10
REMARK    3  A    between atoms: C10_13  and  N2_14
REMARK    4  A    between atoms: C22_28  and  C23_29
REMARK    5  A    between atoms: C26_34  and  N5_35
REMARK       I    between atoms: N5_35  and  C27_37
REMARK    6  A    between atoms: C27_37  and  C28_39
ROOT
HETATM    1  C7  UNL     1      -1.790   2.562 -21.135  1.00  0.00    -0.025 A
HETATM    2  C8  UNL     1      -1.321   1.674 -20.199  1.00  0.00     0.014 A
HETATM    3  C9  UNL     1      -0.150   1.021 -20.401  1.00  0.00     0.032 A
HETATM    4  C10 UNL     1       0.616   1.237 -21.577  1.00  0.00     0.053 A
HETATM    5  C22 UNL     1       0.179   2.108 -22.522  1.00  0.00     0.019 A
HETATM    6  C34 UNL     1      -1.022   2.758 -22.284  1.00  0.00     0.028 A
ENDROOT
BRANCH   5   7
HETATM    7  C23 UNL     1       0.919   2.364 -23.740  1.00  0.00     0.063 A
HETATM    8  C24 UNL     1       1.480   3.626 -23.928  1.00  0.00     0.048 A
HETATM    9  C25 UNL     1       2.197   3.897 -25.098  1.00  0.00     0.108 A
HETATM   10  N4  UNL     1       2.354   2.968 -26.036  1.00  0.00    -0.202 N
HETATM   11  C26 UNL     1       1.809   1.755 -25.843  1.00  0.00     0.685 A
ATOM     12  H4  UNL     1       2.879   3.172 -26.887  1.00  0.00     0.183 HD
HETATM   13  N6  UNL     1       1.123   1.495 -24.726  1.00  0.00    -0.191 N
ATOM     14  H6  UNL     1       0.725   0.562 -24.623  1.00  0.00     0.184 HD
BRANCH  11  15
HETATM   15  N5  UNL     1       1.970   0.847 -26.775  1.00  0.00    -0.155 N
HETATM   16  C27 UNL     1       3.234   0.602 -27.337  1.00  0.00     0.269 C
HETATM   17  O2  UNL     1       3.547   1.163 -28.431  1.00  0.00    -0.267 OA
ATOM     18  H5  UNL     1       1.165   0.310 -27.097  1.00  0.00     0.187 HD
BRANCH  16  19
HETATM   19  C28 UNL     1       4.233  -0.265 -26.747  1.00  0.00     0.032 A
HETATM   20  C29 UNL     1       5.075   0.258 -25.790  1.00  0.00     0.017 A
HETATM   21  C30 UNL     1       6.053  -0.514 -25.185  1.00  0.00     0.001 A
HETATM   22  C31 UNL     1       6.190  -1.821 -25.541  1.00  0.00     0.000 A
HETATM   23  C32 UNL     1       5.369  -2.384 -26.493  1.00  0.00     0.001 A
HETATM   24  C33 UNL     1       4.403  -1.590 -27.079  1.00  0.00     0.017 A
ENDBRANCH  16  19
ENDBRANCH  11  15
ENDBRANCH   5   7
BRANCH   4  25
HETATM   25  N2  UNL     1       1.825   0.507 -21.697  1.00  0.00    -0.307 N
HETATM   26  C11 UNL     1       3.005   0.883 -21.123  1.00  0.00     0.100 A
HETATM   27  C12 UNL     1       3.981  -0.053 -21.370  1.00  0.00     0.033 A
HETATM   28  C13 UNL     1       3.410  -1.045 -22.116  1.00  0.00     0.011 A
HETATM   29  C14 UNL     1       3.941  -2.210 -22.629  1.00  0.00     0.029 A
HETATM   30  C21 UNL     1       2.096  -0.669 -22.296  1.00  0.00     0.123 A
HETATM   31  C15 UNL     1       3.078  -3.024 -23.361  1.00  0.00    -0.009 A
HETATM   32  C16 UNL     1       3.544  -4.207 -23.903  1.00  0.00     0.014 A
HETATM   33  C20 UNL     1       1.758  -2.614 -23.523  1.00  0.00     0.044 A
HETATM   34  C17 UNL     1       2.675  -4.995 -24.622  1.00  0.00     0.001 A
HETATM   35  C18 UNL     1       1.356  -4.626 -24.808  1.00  0.00     0.002 A
HETATM   36  C19 UNL     1       0.913  -3.444 -24.258  1.00  0.00     0.030 A
HETATM   37  N3  UNL     1       1.294  -1.462 -22.997  1.00  0.00    -0.341 N
ATOM     38  H3  UNL     1       0.319  -1.198 -23.138  1.00  0.00     0.167 HD
ENDBRANCH   4  25
BRANCH   1  39
HETATM   39  C6  UNL     1      -3.044   3.280 -20.947  1.00  0.00    -0.026 A
HETATM   40  C5  UNL     1      -4.164   2.701 -20.402  1.00  0.00     0.014 A
HETATM   41  C4  UNL     1      -5.341   3.371 -20.223  1.00  0.00     0.030 A
HETATM   42  C3  UNL     1      -5.438   4.713 -20.607  1.00  0.00     0.034 A
HETATM   43  C36 UNL     1      -4.347   5.311 -21.151  1.00  0.00     0.030 A
HETATM   44  C35 UNL     1      -3.157   4.594 -21.318  1.00  0.00     0.014 A
BRANCH  42  45
HETATM   45  N1  UNL     1      -6.666   5.369 -20.437  1.00  0.00    -0.328 N
HETATM   46  C2  UNL     1      -7.617   5.582 -21.424  1.00  0.00     0.218 C
HETATM   47  C1  UNL     1      -8.900   6.303 -21.067  1.00  0.00     0.117 C
HETATM   48  O1  UNL     1      -7.466   5.203 -22.607  1.00  0.00    -0.274 OA
ATOM     49  H1  UNL     1      -6.879   5.720 -19.504  1.00  0.00     0.169 HD
ENDBRANCH  42  45
ENDBRANCH   1  39
TORSDOF 6
ENDMDL