MODEL 1
REMARK VINA RESULT: -6.027380891      0.000      0.000
REMARK  6 active torsions:
REMARK  status: ('A' for Active; 'I' for Inactive)
REMARK    1  A    between atoms: C3_5  and  N2_6
REMARK    2  A    between atoms: C4_11  and  N4_12
REMARK    3  A    between atoms: C5_15  and  C6_16
REMARK    4  A    between atoms: C6_16  and  C7_17
REMARK    5  A    between atoms: C7_17  and  C8_18
REMARK    6  A    between atoms: C8_18  and  N5_19
ROOT
HETATM    1  C1  UNL     1      -3.027  33.586  -6.396  1.00  0.00     0.069 C
HETATM    2  C2  UNL     1      -2.702  32.133  -6.414  1.00  0.00     0.032 A
HETATM    3  N1  UNL     1      -3.441  31.284  -5.632  1.00  0.00    -0.196 N
ATOM      4  H1  UNL     1      -4.224  31.660  -5.098  1.00  0.00     0.184 HD
HETATM    5  C3  UNL     1      -3.166  29.967  -5.548  1.00  0.00     0.677 A
HETATM    6  N3  UNL     1      -2.135  29.470  -6.253  1.00  0.00    -0.177 N
ATOM      7  H3  UNL     1      -1.917  28.474  -6.196  1.00  0.00     0.185 HD
HETATM    8  C4  UNL     1      -1.394  30.263  -7.026  1.00  0.00     0.122 A
HETATM    9  C5  UNL     1      -1.647  31.639  -7.141  1.00  0.00     0.009 A
ENDROOT
BRANCH   9  10
HETATM   10  C6  UNL     1      -0.813  32.425  -8.078  1.00  0.00     0.046 C
BRANCH  10  11
HETATM   11  C7  UNL     1      -1.407  32.741  -9.396  1.00  0.00     0.035 C
BRANCH  11  12
HETATM   12  C8  UNL     1      -1.131  31.866 -10.545  1.00  0.00     0.272 C
BRANCH  12  13
HETATM   13  N5  UNL     1      -2.091  30.770 -10.660  1.00  0.00     0.088 N
HETATM   14  C9  UNL     1      -2.307  30.294 -11.997  1.00  0.00     0.274 C
HETATM   15  C10 UNL     1      -3.787  30.549 -11.784  1.00  0.00     0.060 C
HETATM   16  C11 UNL     1      -3.459  31.165 -10.435  1.00  0.00     0.274 C
ENDBRANCH  12  13
ENDBRANCH  11  12
ENDBRANCH  10  11
ENDBRANCH   9  10
BRANCH   8  17
HETATM   17  N4  UNL     1      -0.420  29.733  -7.685  1.00  0.00    -0.385 N
ATOM     18  H42 UNL     1      -0.610  29.001  -8.369  1.00  0.00     0.157 HD
ATOM     19  H41 UNL     1       0.526  30.066  -7.497  1.00  0.00     0.157 HD
ENDBRANCH   8  17
BRANCH   5  20
HETATM   20  N2  UNL     1      -3.883  29.177  -4.805  1.00  0.00    -0.234 N
ATOM     21  H22 UNL     1      -4.900  29.255  -4.815  1.00  0.00     0.174 HD
ATOM     22  H21 UNL     1      -3.447  28.478  -4.204  1.00  0.00     0.174 HD
ENDBRANCH   5  20
TORSDOF 6
ENDMDL