MODEL 1
REMARK VINA RESULT: -5.458202221      0.000      0.000
REMARK  5 active torsions:
REMARK  status: ('A' for Active; 'I' for Inactive)
REMARK    1  A    between atoms: N3_8  and  C3_10
REMARK    2  A    between atoms: C7_14  and  S1_15
REMARK    3  A    between atoms: S1_15  and  C8_16
REMARK    4  A    between atoms: C8_16  and  C9_17
REMARK    5  A    between atoms: C9_17  and  N4_18
ROOT
HETATM    1  N1  UNL     1      -3.996  29.024  -4.839  1.00  0.00    -0.371 N
ATOM      2  H11 UNL     1      -4.510  28.765  -3.996  1.00  0.00     0.159 HD
ATOM      3  H12 UNL     1      -4.146  28.247  -5.481  1.00  0.00     0.159 HD
HETATM    4  C1  UNL     1      -3.315  30.099  -5.031  1.00  0.00     0.175 C
HETATM    5  N2  UNL     1      -2.593  30.463  -6.213  1.00  0.00    -0.316 N
ATOM      6  H2  UNL     1      -2.532  29.901  -7.062  1.00  0.00     0.170 HD
HETATM    7  C2  UNL     1      -1.972  31.731  -6.021  1.00  0.00     0.113 C
HETATM    8  N3  UNL     1      -1.516  32.517  -6.936  1.00  0.00    -0.373 N
ATOM      9  H3  UNL     1      -1.087  33.409  -6.688  1.00  0.00     0.161 HD
HETATM   10  C7  UNL     1      -1.957  31.967  -4.533  1.00  0.00     0.214 C
HETATM   11  N5  UNL     1      -3.104  31.189  -4.130  1.00  0.00    -0.342 N
ATOM     12  H5  UNL     1      -3.685  31.389  -3.316  1.00  0.00     0.164 HD
ENDROOT
BRANCH  10  13
HETATM   13  S1  UNL     1      -2.164  33.730  -4.245  1.00  0.00    -0.134 SA
BRANCH  13  14
HETATM   14  C8  UNL     1      -3.892  34.195  -4.072  1.00  0.00     0.103 C
BRANCH  14  15
HETATM   15  C9  UNL     1      -4.520  34.310  -5.444  1.00  0.00     0.239 C
BRANCH  15  16
HETATM   16  N4  UNL     1      -5.387  33.197  -5.746  1.00  0.00    -0.079 N
ATOM     17  H43 UNL     1      -4.875  32.448  -6.213  1.00  0.00     0.274 HD
ATOM     18  H42 UNL     1      -5.661  32.703  -4.897  1.00  0.00     0.274 HD
ATOM     19  H41 UNL     1      -6.204  33.477  -6.288  1.00  0.00     0.274 HD
ENDBRANCH  15  16
ENDBRANCH  14  15
ENDBRANCH  13  14
ENDBRANCH  10  13
BRANCH   8  20
HETATM   20  C3  UNL     1      -1.622  32.115  -8.300  1.00  0.00     0.082 C
HETATM   21  C4  UNL     1      -0.406  31.358  -8.850  1.00  0.00     0.025 C
HETATM   22  C5  UNL     1      -0.729  32.038 -10.188  1.00  0.00     0.004 C
HETATM   23  C6  UNL     1      -1.320  33.172  -9.340  1.00  0.00     0.025 C
ENDBRANCH   8  20
TORSDOF 5
ENDMDL