MODEL 2
REMARK VINA RESULT: -5.940349765      2.694      5.484
REMARK  4 active torsions:
REMARK  status: ('A' for Active; 'I' for Inactive)
REMARK    1  A    between atoms: C2_2  and  C3_3
REMARK    2  A    between atoms: C3_3  and  N1_4
REMARK    3  A    between atoms: C5_9  and  N3_10
REMARK    4  A    between atoms: C6_15  and  C7_16
ROOT
HETATM    1  N1  UNL     1      -3.839  32.823  -2.601  1.00  0.00    -0.351 N
ATOM      2  H1  UNL     1      -4.351  32.141  -2.042  1.00  0.00     0.166 HD
HETATM    3  C4  UNL     1      -3.549  32.224  -3.602  1.00  0.00     0.143 A
HETATM    4  N2  UNL     1      -3.934  30.913  -3.740  1.00  0.00    -0.175 N
ATOM      5  H2  UNL     1      -4.461  30.486  -2.977  1.00  0.00     0.186 HD
HETATM    6  C5  UNL     1      -3.663  30.167  -4.806  1.00  0.00     0.677 A
HETATM    7  N4  UNL     1      -2.959  30.703  -5.844  1.00  0.00    -0.194 N
ATOM      8  H4  UNL     1      -2.750  30.129  -6.661  1.00  0.00     0.184 HD
HETATM    9  C6  UNL     1      -2.539  31.974  -5.801  1.00  0.00     0.055 A
HETATM   10  C11 UNL     1      -2.847  32.729  -4.658  1.00  0.00     0.112 A
HETATM   11  C12 UNL     1      -2.388  34.095  -4.670  1.00  0.00     0.105 C
HETATM   12  N5  UNL     1      -2.019  35.191  -4.706  1.00  0.00    -0.191 NA
ENDROOT
BRANCH   9  13
HETATM   13  C7  UNL     1      -1.739  32.575  -6.895  1.00  0.00     0.042 A
HETATM   14  C8  UNL     1      -0.398  31.885  -7.170  1.00  0.00     0.016 A
HETATM   15  C9  UNL     1      -1.489  31.955  -8.189  1.00  0.00    -0.008 A
HETATM   16  C10 UNL     1      -1.367  32.943  -9.353  1.00  0.00     0.011 C
ENDBRANCH   9  13
BRANCH   1  17
HETATM   17  C3  UNL     1      -3.835  33.951  -1.827  1.00  0.00     0.089 C
BRANCH  17  18
HETATM   18  C2  UNL     1      -5.151  34.675  -2.062  1.00  0.00     0.007 C
HETATM   19  C1  UNL     1      -5.243  35.737  -2.840  1.00  0.00     0.012 C
ENDBRANCH  17  18
ENDBRANCH   1  17
BRANCH   6  20
HETATM   20  N3  UNL     1      -4.039  28.914  -4.921  1.00  0.00    -0.234 N
ATOM     21  H32 UNL     1      -3.559  28.229  -4.338  1.00  0.00     0.174 HD
ATOM     22  H31 UNL     1      -4.777  28.609  -5.557  1.00  0.00     0.174 HD
ENDBRANCH   6  20
TORSDOF 4
ENDMDL