MODEL 4
REMARK VINA RESULT: -5.428521415      1.603      4.350
REMARK  6 active torsions:
REMARK  status: ('A' for Active; 'I' for Inactive)
REMARK    1  A    between atoms: C2_2  and  C3_3
REMARK    2  A    between atoms: C3_3  and  C4_4
REMARK    3  A    between atoms: C4_4  and  N1_5
REMARK    4  A    between atoms: N1_5  and  C5_7
REMARK    5  A    between atoms: C6_10  and  N3_11
REMARK    6  A    between atoms: C9_18  and  C10_19
ROOT
HETATM    1  C5  UNL     1      -3.108  31.917  -6.459  1.00  0.00     0.129 A
HETATM    2  N2  UNL     1      -3.456  31.174  -5.400  1.00  0.00    -0.176 N
ATOM      3  H2  UNL     1      -3.943  31.616  -4.619  1.00  0.00     0.186 HD
HETATM    4  C6  UNL     1      -3.179  29.861  -5.340  1.00  0.00     0.677 A
HETATM    5  N4  UNL     1      -2.540  29.280  -6.357  1.00  0.00    -0.195 N
ATOM      6  H4  UNL     1      -2.325  28.283  -6.318  1.00  0.00     0.184 HD
HETATM    7  C7  UNL     1      -2.174  30.011  -7.447  1.00  0.00     0.036 A
HETATM    8  C8  UNL     1      -1.470  29.306  -8.540  1.00  0.00     0.070 C
HETATM    9  C9  UNL     1      -2.429  31.348  -7.563  1.00  0.00     0.031 A
ENDROOT
BRANCH   1  10
HETATM   10  N1  UNL     1      -3.372  33.164  -6.518  1.00  0.00    -0.375 N
ATOM     11  H1  UNL     1      -3.075  33.687  -7.342  1.00  0.00     0.161 HD
BRANCH  10  12
HETATM   12  C4  UNL     1      -4.063  33.857  -5.489  1.00  0.00     0.125 C
BRANCH  12  13
HETATM   13  C3  UNL     1      -5.098  34.837  -6.009  1.00  0.00     0.046 C
BRANCH  13  14
HETATM   14  C2  UNL     1      -4.739  36.241  -5.720  1.00  0.00    -0.035 C
HETATM   15  C1  UNL     1      -5.381  37.242  -6.291  1.00  0.00     0.007 C
ENDBRANCH  13  14
ENDBRANCH  12  13
ENDBRANCH  10  12
ENDBRANCH   1  10
BRANCH   9  16
HETATM   16  C10 UNL     1      -2.086  32.187  -8.655  1.00  0.00     0.013 C
HETATM   17  C11 UNL     1      -1.005  32.766  -9.050  1.00  0.00    -0.030 C
HETATM   18  C12 UNL     1      -1.100  33.606 -10.330  1.00  0.00     0.036 C
ENDBRANCH   9  16
BRANCH   4  19
HETATM   19  N3  UNL     1      -3.517  29.142  -4.313  1.00  0.00    -0.234 N
ATOM     20  H32 UNL     1      -4.302  29.440  -3.735  1.00  0.00     0.174 HD
ATOM     21  H31 UNL     1      -3.016  28.286  -4.074  1.00  0.00     0.174 HD
ENDBRANCH   4  19
TORSDOF 6
ENDMDL