MODEL 3
REMARK VINA RESULT: -6.316839788      1.267      2.408
REMARK  5 active torsions:
REMARK  status: ('A' for Active; 'I' for Inactive)
REMARK    1  A    between atoms: N1_1  and  C1_4
REMARK    2  A    between atoms: C3_11  and  C4_12
REMARK    3  A    between atoms: C4_12  and  C5_13
REMARK    4  A    between atoms: C5_13  and  C6_14
REMARK    5  A    between atoms: C6_14  and  N5_15
ROOT
HETATM    1  C1  UNL     1      -3.872  31.931  -4.756  1.00  0.00     0.123 A
HETATM    2  N2  UNL     1      -4.626  30.944  -4.283  1.00  0.00    -0.284 N
ATOM      3  H2  UNL     1      -5.494  31.081  -3.766  1.00  0.00     0.188 HD
HETATM    4  N3  UNL     1      -4.107  29.760  -4.567  1.00  0.00    -0.286 N
ATOM      5  H3  UNL     1      -4.494  28.850  -4.316  1.00  0.00     0.188 HD
HETATM    6  C2  UNL     1      -2.959  29.988  -5.258  1.00  0.00     0.140 A
HETATM    7  N4  UNL     1      -2.040  29.017  -5.778  1.00  0.00    -0.081 NA
HETATM    8  C3  UNL     1      -2.762  31.332  -5.407  1.00  0.00     0.029 A
ENDROOT
BRANCH   8   9
HETATM    9  C4  UNL     1      -1.745  32.147  -6.035  1.00  0.00     0.048 C
BRANCH   9  10
HETATM   10  C5  UNL     1      -2.081  32.836  -7.317  1.00  0.00     0.035 C
BRANCH  10  11
HETATM   11  C6  UNL     1      -2.846  31.749  -8.123  1.00  0.00     0.272 C
BRANCH  11  12
HETATM   12  N5  UNL     1      -1.903  31.012  -8.936  1.00  0.00     0.088 N
HETATM   13  C7  UNL     1      -2.577  29.870  -9.514  1.00  0.00     0.272 C
HETATM   14  C8  UNL     1      -3.674  30.254 -10.460  1.00  0.00     0.030 C
HETATM   15  C9  UNL     1      -3.117  30.999 -11.673  1.00  0.00     0.003 C
HETATM   16  C10 UNL     1      -1.652  31.248 -11.384  1.00  0.00     0.030 C
HETATM   17  C11 UNL     1      -1.414  31.844 -10.034  1.00  0.00     0.272 C
ENDBRANCH  11  12
ENDBRANCH  10  11
ENDBRANCH   9  10
ENDBRANCH   8   9
BRANCH   1  18
HETATM   18  N1  UNL     1      -4.084  33.184  -4.657  1.00  0.00    -0.384 N
ATOM     19  H12 UNL     1      -4.879  33.684  -5.055  1.00  0.00     0.157 HD
ATOM     20  H11 UNL     1      -3.508  33.874  -4.175  1.00  0.00     0.157 HD
ENDBRANCH   1  18
TORSDOF 5
ENDMDL