MODEL 3
REMARK VINA RESULT: -5.676658190      2.622      4.390
REMARK  4 active torsions:
REMARK  status: ('A' for Active; 'I' for Inactive)
REMARK    1  A    between atoms: C2_2  and  C3_3
REMARK    2  A    between atoms: C3_3  and  C4_4
REMARK    3  A    between atoms: C4_4  and  C5_5
REMARK    4  A    between atoms: C5_5  and  C6_6
ROOT
HETATM    1  C6  UNL     1      -2.344  31.057  -8.438  1.00  0.00     0.253 C
HETATM    2  N1  UNL     1      -3.416  31.006  -9.405  1.00  0.00    -0.056 N
ATOM      3  H11 UNL     1      -4.209  31.563  -9.086  1.00  0.00     0.278 HD
ATOM      4  H12 UNL     1      -3.843  30.080  -9.413  1.00  0.00     0.278 HD
HETATM    5  C7  UNL     1      -3.040  31.389 -10.723  1.00  0.00     0.238 C
HETATM    6  C8  UNL     1      -4.129  30.933 -11.685  1.00  0.00     0.064 C
HETATM    7  C9  UNL     1      -3.524  29.834 -12.492  1.00  0.00     0.237 C
HETATM    8  N2  UNL     1      -2.144  29.708 -12.140  1.00  0.00    -0.052 N
ATOM      9  H21 UNL     1      -1.534  29.645 -12.955  1.00  0.00     0.279 HD
ATOM     10  H22 UNL     1      -1.923  28.800 -11.732  1.00  0.00     0.279 HD
HETATM   11  C10 UNL     1      -1.796  30.807 -11.272  1.00  0.00     0.318 C
HETATM   12  N3  UNL     1      -0.814  30.411 -10.278  1.00  0.00    -0.344 N
HETATM   13  C11 UNL     1       0.565  30.157 -10.649  1.00  0.00     0.153 C
HETATM   14  C12 UNL     1      -1.173  30.260  -8.912  1.00  0.00     0.105 C
HETATM   15  N4  UNL     1      -0.565  29.491  -8.094  1.00  0.00    -0.387 N
ATOM     16  H41 UNL     1       0.235  28.947  -8.417  1.00  0.00     0.157 HD
ATOM     17  H42 UNL     1      -0.822  29.382  -7.113  1.00  0.00     0.157 HD
ENDROOT
BRANCH   1  18
HETATM   18  C5  UNL     1      -1.858  32.473  -8.296  1.00  0.00     0.041 C
BRANCH  18  19
HETATM   19  C4  UNL     1      -2.422  33.112  -7.062  1.00  0.00     0.002 C
BRANCH  19  20
HETATM   20  C3  UNL     1      -2.744  32.045  -6.057  1.00  0.00    -0.000 C
BRANCH  20  21
HETATM   21  C2  UNL     1      -4.014  32.354  -5.288  1.00  0.00    -0.005 C
HETATM   22  C1  UNL     1      -4.886  33.198  -6.224  1.00  0.00     0.005 C
ENDBRANCH  20  21
ENDBRANCH  19  20
ENDBRANCH  18  19
ENDBRANCH   1  18
TORSDOF 4
ENDMDL