MODEL 1
REMARK VINA RESULT: -5.998964702      0.000      0.000
REMARK  6 active torsions:
REMARK  status: ('A' for Active; 'I' for Inactive)
REMARK    1  A    between atoms: C2_2  and  C3_3
REMARK    2  A    between atoms: C3_3  and  C4_4
REMARK    3  A    between atoms: C4_4  and  C5_5
REMARK    4  A    between atoms: C5_5  and  N1_6
REMARK    5  A    between atoms: N1_6  and  C6_8
REMARK    6  A    between atoms: C8_17  and  N5_18
ROOT
HETATM    1  C6  UNL     1      -2.770  31.361  -6.960  1.00  0.00     0.707 A
HETATM    2  N2  UNL     1      -2.709  30.302  -6.132  1.00  0.00    -0.022 N
ATOM      3  H2  UNL     1      -2.059  29.549  -6.355  1.00  0.00     0.203 HD
HETATM    4  C7  UNL     1      -3.463  30.186  -5.023  1.00  0.00     0.705 A
HETATM    5  N3  UNL     1      -3.372  29.154  -4.257  1.00  0.00    -0.234 N
ATOM      6  H31 UNL     1      -3.943  29.066  -3.416  1.00  0.00     0.174 HD
ATOM      7  H32 UNL     1      -2.728  28.389  -4.459  1.00  0.00     0.174 HD
HETATM    8  N4  UNL     1      -4.326  31.211  -4.753  1.00  0.00    -0.022 N
ATOM      9  H4  UNL     1      -4.915  31.159  -3.922  1.00  0.00     0.203 HD
HETATM   10  C8  UNL     1      -4.417  32.275  -5.546  1.00  0.00     0.706 A
HETATM   11  N6  UNL     1      -3.649  32.352  -6.639  1.00  0.00    -0.022 N
ATOM     12  H6  UNL     1      -3.723  33.170  -7.244  1.00  0.00     0.203 HD
ENDROOT
BRANCH   1  13
HETATM   13  N1  UNL     1      -2.067  31.484  -8.006  1.00  0.00    -0.225 N
ATOM     14  H1  UNL     1      -1.905  30.644  -8.563  1.00  0.00     0.177 HD
BRANCH  13  15
HETATM   15  C5  UNL     1      -1.479  32.709  -8.472  1.00  0.00     0.138 C
BRANCH  15  16
HETATM   16  C4  UNL     1      -1.443  32.683  -9.984  1.00  0.00     0.020 C
BRANCH  16  17
HETATM   17  C3  UNL     1      -1.032  31.325 -10.511  1.00  0.00     0.001 C
BRANCH  17  18
HETATM   18  C2  UNL     1      -1.887  31.028 -11.712  1.00  0.00    -0.004 C
HETATM   19  C1  UNL     1      -3.358  31.175 -11.450  1.00  0.00     0.005 C
ENDBRANCH  17  18
ENDBRANCH  16  17
ENDBRANCH  15  16
ENDBRANCH  13  15
ENDBRANCH   1  13
BRANCH  10  20
HETATM   20  N5  UNL     1      -5.229  33.222  -5.276  1.00  0.00    -0.229 N
HETATM   21  C9  UNL     1      -4.893  34.587  -5.612  1.00  0.00     0.165 C
ATOM     22  H5  UNL     1      -6.118  33.014  -4.821  1.00  0.00     0.177 HD
ENDBRANCH  10  20
TORSDOF 6
ENDMDL