MODEL 5
REMARK VINA RESULT: -5.605705465      2.827      4.736
REMARK  5 active torsions:
REMARK  status: ('A' for Active; 'I' for Inactive)
REMARK    1  A    between atoms: C2_2  and  C3_3
REMARK    2  A    between atoms: C3_3  and  C4_4
REMARK    3  A    between atoms: C4_4  and  C5_5
REMARK    4  A    between atoms: C6_8  and  N2_9
REMARK    5  A    between atoms: C12_19  and  N4_20
ROOT
HETATM    1  C5  UNL     1      -3.466  33.525  -3.605  1.00  0.00     0.035 A
HETATM    2  N1  UNL     1      -4.332  33.914  -4.597  1.00  0.00    -0.195 N
ATOM      3  H1  UNL     1      -4.674  34.874  -4.616  1.00  0.00     0.184 HD
HETATM    4  C6  UNL     1      -4.736  33.051  -5.541  1.00  0.00     0.676 A
HETATM    5  N3  UNL     1      -4.284  31.778  -5.520  1.00  0.00    -0.193 N
ATOM      6  H3  UNL     1      -4.598  31.131  -6.243  1.00  0.00     0.184 HD
HETATM    7  C7  UNL     1      -3.434  31.336  -4.575  1.00  0.00     0.065 A
HETATM    8  C8  UNL     1      -3.008  32.234  -3.584  1.00  0.00    -0.010 A
HETATM    9  C9  UNL     1      -2.059  31.801  -2.530  1.00  0.00     0.043 C
HETATM   10  C10 UNL     1      -1.365  30.498  -2.950  1.00  0.00     0.007 C
HETATM   11  C11 UNL     1      -2.515  29.529  -3.250  1.00  0.00     0.039 C
HETATM   12  C12 UNL     1      -2.993  29.928  -4.642  1.00  0.00     0.234 C
ENDROOT
BRANCH   1  13
HETATM   13  C4  UNL     1      -3.081  34.526  -2.588  1.00  0.00     0.058 C
BRANCH  13  14
HETATM   14  C3  UNL     1      -4.067  34.518  -1.447  1.00  0.00     0.006 C
BRANCH  14  15
HETATM   15  C2  UNL     1      -4.693  35.905  -1.366  1.00  0.00    -0.004 C
HETATM   16  C1  UNL     1      -6.040  35.854  -2.002  1.00  0.00     0.005 C
ENDBRANCH  14  15
ENDBRANCH  13  14
ENDBRANCH   1  13
BRANCH   4  17
HETATM   17  N2  UNL     1      -5.557  33.404  -6.486  1.00  0.00    -0.234 N
ATOM     18  H22 UNL     1      -5.312  33.187  -7.453  1.00  0.00     0.174 HD
ATOM     19  H21 UNL     1      -6.432  33.889  -6.285  1.00  0.00     0.174 HD
ENDBRANCH   4  17
BRANCH  12  20
HETATM   20  N4  UNL     1      -4.057  29.009  -5.003  1.00  0.00    -0.070 N
ATOM     21  H43 UNL     1      -4.339  29.144  -5.973  1.00  0.00     0.275 HD
ATOM     22  H42 UNL     1      -3.706  28.053  -5.060  1.00  0.00     0.275 HD
ATOM     23  H41 UNL     1      -4.864  29.060  -4.382  1.00  0.00     0.275 HD
ENDBRANCH  12  20
TORSDOF 5
ENDMDL