MODEL 5
REMARK VINA RESULT: -6.048559873      1.505      1.625
REMARK  5 active torsions:
REMARK  status: ('A' for Active; 'I' for Inactive)
REMARK    1  A    between atoms: C2_2  and  C3_3
REMARK    2  A    between atoms: C3_3  and  C4_4
REMARK    3  A    between atoms: C4_4  and  C5_5
REMARK    4  A    between atoms: C5_5  and  N1_6
REMARK    5  A    between atoms: C7_11  and  N3_12
ROOT
HETATM    1  N1  UNL     1      -2.184  30.990  -8.189  1.00  0.00    -0.354 N
ATOM      2  H1  UNL     1      -3.022  30.964  -8.769  1.00  0.00     0.166 HD
HETATM    3  C6  UNL     1      -2.417  31.529  -7.090  1.00  0.00     0.143 A
HETATM    4  N2  UNL     1      -3.701  31.966  -6.874  1.00  0.00    -0.175 N
ATOM      5  H2  UNL     1      -4.419  31.849  -7.589  1.00  0.00     0.186 HD
HETATM    6  C7  UNL     1      -3.987  32.547  -5.712  1.00  0.00     0.677 A
HETATM    7  N4  UNL     1      -3.076  32.724  -4.739  1.00  0.00    -0.195 N
ATOM      8  H4  UNL     1      -3.362  33.177  -3.870  1.00  0.00     0.184 HD
HETATM    9  C8  UNL     1      -1.799  32.321  -4.877  1.00  0.00     0.047 A
HETATM   10  C9  UNL     1      -0.781  32.505  -3.822  1.00  0.00     0.070 C
HETATM   11  C10 UNL     1      -1.487  31.712  -6.091  1.00  0.00     0.111 A
HETATM   12  C11 UNL     1      -0.117  31.287  -6.225  1.00  0.00     0.105 C
HETATM   13  N5  UNL     1       0.991  30.952  -6.310  1.00  0.00    -0.191 NA
ENDROOT
BRANCH   1  14
HETATM   14  C5  UNL     1      -1.092  30.409  -8.854  1.00  0.00     0.062 C
BRANCH  14  15
HETATM   15  C4  UNL     1      -0.624  31.363  -9.951  1.00  0.00     0.044 C
BRANCH  15  16
HETATM   16  C3  UNL     1      -1.746  31.904 -10.783  1.00  0.00     0.005 C
BRANCH  16  17
HETATM   17  C2  UNL     1      -2.172  30.870 -11.780  1.00  0.00    -0.004 C
HETATM   18  C1  UNL     1      -3.678  30.649 -11.759  1.00  0.00     0.005 C
ENDBRANCH  16  17
ENDBRANCH  15  16
ENDBRANCH  14  15
ENDBRANCH   1  14
BRANCH   6  19
HETATM   19  N3  UNL     1      -5.199  32.981  -5.460  1.00  0.00    -0.234 N
ATOM     20  H32 UNL     1      -5.967  32.405  -5.806  1.00  0.00     0.174 HD
ATOM     21  H31 UNL     1      -5.346  33.850  -4.946  1.00  0.00     0.174 HD
ENDBRANCH   6  19
TORSDOF 5
ENDMDL