MODEL 3
REMARK VINA RESULT: -6.250200971      4.965      7.033
REMARK  6 active torsions:
REMARK  status: ('A' for Active; 'I' for Inactive)
REMARK    1  A    between atoms: O1_2  and  C2_3
REMARK    2  A    between atoms: C2_3  and  C3_4
REMARK    3  A    between atoms: C3_4  and  C4_5
REMARK    4  A    between atoms: C4_5  and  C5_6
REMARK    5  A    between atoms: C8_11  and  N2_12
REMARK    6  A    between atoms: C9_17  and  N4_18
ROOT
HETATM    1  C5  UNL     1      -1.887  32.299  -8.056  1.00  0.00    -0.004 C
HETATM    2  C6  UNL     1      -1.104  31.564  -7.021  1.00  0.00     0.063 C
HETATM    3  C7  UNL     1      -2.142  31.217  -6.026  1.00  0.00     0.037 A
HETATM    4  N1  UNL     1      -2.222  30.199  -5.127  1.00  0.00    -0.195 N
ATOM      5  H1  UNL     1      -1.472  29.509  -5.076  1.00  0.00     0.184 HD
HETATM    6  C8  UNL     1      -3.279  30.094  -4.309  1.00  0.00     0.677 A
HETATM    7  N3  UNL     1      -4.251  31.018  -4.403  1.00  0.00    -0.177 N
ATOM      8  H3  UNL     1      -5.057  30.938  -3.781  1.00  0.00     0.185 HD
HETATM    9  C9  UNL     1      -4.216  32.044  -5.276  1.00  0.00     0.122 A
HETATM   10  C10 UNL     1      -3.136  32.162  -6.120  1.00  0.00     0.009 A
HETATM   11  C11 UNL     1      -2.786  33.158  -7.193  1.00  0.00     0.049 C
ENDROOT
BRANCH   1  12
HETATM   12  C4  UNL     1      -1.079  33.084  -9.028  1.00  0.00     0.007 C
BRANCH  12  13
HETATM   13  C3  UNL     1      -1.589  32.748 -10.427  1.00  0.00     0.027 C
BRANCH  13  14
HETATM   14  C2  UNL     1      -1.264  31.339 -10.794  1.00  0.00     0.167 C
BRANCH  14  15
HETATM   15  O1  UNL     1      -2.047  30.909 -11.831  1.00  0.00    -0.396 OA
HETATM   16  C1  UNL     1      -3.395  31.074 -11.596  1.00  0.00     0.201 C
ENDBRANCH  14  15
ENDBRANCH  13  14
ENDBRANCH  12  13
ENDBRANCH   1  12
BRANCH   9  17
HETATM   17  N4  UNL     1      -5.155  32.925  -5.357  1.00  0.00    -0.385 N
ATOM     18  H42 UNL     1      -5.706  33.122  -4.522  1.00  0.00     0.157 HD
ATOM     19  H41 UNL     1      -5.367  33.429  -6.217  1.00  0.00     0.157 HD
ENDBRANCH   9  17
BRANCH   6  20
HETATM   20  N2  UNL     1      -3.318  29.116  -3.474  1.00  0.00    -0.234 N
ATOM     21  H22 UNL     1      -3.678  28.192  -3.715  1.00  0.00     0.174 HD
ATOM     22  H21 UNL     1      -2.974  29.268  -2.526  1.00  0.00     0.174 HD
ENDBRANCH   6  20
TORSDOF 6
ENDMDL