MODEL 4
REMARK VINA RESULT: -7.075765107      3.287      9.259
REMARK  14 active torsions:
REMARK  status: ('A' for Active; 'I' for Inactive)
REMARK    1  A    between atoms: O1_2  and  C2_3
REMARK       I    between atoms: C2_3  and  N1_5
REMARK    2  A    between atoms: N1_5  and  C3_7
REMARK    3  A    between atoms: C3_7  and  C4_8
REMARK    4  A    between atoms: N2_10  and  C5_11
REMARK    5  A    between atoms: C5_11  and  C6_12
REMARK    6  A    between atoms: N5_17  and  C7_18
REMARK    7  A    between atoms: N7_24  and  C9_25
REMARK    8  A    between atoms: C12_28  and  N8_29
REMARK    9  A    between atoms: N8_29  and  C13_30
REMARK   10  A    between atoms: C13_30  and  O5_32
REMARK   11  A    between atoms: C15_36  and  C16_37
REMARK   12  A    between atoms: C17_40  and  N10_41
REMARK   13  A    between atoms: N14_52  and  C23_53
REMARK   14  A    between atoms: C23_53  and  S1_54
ROOT
HETATM    1  N10 UNL     1      29.581  49.854  32.506  1.00  0.00    -0.317 N
ATOM      2  H10 UNL     1      29.441  50.623  33.162  1.00  0.00     0.172 HD
HETATM    3  C18 UNL     1      30.779  49.833  31.805  1.00  0.00     0.178 C
HETATM    4  N11 UNL     1      31.797  49.825  31.237  1.00  0.00    -0.172 NA
ENDROOT
BRANCH   1   5
HETATM    5  C17 UNL     1      28.521  48.893  32.393  1.00  0.00     0.156 C
HETATM    6  C10 UNL     1      27.815  48.839  33.719  1.00  0.00    -0.030 C
HETATM    7  C9  UNL     1      27.681  47.807  34.507  1.00  0.00     0.122 C
HETATM    8  C11 UNL     1      27.239  50.187  34.091  1.00  0.00     0.130 C
HETATM    9  C12 UNL     1      26.400  50.689  32.985  1.00  0.00     0.159 C
HETATM   10  N9  UNL     1      26.575  50.220  31.795  1.00  0.00    -0.352 N
HETATM   11  C15 UNL     1      27.481  49.259  31.368  1.00  0.00     0.212 C
ATOM     12  H9  UNL     1      25.967  50.606  31.073  1.00  0.00     0.162 HD
BRANCH   7  13
HETATM   13  N7  UNL     1      28.195  46.530  34.228  1.00  0.00    -0.142 N
HETATM   14  C6  UNL     1      29.615  46.399  34.202  1.00  0.00     0.140 A
HETATM   15  N3  UNL     1      30.119  45.269  33.902  1.00  0.00    -0.271 N
HETATM   16  N4  UNL     1      29.380  44.130  33.591  1.00  0.00    -0.218 N
ATOM     17  H3  UNL     1      31.136  45.192  33.890  1.00  0.00     0.190 HD
HETATM   18  N5  UNL     1      28.002  44.162  33.593  1.00  0.00    -0.046 N
ATOM     19  H4  UNL     1      29.864  43.263  33.357  1.00  0.00     0.209 HD
HETATM   20  C8  UNL     1      27.357  45.420  33.928  1.00  0.00     0.708 A
HETATM   21  N6  UNL     1      26.078  45.430  33.981  1.00  0.00    -0.232 N
ATOM     22  H62 UNL     1      25.478  44.633  33.766  1.00  0.00     0.174 HD
ATOM     23  H61 UNL     1      25.625  46.313  34.216  1.00  0.00     0.174 HD
BRANCH  14  24
HETATM   24  C5  UNL     1      30.522  47.564  34.535  1.00  0.00     0.234 C
BRANCH  24  25
HETATM   25  N2  UNL     1      31.864  46.969  34.656  1.00  0.00    -0.262 N
HETATM   26  O3  UNL     1      32.109  46.092  35.628  1.00  0.00    -0.269 OA
HETATM   27  C4  UNL     1      33.480  45.940  35.793  1.00  0.00     0.197 C
HETATM   28  C25 UNL     1      34.046  45.478  34.492  1.00  0.00     0.153 C
HETATM   29  C20 UNL     1      33.951  46.693  33.604  1.00  0.00    -0.019 C
HETATM   30  N14 UNL     1      35.420  45.026  34.521  1.00  0.00    -0.336 N
HETATM   31  C19 UNL     1      32.877  47.401  33.700  1.00  0.00     0.124 C
HETATM   32  C21 UNL     1      35.059  47.027  32.684  1.00  0.00     0.160 C
HETATM   33  N12 UNL     1      36.346  46.823  33.349  1.00  0.00    -0.360 N
HETATM   34  C22 UNL     1      36.493  45.856  34.218  1.00  0.00     0.188 C
ATOM     35  H12 UNL     1      37.131  47.437  33.134  1.00  0.00     0.162 HD
HETATM   36  N13 UNL     1      37.753  45.706  34.828  1.00  0.00    -0.064 NA
BRANCH  27  37
HETATM   37  C3  UNL     1      33.843  45.167  37.001  1.00  0.00     0.161 C
BRANCH  37  38
HETATM   38  N1  UNL     1      32.619  44.680  37.607  1.00  0.00    -0.334 N
HETATM   39  C2  UNL     1      32.196  43.345  37.569  1.00  0.00     0.360 C
HETATM   40  O2  UNL     1      32.801  42.394  37.016  1.00  0.00    -0.239 OA
ATOM     41  H1  UNL     1      32.027  45.353  38.093  1.00  0.00     0.164 HD
BRANCH  39  42
HETATM   42  O1  UNL     1      30.983  43.005  38.194  1.00  0.00    -0.309 OA
HETATM   43  C1  UNL     1      31.013  42.637  39.561  1.00  0.00     0.215 C
ENDBRANCH  39  42
ENDBRANCH  37  38
ENDBRANCH  27  37
BRANCH  30  44
HETATM   44  C23 UNL     1      35.656  43.631  34.879  1.00  0.00     0.200 C
BRANCH  44  45
HETATM   45  S1  UNL     1      34.915  42.508  33.626  1.00  0.00    -0.154 SA
HETATM   46  C24 UNL     1      35.319  43.083  31.941  1.00  0.00     0.091 C
ENDBRANCH  44  45
ENDBRANCH  30  44
ENDBRANCH  24  25
ENDBRANCH  14  24
BRANCH  18  47
HETATM   47  C7  UNL     1      27.197  43.034  33.289  1.00  0.00     0.395 C
HETATM   48  O4  UNL     1      26.426  43.070  32.269  1.00  0.00    -0.281 OA
ENDBRANCH  18  47
ENDBRANCH   7  13
BRANCH   9  49
HETATM   49  N8  UNL     1      25.418  51.733  33.124  1.00  0.00    -0.372 NA
BRANCH  49  50
HETATM   50  C13 UNL     1      24.560  52.650  33.248  1.00  0.00     0.187 C
HETATM   51  C14 UNL     1      23.094  52.465  32.791  1.00  0.00     0.114 C
BRANCH  50  52
HETATM   52  O5  UNL     1      24.686  53.851  33.747  1.00  0.00    -0.339 OA
ATOM     53  H5  UNL     1      25.287  54.547  33.509  1.00  0.00     0.220 HD
ENDBRANCH  50  52
ENDBRANCH  49  50
ENDBRANCH   9  49
BRANCH  11  54
HETATM   54  C16 UNL     1      28.068  49.475  30.021  1.00  0.00     0.199 C
HETATM   55  O6  UNL     1      28.318  48.478  29.299  1.00  0.00    -0.646 OA
HETATM   56  O7  UNL     1      28.332  50.742  29.566  1.00  0.00    -0.646 OA
ENDBRANCH  11  54
ENDBRANCH   1   5
TORSDOF 14
ENDMDL