MODEL 2
REMARK VINA RESULT: -9.399853760      1.956      4.347
REMARK  13 active torsions:
REMARK  status: ('A' for Active; 'I' for Inactive)
REMARK    1  A    between atoms: N1_1  and  C1_4
REMARK    2  A    between atoms: C2_10  and  S1_11
REMARK    3  A    between atoms: S1_11  and  C3_12
REMARK    4  A    between atoms: N7_22  and  C8_23
REMARK    5  A    between atoms: C8_23  and  C9_24
REMARK       I    between atoms: C9_24  and  N8_26
REMARK    6  A    between atoms: N9_29  and  C11_30
REMARK    7  A    between atoms: N11_34  and  C13_36
REMARK    8  A    between atoms: C13_36  and  C14_37
REMARK    9  A    between atoms: C14_37  and  N12_38
REMARK   10  A    between atoms: C19_49  and  C20_50
REMARK   11  A    between atoms: C20_50  and  O5_51
REMARK   12  A    between atoms: C21_53  and  O6_54
REMARK   13  A    between atoms: C23_57  and  C24_58
ROOT
HETATM    1  C9  UNL     1      31.162  51.440  31.479  1.00  0.00     0.248 C
HETATM    2  O2  UNL     1      30.890  51.627  30.271  1.00  0.00    -0.271 OA
HETATM    3  N8  UNL     1      32.540  51.313  31.867  1.00  0.00    -0.253 N
HETATM    4  C10 UNL     1      33.667  51.356  31.007  1.00  0.00     0.334 C
HETATM    5  O3  UNL     1      33.647  51.363  29.746  1.00  0.00    -0.246 OA
HETATM    6  N9  UNL     1      34.858  51.393  31.784  1.00  0.00    -0.280 N
HETATM    7  C22 UNL     1      34.445  51.625  33.147  1.00  0.00     0.170 C
HETATM    8  C23 UNL     1      33.037  51.108  33.197  1.00  0.00     0.205 C
ENDROOT
BRANCH   6   9
HETATM    9  C11 UNL     1      36.172  51.240  31.297  1.00  0.00     0.161 C
HETATM   10  N10 UNL     1      36.752  52.313  30.683  1.00  0.00    -0.173 N
HETATM   11  C12 UNL     1      37.989  52.508  30.201  1.00  0.00     0.682 C
ATOM     12  H10 UNL     1      36.131  53.114  30.571  1.00  0.00     0.186 HD
HETATM   13  N11 UNL     1      38.296  53.582  29.582  1.00  0.00    -0.224 N
HETATM   14  N14 UNL     1      39.060  51.658  30.277  1.00  0.00    -0.156 N
ATOM     15  H11 UNL     1      39.258  53.646  29.249  1.00  0.00     0.177 HD
HETATM   16  C18 UNL     1      39.145  50.441  30.834  1.00  0.00     0.270 C
ATOM     17  H14 UNL     1      39.919  52.002  29.847  1.00  0.00     0.187 HD
HETATM   18  O4  UNL     1      40.197  49.807  30.652  1.00  0.00    -0.267 OA
HETATM   19  C19 UNL     1      38.175  49.804  31.599  1.00  0.00     0.070 C
HETATM   20  C21 UNL     1      36.804  50.005  31.466  1.00  0.00     0.124 C
BRANCH  13  21
HETATM   21  C13 UNL     1      37.463  54.701  29.298  1.00  0.00     0.168 C
BRANCH  21  22
HETATM   22  C14 UNL     1      37.273  54.919  27.819  1.00  0.00     0.294 C
BRANCH  22  23
HETATM   23  N12 UNL     1      35.905  54.975  27.402  1.00  0.00     0.117 N
HETATM   24  C15 UNL     1      35.204  56.135  27.866  1.00  0.00     0.302 C
HETATM   25  C16 UNL     1      33.771  55.667  28.117  1.00  0.00     0.264 C
HETATM   26  N13 UNL     1      33.998  54.307  28.555  1.00  0.00    -0.047 N
HETATM   27  C17 UNL     1      35.166  53.830  27.836  1.00  0.00     0.502 C
ATOM     28 2H13 UNL     1      34.083  54.217  29.567  1.00  0.00     0.279 HD
ATOM     29 1H13 UNL     1      33.182  53.705  28.443  1.00  0.00     0.279 HD
ENDBRANCH  22  23
ENDBRANCH  21  22
ENDBRANCH  13  21
BRANCH  19  30
HETATM   30  C20 UNL     1      38.642  48.841  32.615  1.00  0.00     0.211 C
BRANCH  30  31
HETATM   31  O5  UNL     1      38.614  47.559  32.107  1.00  0.00    -0.396 OA
ATOM     32  H5  UNL     1      39.497  47.227  32.000  1.00  0.00     0.209 HD
ENDBRANCH  30  31
ENDBRANCH  19  30
BRANCH  20  33
HETATM   33  O6  UNL     1      35.965  48.946  31.498  1.00  0.00    -0.356 OA
ATOM     34  H6  UNL     1      36.363  48.137  31.799  1.00  0.00     0.218 HD
ENDBRANCH  20  33
ENDBRANCH   6   9
BRANCH   8  35
HETATM   35  C24 UNL     1      32.963  49.654  33.513  1.00  0.00     0.256 C
HETATM   36  N15 UNL     1      33.005  49.187  34.849  1.00  0.00    -0.060 NA
HETATM   37  O7  UNL     1      32.860  48.796  32.601  1.00  0.00    -0.274 OA
ENDBRANCH   8  35
BRANCH   1  38
HETATM   38  C8  UNL     1      30.127  51.344  32.502  1.00  0.00     0.251 C
BRANCH  38  39
HETATM   39  N7  UNL     1      29.266  50.198  32.266  1.00  0.00    -0.249 N
HETATM   40  C5  UNL     1      29.270  49.016  32.920  1.00  0.00     0.149 A
HETATM   41  N4  UNL     1      30.016  48.518  33.938  1.00  0.00    -0.348 N
HETATM   42  C6  UNL     1      28.303  48.185  32.399  1.00  0.00     0.092 A
HETATM   43  C4  UNL     1      29.825  47.276  34.419  1.00  0.00     0.108 A
ATOM     44  H4  UNL     1      30.743  49.102  34.351  1.00  0.00     0.167 HD
HETATM   45  C3  UNL     1      28.868  46.409  33.927  1.00  0.00     0.025 A
HETATM   46  C7  UNL     1      28.088  46.894  32.883  1.00  0.00     0.054 A
HETATM   47  N5  UNL     1      27.716  48.910  31.410  1.00  0.00    -0.280 N
HETATM   48  N6  UNL     1      28.302  50.093  31.353  1.00  0.00    -0.018 NA
ATOM     49  H5  UNL     1      26.952  48.594  30.813  1.00  0.00     0.184 HD
BRANCH  45  50
HETATM   50  S1  UNL     1      28.674  44.773  34.614  1.00  0.00    -0.066 SA
BRANCH  50  51
HETATM   51  C2  UNL     1      27.484  43.827  33.695  1.00  0.00     0.143 A
HETATM   52  C1  UNL     1      26.117  43.958  33.679  1.00  0.00     0.157 A
HETATM   53  N2  UNL     1      25.639  43.027  32.840  1.00  0.00    -0.223 N
HETATM   54  O1  UNL     1      26.652  42.337  32.344  1.00  0.00    -0.154 OA
ATOM     55  H2  UNL     1      24.654  42.877  32.620  1.00  0.00     0.198 HD
HETATM   56  N3  UNL     1      27.769  42.817  32.859  1.00  0.00    -0.231 N
ATOM     57  H3  UNL     1      28.707  42.473  32.653  1.00  0.00     0.197 HD
BRANCH  52  58
HETATM   58  N1  UNL     1      25.391  44.797  34.330  1.00  0.00    -0.382 N
ATOM     59  H12 UNL     1      24.622  44.602  34.971  1.00  0.00     0.157 HD
ATOM     60  H11 UNL     1      25.496  45.811  34.284  1.00  0.00     0.157 HD
ENDBRANCH  52  58
ENDBRANCH  50  51
ENDBRANCH  45  50
ENDBRANCH  38  39
ENDBRANCH   1  38
TORSDOF 13
ENDMDL