MODEL 4
REMARK VINA RESULT: -8.430349976      1.874      3.345
REMARK  18 active torsions:
REMARK  status: ('A' for Active; 'I' for Inactive)
REMARK    1  A    between atoms: C3_5  and  O2_6
REMARK    2  A    between atoms: O2_6  and  C4_7
REMARK    3  A    between atoms: C5_9  and  C6_10
REMARK    4  A    between atoms: C6_10  and  O4_11
REMARK    5  A    between atoms: C7_13  and  O5_14
REMARK    6  A    between atoms: C8_16  and  O6_18
REMARK    7  A    between atoms: C10_20  and  O7_21
REMARK    8  A    between atoms: O7_21  and  C11_22
REMARK    9  A    between atoms: C12_23  and  N2_24
REMARK   10  A    between atoms: C15_30  and  N4_31
REMARK   11  A    between atoms: N4_31  and  C16_33
REMARK   12  A    between atoms: C16_33  and  C17_34
REMARK   13  A    between atoms: C17_34  and  N5_35
REMARK   14  A    between atoms: C18_41  and  N7_42
REMARK   15  A    between atoms: N9_51  and  C25_52
REMARK   16  A    between atoms: C25_52  and  C26_53
REMARK   17  A    between atoms: C26_53  and  O9_54
REMARK   18  A    between atoms: C26_53  and  O10_56
ROOT
HETATM    1  O7  UNL     1      29.863  48.016  34.034  1.00  0.00    -0.302 OA
ENDROOT
BRANCH   1   2
HETATM    2  C10 UNL     1      30.300  49.132  33.432  1.00  0.00     0.193 A
HETATM    3  C3  UNL     1      31.692  49.400  33.651  1.00  0.00     0.192 A
HETATM    4  C2  UNL     1      32.254  50.501  33.089  1.00  0.00     0.289 A
HETATM    5  N1  UNL     1      31.581  51.378  32.327  1.00  0.00    -0.268 N
HETATM    6  O1  UNL     1      33.496  50.729  33.290  1.00  0.00    -0.265 OA
HETATM    7  C1  UNL     1      32.232  52.548  31.740  1.00  0.00     0.164 C
HETATM    8  C27 UNL     1      30.280  51.099  32.144  1.00  0.00     0.333 A
HETATM    9  N9  UNL     1      29.663  50.024  32.675  1.00  0.00    -0.272 N
HETATM   10  O11 UNL     1      29.592  51.896  31.430  1.00  0.00    -0.246 OA
BRANCH   3  11
HETATM   11  O2  UNL     1      32.416  48.502  34.446  1.00  0.00    -0.307 OA
BRANCH  11  12
HETATM   12  C4  UNL     1      32.816  47.292  33.835  1.00  0.00     0.303 C
HETATM   13  O3  UNL     1      33.832  47.470  32.878  1.00  0.00    -0.348 OA
HETATM   14  C5  UNL     1      34.232  46.141  32.654  1.00  0.00     0.180 C
HETATM   15  C7  UNL     1      34.594  45.764  34.101  1.00  0.00     0.188 C
HETATM   16  C8  UNL     1      33.303  46.245  34.786  1.00  0.00     0.132 C
HETATM   17  C9  UNL     1      32.402  45.039  34.841  1.00  0.00     0.054 C
BRANCH  14  18
HETATM   18  C6  UNL     1      35.430  46.012  31.781  1.00  0.00     0.198 C
BRANCH  18  19
HETATM   19  O4  UNL     1      35.367  44.838  31.029  1.00  0.00    -0.398 OA
ATOM     20  H4  UNL     1      36.148  44.313  31.163  1.00  0.00     0.209 HD
ENDBRANCH  18  19
ENDBRANCH  14  18
BRANCH  15  21
HETATM   21  O5  UNL     1      34.723  44.403  34.217  1.00  0.00    -0.390 OA
ATOM     22  H5  UNL     1      35.594  44.132  33.951  1.00  0.00     0.210 HD
ENDBRANCH  15  21
BRANCH  16  23
HETATM   23  O6  UNL     1      33.641  46.700  36.037  1.00  0.00    -0.382 OA
ATOM     24  H6  UNL     1      34.526  47.036  36.121  1.00  0.00     0.210 HD
ENDBRANCH  16  23
ENDBRANCH  11  12
ENDBRANCH   3  11
BRANCH   9  25
HETATM   25  C25 UNL     1      28.230  49.834  32.481  1.00  0.00     0.196 C
BRANCH  25  26
HETATM   26  C26 UNL     1      27.953  48.776  31.431  1.00  0.00     0.272 C
BRANCH  26  27
HETATM   27  O9  UNL     1      27.594  47.618  32.159  1.00  0.00    -0.370 OA
ATOM     28  H9  UNL     1      26.644  47.599  32.141  1.00  0.00     0.212 HD
ENDBRANCH  26  27
BRANCH  26  29
HETATM   29  O10 UNL     1      26.808  49.096  30.691  1.00  0.00    -0.370 OA
ATOM     30  H10 UNL     1      26.845  48.707  29.825  1.00  0.00     0.212 HD
ENDBRANCH  26  29
ENDBRANCH  25  26
ENDBRANCH   9  25
ENDBRANCH   1   2
BRANCH   1  31
HETATM   31  C11 UNL     1      29.183  47.514  35.038  1.00  0.00     0.162 C
HETATM   32  C12 UNL     1      28.732  46.225  35.492  1.00  0.00     0.128 C
BRANCH  32  33
HETATM   33  N2  UNL     1      27.776  45.444  34.790  1.00  0.00    -0.256 N
HETATM   34  C13 UNL     1      26.416  45.614  34.825  1.00  0.00     0.333 A
HETATM   35  O8  UNL     1      25.889  46.574  35.429  1.00  0.00    -0.246 OA
HETATM   36  N3  UNL     1      25.772  44.679  34.173  1.00  0.00    -0.302 N
HETATM   37  C14 UNL     1      26.703  43.842  33.673  1.00  0.00     0.126 A
ATOM     38  H3  UNL     1      24.762  44.600  34.063  1.00  0.00     0.171 HD
HETATM   39  C15 UNL     1      26.607  42.700  32.935  1.00  0.00     0.147 A
HETATM   40  C24 UNL     1      27.950  44.343  34.075  1.00  0.00     0.162 A
HETATM   41  N6  UNL     1      27.692  42.007  32.564  1.00  0.00    -0.174 N
HETATM   42  C18 UNL     1      28.910  42.477  32.944  1.00  0.00     0.683 A
ATOM     43  H6  UNL     1      27.608  41.153  32.012  1.00  0.00     0.186 HD
HETATM   44  N8  UNL     1      29.006  43.590  33.661  1.00  0.00    -0.173 N
ATOM     45  H8  UNL     1      29.940  43.904  33.921  1.00  0.00     0.186 HD
BRANCH  39  46
HETATM   46  N4  UNL     1      25.406  42.287  32.594  1.00  0.00    -0.372 N
ATOM     47  H4  UNL     1      24.572  42.583  33.103  1.00  0.00     0.161 HD
BRANCH  46  48
HETATM   48  C16 UNL     1      25.327  41.383  31.449  1.00  0.00     0.148 C
BRANCH  48  49
HETATM   49  C17 UNL     1      23.856  41.216  31.093  1.00  0.00     0.249 C
BRANCH  49  50
HETATM   50  N5  UNL     1      23.567  39.853  30.700  1.00  0.00    -0.078 N
ATOM     51  H53 UNL     1      24.355  39.233  30.886  1.00  0.00     0.274 HD
ATOM     52  H52 UNL     1      22.881  39.421  31.320  1.00  0.00     0.274 HD
ATOM     53  H51 UNL     1      23.274  39.806  29.725  1.00  0.00     0.274 HD
ENDBRANCH  49  50
ENDBRANCH  48  49
ENDBRANCH  46  48
ENDBRANCH  39  46
BRANCH  42  54
HETATM   54  N7  UNL     1      30.045  41.706  32.534  1.00  0.00    -0.217 N
HETATM   55  C19 UNL     1      29.903  40.915  31.334  1.00  0.00     0.141 C
HETATM   56  C20 UNL     1      31.205  40.131  31.166  1.00  0.00     0.020 C
HETATM   57  C21 UNL     1      32.324  41.146  31.166  1.00  0.00     0.003 C
HETATM   58  C22 UNL     1      32.497  41.794  32.516  1.00  0.00     0.020 C
HETATM   59  C23 UNL     1      31.233  41.797  33.341  1.00  0.00     0.141 C
ENDBRANCH  42  54
ENDBRANCH  32  33
ENDBRANCH   1  31
TORSDOF 18
ENDMDL