MODEL 2
REMARK VINA RESULT: -9.175848341      2.335      5.569
REMARK  18 active torsions:
REMARK  status: ('A' for Active; 'I' for Inactive)
REMARK    1  A    between atoms: C2_2  and  C3_7
REMARK    2  A    between atoms: N1_3  and  O1_5
REMARK       I    between atoms: C3_7  and  N2_9
REMARK    3  A    between atoms: N2_9  and  S1_11
REMARK    4  A    between atoms: S1_11  and  N3_14
REMARK       I    between atoms: N3_14  and  C4_16
REMARK    5  A    between atoms: C4_16  and  C5_18
REMARK    6  A    between atoms: C5_18  and  O6_19
REMARK    7  A    between atoms: C5_18  and  C6_21
REMARK    8  A    between atoms: C6_21  and  N4_23
REMARK    9  A    between atoms: N4_23  and  C8_25
REMARK   10  A    between atoms: C8_25  and  N5_26
REMARK   11  A    between atoms: C8_25  and  C16_40
REMARK   12  A    between atoms: N5_26  and  O7_27
REMARK   13  A    between atoms: O7_27  and  C9_28
REMARK   14  A    between atoms: C9_28  and  C10_30
REMARK   15  A    between atoms: C18_42  and  O10_43
REMARK   16  A    between atoms: C19_45  and  O11_46
REMARK   17  A    between atoms: C20_48  and  O12_49
REMARK   18  A    between atoms: O12_49  and  S2_50
ROOT
HETATM    1  C8  UNL     1      29.404  47.825  34.763  1.00  0.00     0.219 C
ENDROOT
BRANCH   1   2
HETATM    2  N4  UNL     1      30.773  47.911  35.149  1.00  0.00    -0.355 N
ATOM      3  H4  UNL     1      31.171  48.835  35.315  1.00  0.00     0.162 HD
BRANCH   2   4
HETATM    4  C6  UNL     1      31.629  46.755  35.319  1.00  0.00     0.118 C
HETATM    5  C7  UNL     1      31.585  45.853  34.103  1.00  0.00     0.035 C
BRANCH   4   6
HETATM    6  C5  UNL     1      33.054  47.241  35.531  1.00  0.00     0.233 C
BRANCH   6   7
HETATM    7  C4  UNL     1      33.282  48.514  34.755  1.00  0.00     0.263 C
HETATM    8  N3  UNL     1      33.999  48.446  33.542  1.00  0.00    -0.235 N
ATOM      9  H3  UNL     1      34.356  47.548  33.212  1.00  0.00     0.183 HD
HETATM   10  O5  UNL     1      32.850  49.598  35.169  1.00  0.00    -0.270 OA
BRANCH   8  11
HETATM   11  S1  UNL     1      34.273  49.858  32.625  1.00  0.00     0.328 S
HETATM   12  O3  UNL     1      35.350  50.738  33.198  1.00  0.00    -0.182 OA
HETATM   13  O4  UNL     1      34.777  49.450  31.250  1.00  0.00    -0.182 OA
BRANCH  11  14
HETATM   14  N2  UNL     1      32.826  50.757  32.388  1.00  0.00    -0.232 N
HETATM   15  C3  UNL     1      32.586  51.589  31.247  1.00  0.00     0.280 C
HETATM   16  O2  UNL     1      33.443  51.712  30.334  1.00  0.00    -0.265 OA
ATOM     17  H2  UNL     1      32.097  50.693  33.099  1.00  0.00     0.183 HD
BRANCH  15  18
HETATM   18  C2  UNL     1      31.332  52.321  31.114  1.00  0.00     0.096 C
HETATM   19  C1  UNL     1      30.944  53.299  32.146  1.00  0.00     0.076 C
HETATM   20  N1  UNL     1      30.568  52.122  30.106  1.00  0.00    -0.268 N
ATOM     21  H1  UNL     1      30.829  51.446  29.389  1.00  0.00     0.194 HD
BRANCH  20  22
HETATM   22  O1  UNL     1      29.400  52.826  30.001  1.00  0.00    -0.290 OA
ATOM     23  H1  UNL     1      29.385  53.629  29.496  1.00  0.00     0.244 HD
ENDBRANCH  20  22
ENDBRANCH  15  18
ENDBRANCH  11  14
ENDBRANCH   8  11
ENDBRANCH   6   7
BRANCH   6  24
HETATM   24  O6  UNL     1      33.936  46.249  35.057  1.00  0.00    -0.384 OA
ATOM     25  H6  UNL     1      33.474  45.692  34.441  1.00  0.00     0.210 HD
ENDBRANCH   6  24
ENDBRANCH   4   6
ENDBRANCH   2   4
ENDBRANCH   1   2
BRANCH   1  26
HETATM   26  N5  UNL     1      28.623  47.222  35.453  1.00  0.00    -0.253 NA
BRANCH  26  27
HETATM   27  O7  UNL     1      27.666  46.479  35.803  1.00  0.00    -0.122 OA
BRANCH  27  28
HETATM   28  C9  UNL     1      26.613  45.826  35.239  1.00  0.00     0.325 C
HETATM   29  O8  UNL     1      25.477  46.058  35.772  1.00  0.00    -0.259 OA
BRANCH  28  30
HETATM   30  C10 UNL     1      26.659  44.903  34.106  1.00  0.00     0.237 C
HETATM   31  C11 UNL     1      27.790  43.896  34.159  1.00  0.00     0.104 C
HETATM   32  C12 UNL     1      27.226  42.825  33.263  1.00  0.00     0.065 A
HETATM   33  C13 UNL     1      25.862  43.005  33.175  1.00  0.00     0.111 A
HETATM   34  N7  UNL     1      27.565  41.754  32.516  1.00  0.00    -0.298 N
HETATM   35  C14 UNL     1      25.399  42.003  32.347  1.00  0.00     0.146 A
HETATM   36  O9  UNL     1      25.481  44.121  33.951  1.00  0.00    -0.332 OA
HETATM   37  N6  UNL     1      26.451  41.281  31.978  1.00  0.00    -0.307 N
ATOM     38  H6  UNL     1      26.407  40.469  31.362  1.00  0.00     0.186 HD
HETATM   39  C15 UNL     1      28.929  41.228  32.347  1.00  0.00     0.177 C
ENDBRANCH  28  30
ENDBRANCH  27  28
ENDBRANCH  26  27
ENDBRANCH   1  26
BRANCH   1  40
HETATM   40  C16 UNL     1      29.058  48.485  33.512  1.00  0.00     0.030 A
HETATM   41  C17 UNL     1      29.802  48.483  32.377  1.00  0.00     0.056 A
HETATM   42  C18 UNL     1      29.365  49.124  31.241  1.00  0.00     0.102 A
HETATM   43  C19 UNL     1      28.166  49.790  31.195  1.00  0.00     0.134 A
HETATM   44  C20 UNL     1      27.376  49.817  32.331  1.00  0.00     0.129 A
HETATM   45  C21 UNL     1      27.843  49.166  33.450  1.00  0.00     0.057 A
BRANCH  42  46
HETATM   46  O10 UNL     1      30.127  49.127  30.061  1.00  0.00    -0.358 OA
ATOM     47  H10 UNL     1      30.590  48.351  29.767  1.00  0.00     0.217 HD
ENDBRANCH  42  46
BRANCH  43  48
HETATM   48  O11 UNL     1      27.725  50.440  30.032  1.00  0.00    -0.356 OA
ATOM     49  H11 UNL     1      28.271  50.506  29.257  1.00  0.00     0.218 HD
ENDBRANCH  43  48
BRANCH  44  50
HETATM   50  O12 UNL     1      26.155  50.480  32.320  1.00  0.00    -0.211 OA
BRANCH  50  51
HETATM   51  S2  UNL     1      26.121  52.159  32.520  1.00  0.00     0.257 S
HETATM   52  O13 UNL     1      24.742  52.607  32.927  1.00  0.00    -0.572 OA
HETATM   53  O14 UNL     1      27.139  52.574  33.575  1.00  0.00    -0.572 OA
HETATM   54  O15 UNL     1      26.578  52.891  31.081  1.00  0.00    -0.572 OA
ENDBRANCH  50  51
ENDBRANCH  44  50
ENDBRANCH   1  40
TORSDOF 18
ENDMDL