MODEL 3
REMARK VINA RESULT: -8.309067641      4.288      9.669
REMARK  16 active torsions:
REMARK  status: ('A' for Active; 'I' for Inactive)
REMARK    1  A    between atoms: N1_1  and  C1_4
REMARK    2  A    between atoms: C2_9  and  S1_10
REMARK    3  A    between atoms: S1_10  and  C3_11
REMARK    4  A    between atoms: C3_11  and  C4_12
REMARK       I    between atoms: C4_12  and  N4_14
REMARK    5  A    between atoms: N4_14  and  N5_16
REMARK    6  A    between atoms: C8_21  and  C9_22
REMARK    7  A    between atoms: C9_22  and  S2_23
REMARK    8  A    between atoms: S2_23  and  C10_24
REMARK    9  A    between atoms: C11_30  and  S4_31
REMARK   10  A    between atoms: S4_31  and  N8_34
REMARK   11  A    between atoms: C13_36  and  O4_37
REMARK   12  A    between atoms: C13_36  and  C14_39
REMARK   13  A    between atoms: C15_42  and  C16_43
REMARK   14  A    between atoms: C16_43  and  N9_44
REMARK   15  A    between atoms: C16_43  and  C17_48
REMARK       I    between atoms: C17_48  and  N10_50
REMARK   16  A    between atoms: N10_50  and  N11_52
ROOT
HETATM    1  N5  UNL     1      27.231  46.090  34.699  1.00  0.00    -0.306 N
ATOM      2  H5  UNL     1      27.003  46.026  35.691  1.00  0.00     0.186 HD
HETATM    3  C5  UNL     1      28.189  46.879  34.381  1.00  0.00     0.004 C
HETATM    4  C6  UNL     1      28.886  47.627  35.446  1.00  0.00     0.054 C
HETATM    5  C7  UNL     1      30.253  47.968  34.831  1.00  0.00     0.011 C
HETATM    6  C8  UNL     1      29.911  49.030  33.750  1.00  0.00     0.002 C
HETATM    7  C15 UNL     1      29.170  48.363  32.629  1.00  0.00     0.035 C
HETATM    8  C18 UNL     1      28.575  47.025  32.986  1.00  0.00     0.061 C
ENDROOT
BRANCH   6   9
HETATM    9  C9  UNL     1      31.292  49.515  33.300  1.00  0.00     0.086 C
BRANCH   9  10
HETATM   10  S2  UNL     1      32.631  49.000  34.352  1.00  0.00    -0.108 SA
BRANCH  10  11
HETATM   11  C10 UNL     1      33.982  48.202  33.427  1.00  0.00     0.117 A
HETATM   12  N6  UNL     1      34.093  46.872  33.452  1.00  0.00    -0.304 N
HETATM   13  S3  UNL     1      35.438  46.560  32.503  1.00  0.00     0.069 SA
ATOM     14  H6  UNL     1      33.498  46.202  33.937  1.00  0.00     0.176 HD
HETATM   15  N7  UNL     1      35.837  48.135  32.090  1.00  0.00    -0.300 N
HETATM   16  C11 UNL     1      34.905  48.870  32.708  1.00  0.00     0.185 A
ATOM     17  H7  UNL     1      36.609  48.457  31.506  1.00  0.00     0.176 HD
BRANCH  16  18
HETATM   18  S4  UNL     1      34.989  50.663  32.574  1.00  0.00     0.265 S
HETATM   19  O2  UNL     1      36.472  51.026  32.692  1.00  0.00    -0.204 OA
HETATM   20  O3  UNL     1      34.346  51.254  33.770  1.00  0.00    -0.204 OA
BRANCH  18  21
HETATM   21  N8  UNL     1      34.415  51.188  31.109  1.00  0.00    -0.156 NA
HETATM   22  C12 UNL     1      33.347  50.610  30.363  1.00  0.00     0.179 A
HETATM   23  C13 UNL     1      33.382  52.083  30.777  1.00  0.00     0.231 A
BRANCH  23  24
HETATM   24  O4  UNL     1      33.668  53.029  29.734  1.00  0.00    -0.364 OA
ATOM     25  H4  UNL     1      34.240  53.751  29.965  1.00  0.00     0.212 HD
ENDBRANCH  23  24
BRANCH  23  26
HETATM   26  C14 UNL     1      32.260  52.498  31.595  1.00  0.00     0.228 C
HETATM   27  O5  UNL     1      31.090  52.511  31.187  1.00  0.00    -0.645 OA
HETATM   28  O6  UNL     1      32.457  52.918  32.927  1.00  0.00    -0.645 OA
ENDBRANCH  23  26
ENDBRANCH  18  21
ENDBRANCH  16  18
ENDBRANCH  10  11
ENDBRANCH   9  10
ENDBRANCH   6   9
BRANCH   7  29
HETATM   29  C16 UNL     1      28.187  49.245  31.901  1.00  0.00     0.281 C
BRANCH  29  30
HETATM   30  N9  UNL     1      26.994  48.552  31.508  1.00  0.00    -0.066 N
ATOM     31  H93 UNL     1      26.450  49.108  30.849  1.00  0.00     0.275 HD
ATOM     32  H92 UNL     1      27.216  47.756  30.910  1.00  0.00     0.275 HD
ATOM     33  H91 UNL     1      26.420  48.262  32.300  1.00  0.00     0.275 HD
ENDBRANCH  29  30
BRANCH  29  34
HETATM   34  C17 UNL     1      28.795  49.860  30.692  1.00  0.00     0.266 C
HETATM   35  O7  UNL     1      29.539  49.176  29.957  1.00  0.00    -0.269 OA
HETATM   36  N10 UNL     1      28.564  51.209  30.336  1.00  0.00    -0.275 N
ATOM     37  H10 UNL     1      27.958  51.770  30.934  1.00  0.00     0.189 HD
BRANCH  36  38
HETATM   38  N11 UNL     1      29.120  51.813  29.211  1.00  0.00    -0.343 N
ATOM     39 2H11 UNL     1      28.794  51.490  28.300  1.00  0.00     0.176 HD
ATOM     40 1H11 UNL     1      29.825  52.549  29.257  1.00  0.00     0.176 HD
ENDBRANCH  36  38
ENDBRANCH  29  34
ENDBRANCH   7  29
BRANCH   1  41
HETATM   41  N4  UNL     1      26.477  45.319  33.840  1.00  0.00    -0.270 N
HETATM   42  C4  UNL     1      26.806  43.982  33.582  1.00  0.00     0.245 C
HETATM   43  O1  UNL     1      27.806  43.455  34.135  1.00  0.00    -0.271 OA
ATOM     44  H4  UNL     1      25.662  45.730  33.385  1.00  0.00     0.190 HD
BRANCH  42  45
HETATM   45  C3  UNL     1      26.027  43.130  32.670  1.00  0.00     0.186 C
BRANCH  45  46
HETATM   46  S1  UNL     1      27.021  41.798  31.939  1.00  0.00    -0.094 SA
BRANCH  46  47
HETATM   47  C2  UNL     1      27.195  40.454  33.141  1.00  0.00     0.130 A
HETATM   48  N3  UNL     1      26.787  40.403  34.397  1.00  0.00    -0.286 N
HETATM   49  N2  UNL     1      26.998  39.367  35.094  1.00  0.00    -0.279 N
ATOM     50  H3  UNL     1      26.300  41.200  34.806  1.00  0.00     0.188 HD
HETATM   51  C1  UNL     1      27.637  38.334  34.538  1.00  0.00     0.159 A
ATOM     52  H2  UNL     1      26.685  39.322  36.064  1.00  0.00     0.189 HD
HETATM   53  S5  UNL     1      27.927  38.914  32.957  1.00  0.00    -0.027 SA
BRANCH  51  54
HETATM   54  N1  UNL     1      27.951  37.182  35.085  1.00  0.00    -0.379 N
ATOM     55  H12 UNL     1      27.946  36.244  34.685  1.00  0.00     0.158 HD
ATOM     56  H11 UNL     1      28.267  36.999  36.038  1.00  0.00     0.158 HD
ENDBRANCH  51  54
ENDBRANCH  46  47
ENDBRANCH  45  46
ENDBRANCH  42  45
ENDBRANCH   1  41
TORSDOF 16
ENDMDL