MODEL 3
REMARK VINA RESULT: -9.908570568      1.934      2.640
REMARK  14 active torsions:
REMARK  status: ('A' for Active; 'I' for Inactive)
REMARK    1  A    between atoms: C3_4  and  N2_5
REMARK    2  A    between atoms: N3_7  and  N4_9
REMARK    3  A    between atoms: C6_16  and  C7_17
REMARK    4  A    between atoms: C7_17  and  N7_18
REMARK    5  A    between atoms: N7_18  and  C8_21
REMARK    6  A    between atoms: C8_21  and  C9_22
REMARK    7  A    between atoms: C9_22  and  C10_23
REMARK    8  A    between atoms: C10_23  and  N8_24
REMARK    9  A    between atoms: C12_26  and  C13_27
REMARK       I    between atoms: C13_27  and  N9_29
REMARK   10  A    between atoms: N10_32  and  O2_33
REMARK   11  A    between atoms: O2_33  and  S1_34
REMARK   12  A    between atoms: S1_34  and  N11_36
REMARK   13  A    between atoms: S1_34  and  N12_40
REMARK   14  A    between atoms: N11_36  and  O4_38
REMARK       I    between atoms: N12_40  and  C16_42
ROOT
HETATM    1  C8  UNL     1      28.695  46.843  35.154  1.00  0.00     0.234 C
ENDROOT
BRANCH   1   2
HETATM    2  N7  UNL     1      27.599  46.549  34.225  1.00  0.00    -0.069 N
ATOM      3  H72 UNL     1      27.927  46.372  33.275  1.00  0.00     0.277 HD
ATOM      4  H71 UNL     1      27.026  47.368  34.024  1.00  0.00     0.277 HD
BRANCH   2   5
HETATM    5  C7  UNL     1      26.818  45.435  34.769  1.00  0.00     0.308 C
BRANCH   5   6
HETATM    6  C6  UNL     1      26.780  44.309  33.792  1.00  0.00     0.109 A
HETATM    7  N6  UNL     1      27.810  43.612  33.321  1.00  0.00    -0.329 N
HETATM    8  C5  UNL     1      27.342  42.595  32.524  1.00  0.00     0.137 A
ATOM      9  H6  UNL     1      28.792  43.802  33.520  1.00  0.00     0.168 HD
HETATM   10  N5  UNL     1      27.987  41.549  31.809  1.00  0.00    -0.356 N
HETATM   11  C18 UNL     1      25.970  42.689  32.517  1.00  0.00     0.148 A
HETATM   12  C4  UNL     1      27.268  40.340  31.510  1.00  0.00     0.277 C
ATOM     13  H5  UNL     1      28.956  41.655  31.509  1.00  0.00     0.162 HD
HETATM   14  N4  UNL     1      25.889  40.636  31.042  1.00  0.00    -0.223 N
HETATM   15  C19 UNL     1      25.231  41.698  31.763  1.00  0.00     0.295 C
HETATM   16  O6  UNL     1      23.968  41.746  31.722  1.00  0.00    -0.264 OA
HETATM   17  N17 UNL     1      25.653  43.737  33.290  1.00  0.00    -0.337 N
ATOM     18  H17 UNL     1      24.704  44.060  33.476  1.00  0.00     0.167 HD
BRANCH  14  19
HETATM   19  N3  UNL     1      25.314  39.931  30.063  1.00  0.00    -0.236 N
HETATM   20  N2  UNL     1      24.381  39.466  29.498  1.00  0.00    -0.283 N
ATOM     21  H2  UNL     1      23.424  39.592  29.828  1.00  0.00     0.188 HD
ATOM     22  H3  UNL     1      26.105  39.631  29.494  1.00  0.00     0.208 HD
BRANCH  20  23
HETATM   23  C3  UNL     1      24.703  38.695  28.289  1.00  0.00     0.080 A
HETATM   24  C2  UNL     1      26.007  38.641  27.859  1.00  0.00     0.127 A
HETATM   25  N1  UNL     1      26.390  37.957  26.748  1.00  0.00    -0.312 N
HETATM   26  C1  UNL     1      27.774  37.930  26.316  1.00  0.00     0.160 C
HETATM   27  C21 UNL     1      25.424  37.327  26.076  1.00  0.00     0.325 A
HETATM   28  N18 UNL     1      24.128  37.369  26.487  1.00  0.00    -0.316 N
HETATM   29  O7  UNL     1      25.738  36.678  25.037  1.00  0.00    -0.247 OA
HETATM   30  C20 UNL     1      23.735  38.034  27.575  1.00  0.00     0.125 A
ATOM     31  H18 UNL     1      23.426  36.870  25.941  1.00  0.00     0.170 HD
ENDBRANCH  20  23
ENDBRANCH  14  19
ENDBRANCH   5   6
ENDBRANCH   2   5
ENDBRANCH   1   2
BRANCH   1  32
HETATM   32  C9  UNL     1      29.977  46.339  34.654  1.00  0.00     0.049 C
BRANCH  32  33
HETATM   33  C10 UNL     1      31.174  46.338  35.530  1.00  0.00     0.151 C
BRANCH  33  34
HETATM   34  N8  UNL     1      32.191  47.227  35.009  1.00  0.00    -0.287 N
HETATM   35  C11 UNL     1      31.849  48.504  34.686  1.00  0.00     0.148 A
HETATM   36  C12 UNL     1      33.004  49.114  34.216  1.00  0.00     0.135 A
HETATM   37  N15 UNL     1      33.947  48.187  34.282  1.00  0.00    -0.280 N
HETATM   38  N16 UNL     1      33.437  47.035  34.771  1.00  0.00    -0.240 N
ATOM     39  H15 UNL     1      34.919  48.322  34.004  1.00  0.00     0.189 HD
ATOM     40  H16 UNL     1      33.951  46.168  34.923  1.00  0.00     0.208 HD
BRANCH  36  41
HETATM   41  C13 UNL     1      33.007  50.511  33.801  1.00  0.00     0.281 C
HETATM   42  O1  UNL     1      33.385  51.402  34.653  1.00  0.00    -0.265 OA
HETATM   43  N9  UNL     1      32.635  51.005  32.548  1.00  0.00    -0.261 N
HETATM   44  C14 UNL     1      32.745  52.398  32.110  1.00  0.00     0.159 C
HETATM   45  C17 UNL     1      32.036  50.369  31.425  1.00  0.00     0.352 C
HETATM   46  C15 UNL     1      31.579  52.636  31.201  1.00  0.00     0.183 C
HETATM   47  N10 UNL     1      31.142  51.322  30.815  1.00  0.00    -0.188 N
HETATM   48  O5  UNL     1      32.215  49.219  31.006  1.00  0.00    -0.244 OA
BRANCH  47  49
HETATM   49  O2  UNL     1      30.053  51.058  30.031  1.00  0.00    -0.143 OA
BRANCH  49  50
HETATM   50  S1  UNL     1      28.805  50.477  30.991  1.00  0.00     0.282 S
HETATM   51  O3  UNL     1      27.782  49.804  30.109  1.00  0.00    -0.194 OA
BRANCH  50  52
HETATM   52  N11 UNL     1      29.294  49.377  32.005  1.00  0.00    -0.187 N
ATOM     53  H11 UNL     1      29.968  49.589  32.740  1.00  0.00     0.208 HD
BRANCH  52  54
HETATM   54  O4  UNL     1      28.763  48.110  31.848  1.00  0.00    -0.280 OA
ATOM     55  H4  UNL     1      29.358  47.432  31.551  1.00  0.00     0.245 HD
ENDBRANCH  52  54
ENDBRANCH  50  52
BRANCH  50  56
HETATM   56  N12 UNL     1      28.120  51.755  31.894  1.00  0.00    -0.250 N
HETATM   57  C16 UNL     1      27.057  51.501  32.797  1.00  0.00     0.196 C
HETATM   58  N13 UNL     1      26.307  52.458  33.272  1.00  0.00    -0.373 N
HETATM   59  N14 UNL     1      26.769  50.182  33.204  1.00  0.00    -0.063 NA
ATOM     60 2H13 UNL     1      26.514  53.412  32.978  1.00  0.00     0.158 HD
ATOM     61 1H13 UNL     1      25.542  52.275  33.921  1.00  0.00     0.158 HD
ATOM     62  H12 UNL     1      28.476  52.704  31.783  1.00  0.00     0.182 HD
ENDBRANCH  50  56
ENDBRANCH  49  50
ENDBRANCH  47  49
ENDBRANCH  36  41
ENDBRANCH  33  34
ENDBRANCH  32  33
ENDBRANCH   1  32
TORSDOF 14
ENDMDL