MODEL 4
REMARK VINA RESULT: -7.658809660      1.564      3.393
REMARK  20 active torsions:
REMARK  status: ('A' for Active; 'I' for Inactive)
REMARK    1  A    between atoms: O1_2  and  C2_3
REMARK    2  A    between atoms: C2_3  and  O2_4
REMARK    3  A    between atoms: O2_4  and  C3_5
REMARK    4  A    between atoms: C4_7  and  N1_8
REMARK    5  A    between atoms: C5_11  and  O6_12
REMARK    6  A    between atoms: C5_11  and  O7_14
REMARK    7  A    between atoms: O7_14  and  C6_15
REMARK    8  A    between atoms: C7_16  and  C8_17
REMARK    9  A    between atoms: C10_23  and  N3_24
REMARK   10  A    between atoms: N3_24  and  C11_26
REMARK   11  A    between atoms: C11_26  and  O11_27
REMARK   12  A    between atoms: C11_26  and  C12_29
REMARK   13  A    between atoms: C12_29  and  N4_30
REMARK   14  A    between atoms: C12_29  and  C17_37
REMARK   15  A    between atoms: N4_30  and  O12_32
REMARK   16  A    between atoms: O12_32  and  C13_33
REMARK   17  A    between atoms: C19_40  and  N5_41
REMARK   18  A    between atoms: C22_49  and  O13_50
REMARK   19  A    between atoms: C22_49  and  C23_52
REMARK   20  A    between atoms: C23_52  and  O14_53
ROOT
HETATM    1  C6  UNL     1      30.941  48.592  33.480  1.00  0.00     0.093 C
HETATM    2  C7  UNL     1      30.561  49.334  32.398  1.00  0.00     0.146 C
HETATM    3  N2  UNL     1      31.507  50.112  31.666  1.00  0.00    -0.291 N
HETATM    4  C9  UNL     1      31.779  51.444  31.211  1.00  0.00     0.251 C
HETATM    5  O10 UNL     1      31.224  52.543  31.022  1.00  0.00    -0.271 OA
HETATM    6  C10 UNL     1      33.200  50.977  31.012  1.00  0.00     0.210 C
HETATM    7  C20 UNL     1      32.741  49.560  31.078  1.00  0.00     0.187 C
HETATM    8  S2  UNL     1      33.451  48.498  32.334  1.00  0.00    -0.134 SA
HETATM    9  C21 UNL     1      32.372  48.705  33.810  1.00  0.00     0.143 C
ENDROOT
BRANCH   6  10
HETATM   10  N3  UNL     1      33.780  51.406  29.742  1.00  0.00    -0.353 N
ATOM     11  H3  UNL     1      33.600  50.844  28.909  1.00  0.00     0.162 HD
BRANCH  10  12
HETATM   12  C11 UNL     1      34.572  52.555  29.615  1.00  0.00     0.168 C
BRANCH  12  13
HETATM   13  O11 UNL     1      33.862  53.595  29.237  1.00  0.00    -0.344 OA
ATOM     14  H11 UNL     1      34.395  54.236  28.781  1.00  0.00     0.219 HD
ENDBRANCH  12  13
BRANCH  12  15
HETATM   15  C12 UNL     1      35.943  52.813  29.812  1.00  0.00     0.132 C
BRANCH  15  16
HETATM   16  N4  UNL     1      36.346  54.051  29.562  1.00  0.00    -0.259 N
ATOM     17  H4  UNL     1      36.702  54.583  30.356  1.00  0.00     0.194 HD
BRANCH  16  18
HETATM   18  O12 UNL     1      36.335  54.673  28.384  1.00  0.00    -0.270 OA
BRANCH  18  19
HETATM   19  C13 UNL     1      36.506  56.061  28.175  1.00  0.00     0.078 C
HETATM   20  C14 UNL     1      35.203  56.818  28.216  1.00  0.00     0.048 C
HETATM   21  C15 UNL     1      37.138  56.350  26.816  1.00  0.00     0.048 C
HETATM   22  C16 UNL     1      37.418  56.667  29.220  1.00  0.00     0.048 C
ENDBRANCH  18  19
ENDBRANCH  16  18
ENDBRANCH  15  16
BRANCH  15  23
HETATM   23  C17 UNL     1      37.013  51.853  30.236  1.00  0.00     0.074 A
HETATM   24  C18 UNL     1      38.287  51.912  29.761  1.00  0.00     0.085 A
HETATM   25  S1  UNL     1      39.081  50.661  30.650  1.00  0.00    -0.064 SA
HETATM   26  C19 UNL     1      37.756  50.145  31.560  1.00  0.00     0.142 A
HETATM   27  N6  UNL     1      36.766  50.932  31.162  1.00  0.00    -0.335 N
ATOM     28  H6  UNL     1      35.832  50.833  31.560  1.00  0.00     0.168 HD
BRANCH  26  29
HETATM   29  N5  UNL     1      37.675  49.183  32.471  1.00  0.00    -0.380 N
ATOM     30  H52 UNL     1      36.930  48.491  32.554  1.00  0.00     0.158 HD
ATOM     31  H51 UNL     1      38.312  48.954  33.235  1.00  0.00     0.158 HD
ENDBRANCH  26  29
ENDBRANCH  15  23
ENDBRANCH  12  15
ENDBRANCH  10  12
ENDBRANCH   6  10
BRANCH   2  32
HETATM   32  C8  UNL     1      29.187  49.351  31.935  1.00  0.00     0.229 C
HETATM   33  O8  UNL     1      28.740  48.525  31.103  1.00  0.00    -0.643 OA
HETATM   34  O9  UNL     1      28.307  50.290  32.403  1.00  0.00    -0.643 OA
ENDBRANCH   2  32
BRANCH   1  35
HETATM   35  O7  UNL     1      29.997  47.860  34.115  1.00  0.00    -0.307 OA
BRANCH  35  36
HETATM   36  C5  UNL     1      29.566  46.553  34.014  1.00  0.00     0.257 C
HETATM   37  C4  UNL     1      29.990  45.784  35.258  1.00  0.00     0.360 C
HETATM   38  O3  UNL     1      29.024  44.850  35.560  1.00  0.00    -0.322 OA
HETATM   39  C3  UNL     1      28.082  44.859  34.575  1.00  0.00     0.307 C
HETATM   40  C22 UNL     1      28.077  46.313  34.055  1.00  0.00     0.190 C
BRANCH  37  41
HETATM   41  N1  UNL     1      31.212  45.025  35.046  1.00  0.00    -0.118 N
HETATM   42  O4  UNL     1      31.159  43.791  34.993  1.00  0.00    -0.534 OA
HETATM   43  O5  UNL     1      32.415  45.650  34.887  1.00  0.00    -0.534 OA
ENDBRANCH  37  41
BRANCH  39  44
HETATM   44  O2  UNL     1      28.477  44.057  33.523  1.00  0.00    -0.334 OA
BRANCH  44  45
HETATM   45  C2  UNL     1      27.632  42.963  33.353  1.00  0.00     0.340 C
BRANCH  45  46
HETATM   46  O1  UNL     1      26.522  43.350  32.634  1.00  0.00    -0.372 OA
HETATM   47  C1  UNL     1      25.704  42.249  32.424  1.00  0.00     0.204 C
ENDBRANCH  45  46
ENDBRANCH  44  45
ENDBRANCH  39  44
BRANCH  40  48
HETATM   48  O13 UNL     1      27.457  46.250  32.833  1.00  0.00    -0.378 OA
ATOM     49  H13 UNL     1      26.767  45.606  32.941  1.00  0.00     0.211 HD
ENDBRANCH  40  48
BRANCH  40  50
HETATM   50  C23 UNL     1      27.385  47.113  35.109  1.00  0.00     0.213 C
BRANCH  50  51
HETATM   51  O14 UNL     1      26.565  46.315  35.905  1.00  0.00    -0.398 OA
ATOM     52  H14 UNL     1      26.119  46.825  36.572  1.00  0.00     0.209 HD
ENDBRANCH  50  51
ENDBRANCH  40  50
BRANCH  36  53
HETATM   53  O6  UNL     1      30.136  45.881  32.919  1.00  0.00    -0.359 OA
ATOM     54  H6  UNL     1      29.698  45.040  32.863  1.00  0.00     0.213 HD
ENDBRANCH  36  53
ENDBRANCH  35  36
ENDBRANCH   1  35
TORSDOF 20
ENDMDL