MODEL 2
REMARK VINA RESULT: -9.880174070      3.832     12.686
REMARK  14 active torsions:
REMARK  status: ('A' for Active; 'I' for Inactive)
REMARK    1  A    between atoms: N1_2  and  S1_4
REMARK    2  A    between atoms: S1_4  and  N2_7
REMARK       I    between atoms: N2_7  and  C2_9
REMARK       I    between atoms: C2_9  and  N3_11
REMARK    3  A    between atoms: N3_11  and  N4_12
REMARK    4  A    between atoms: C3_14  and  C4_15
REMARK    5  A    between atoms: C3_14  and  C5_20
REMARK    6  A    between atoms: C4_15  and  N5_16
REMARK    7  A    between atoms: N6_22  and  C7_23
REMARK    8  A    between atoms: C7_23  and  C8_24
REMARK    9  A    between atoms: C9_27  and  N8_28
REMARK   10  A    between atoms: C11_30  and  C12_31
REMARK   11  A    between atoms: C12_31  and  N9_32
REMARK   12  A    between atoms: N10_35  and  C15_36
REMARK   13  A    between atoms: C16_39  and  O4_40
REMARK   14  A    between atoms: C23_54  and  N15_55
ROOT
HETATM    1  C8  UNL     1      26.474  41.906  33.411  1.00  0.00     0.133 A
HETATM    2  N7  UNL     1      26.441  41.458  32.145  1.00  0.00    -0.177 N
ATOM      3  H7  UNL     1      26.122  42.112  31.430  1.00  0.00     0.185 HD
HETATM    4  C9  UNL     1      26.791  40.229  31.736  1.00  0.00     0.705 A
HETATM    5  N14 UNL     1      27.204  39.385  32.673  1.00  0.00    -0.022 N
ATOM      6  H14 UNL     1      27.482  38.436  32.421  1.00  0.00     0.203 HD
HETATM    7  C23 UNL     1      27.257  39.794  33.988  1.00  0.00     0.691 A
HETATM    8  N16 UNL     1      26.893  41.041  34.330  1.00  0.00    -0.178 N
ATOM      9  H16 UNL     1      26.939  41.328  35.308  1.00  0.00     0.185 HD
ENDROOT
BRANCH   1  10
HETATM   10  C7  UNL     1      26.079  43.323  33.641  1.00  0.00     0.227 C
BRANCH  10  11
HETATM   11  N6  UNL     1      27.221  44.175  33.581  1.00  0.00    -0.280 N
HETATM   12  C6  UNL     1      27.144  45.529  33.601  1.00  0.00     0.145 A
HETATM   13  C5  UNL     1      28.410  46.050  33.565  1.00  0.00     0.093 A
HETATM   14  N18 UNL     1      29.249  44.975  33.526  1.00  0.00    -0.283 N
HETATM   15  N17 UNL     1      28.510  43.883  33.535  1.00  0.00    -0.240 N
ATOM     16  H18 UNL     1      30.268  45.010  33.495  1.00  0.00     0.188 HD
ATOM     17  H17 UNL     1      28.884  42.934  33.509  1.00  0.00     0.208 HD
BRANCH  13  18
HETATM   18  C3  UNL     1      28.792  47.447  33.444  1.00  0.00     0.093 C
HETATM   19  N4  UNL     1      29.611  47.864  32.515  1.00  0.00    -0.231 N
ATOM     20  H4  UNL     1      30.072  47.165  31.932  1.00  0.00     0.202 HD
BRANCH  19  21
HETATM   21  N3  UNL     1      29.883  49.163  32.282  1.00  0.00    -0.264 NA
HETATM   22  C2  UNL     1      30.153  50.461  32.050  1.00  0.00     0.427 C
HETATM   23  N2  UNL     1      31.455  50.895  31.534  1.00  0.00    -0.205 N
HETATM   24  O3  UNL     1      29.335  51.437  32.247  1.00  0.00    -0.227 OA
ATOM     25  H2  UNL     1      32.167  50.191  31.337  1.00  0.00     0.186 HD
BRANCH  23  26
HETATM   26  S1  UNL     1      31.817  52.517  31.255  1.00  0.00     0.323 S
HETATM   27  O1  UNL     1      30.755  53.227  30.450  1.00  0.00    -0.182 OA
HETATM   28  O2  UNL     1      31.877  53.264  32.592  1.00  0.00    -0.182 OA
BRANCH  26  29
HETATM   29  N1  UNL     1      33.318  52.809  30.488  1.00  0.00    -0.307 N
HETATM   30  C1  UNL     1      34.111  51.607  30.385  1.00  0.00     0.161 C
ATOM     31  H1  UNL     1      33.617  53.723  30.146  1.00  0.00     0.173 HD
ENDBRANCH  26  29
ENDBRANCH  23  26
ENDBRANCH  19  21
BRANCH  18  32
HETATM   32  C4  UNL     1      28.122  48.442  34.297  1.00  0.00     0.291 C
BRANCH  32  33
HETATM   33  N5  UNL     1      27.176  49.213  33.521  1.00  0.00    -0.074 N
ATOM     34  H53 UNL     1      26.620  49.835  34.109  1.00  0.00     0.274 HD
ATOM     35  H52 UNL     1      27.639  49.920  32.949  1.00  0.00     0.274 HD
ATOM     36  H51 UNL     1      26.589  48.596  32.961  1.00  0.00     0.274 HD
ENDBRANCH  32  33
ENDBRANCH  18  32
ENDBRANCH  13  18
ENDBRANCH  10  11
ENDBRANCH   1  10
BRANCH   4  37
HETATM   37  N8  UNL     1      26.685  39.914  30.336  1.00  0.00    -0.145 N
HETATM   38  C10 UNL     1      25.559  40.206  29.623  1.00  0.00     0.143 A
HETATM   39  C11 UNL     1      25.692  39.776  28.309  1.00  0.00     0.055 A
HETATM   40  N13 UNL     1      26.888  39.236  28.243  1.00  0.00    -0.346 N
HETATM   41  C21 UNL     1      27.492  39.319  29.476  1.00  0.00     0.101 A
ATOM     42  H13 UNL     1      27.303  38.821  27.409  1.00  0.00     0.167 HD
HETATM   43  C22 UNL     1      28.857  38.781  29.756  1.00  0.00     0.090 C
BRANCH  39  44
HETATM   44  C12 UNL     1      24.602  39.950  27.312  1.00  0.00     0.332 C
BRANCH  44  45
HETATM   45  N9  UNL     1      24.176  38.753  26.683  1.00  0.00     0.113 N
HETATM   46  C13 UNL     1      23.651  37.724  27.523  1.00  0.00     0.294 C
HETATM   47  C14 UNL     1      24.331  36.418  27.111  1.00  0.00     0.157 C
HETATM   48  N10 UNL     1      25.293  36.799  26.129  1.00  0.00    -0.335 N
HETATM   49  C20 UNL     1      25.079  38.190  25.737  1.00  0.00     0.399 C
BRANCH  48  50
HETATM   50  C15 UNL     1      26.345  36.050  25.522  1.00  0.00     0.176 A
HETATM   51  N11 UNL     1      26.055  34.959  24.818  1.00  0.00    -0.318 N
HETATM   52  C16 UNL     1      27.008  34.198  24.209  1.00  0.00     0.157 A
ATOM     53  H11 UNL     1      25.077  34.680  24.730  1.00  0.00     0.169 HD
HETATM   54  C17 UNL     1      28.322  34.622  24.359  1.00  0.00     0.149 A
HETATM   55  N12 UNL     1      28.648  35.698  25.048  1.00  0.00    -0.322 N
HETATM   56  C18 UNL     1      30.036  36.086  25.173  1.00  0.00     0.159 C
HETATM   57  C19 UNL     1      27.669  36.437  25.647  1.00  0.00     0.291 A
HETATM   58  O5  UNL     1      27.996  37.444  26.289  1.00  0.00    -0.264 OA
BRANCH  52  59
HETATM   59  O4  UNL     1      26.672  33.077  23.488  1.00  0.00    -0.345 OA
ATOM     60  H4  UNL     1      27.292  32.668  22.897  1.00  0.00     0.219 HD
ENDBRANCH  52  59
ENDBRANCH  48  50
ENDBRANCH  44  45
ENDBRANCH  39  44
ENDBRANCH   4  37
BRANCH   7  61
HETATM   61  N15 UNL     1      27.655  38.935  34.848  1.00  0.00    -0.234 N
ATOM     62 2H15 UNL     1      27.234  38.010  34.933  1.00  0.00     0.174 HD
ATOM     63 1H15 UNL     1      28.430  39.209  35.453  1.00  0.00     0.174 HD
ENDBRANCH   7  61
TORSDOF 14
ENDMDL