MODEL 4
REMARK VINA RESULT: -7.386109058      1.979      2.975
REMARK  15 active torsions:
REMARK  status: ('A' for Active; 'I' for Inactive)
REMARK    1  A    between atoms: O1_2  and  C2_3
REMARK    2  A    between atoms: C6_8  and  N1_9
REMARK    3  A    between atoms: N1_9  and  C7_11
REMARK    4  A    between atoms: C7_11  and  O3_12
REMARK    5  A    between atoms: N2_14  and  O4_16
REMARK    6  A    between atoms: C8_19  and  C9_20
REMARK    7  A    between atoms: C8_19  and  O8_25
REMARK    8  A    between atoms: C9_20  and  O6_21
REMARK    9  A    between atoms: O6_21  and  C10_22
REMARK   10  A    between atoms: C13_27  and  S1_28
REMARK   11  A    between atoms: S1_28  and  N3_31
REMARK   12  A    between atoms: N3_31  and  C14_33
REMARK   13  A    between atoms: C14_33  and  C15_34
REMARK   14  A    between atoms: C14_33  and  C18_45
REMARK   15  A    between atoms: C15_34  and  C16_35
ROOT
HETATM    1  C2  UNL     1      30.465  42.340  35.486  1.00  0.00     0.285 C
HETATM    2  O2  UNL     1      31.116  43.524  35.183  1.00  0.00    -0.315 OA
HETATM    3  C3  UNL     1      31.037  43.938  33.870  1.00  0.00     0.247 C
HETATM    4  C4  UNL     1      30.605  42.735  32.996  1.00  0.00     0.080 C
HETATM    5  C5  UNL     1      29.145  42.542  33.346  1.00  0.00     0.036 C
HETATM    6  C6  UNL     1      29.133  42.163  34.811  1.00  0.00     0.140 C
HETATM    7  O5  UNL     1      30.092  44.860  33.713  1.00  0.00    -0.306 OA
HETATM    8  C8  UNL     1      30.278  46.200  33.945  1.00  0.00     0.222 C
HETATM    9  C13 UNL     1      31.549  46.685  34.455  1.00  0.00     0.323 C
HETATM   10  S3  UNL     1      33.015  45.807  33.912  1.00  0.00     0.239 S
HETATM   11  O13 UNL     1      33.849  46.560  32.963  1.00  0.00    -0.218 OA
HETATM   12  O14 UNL     1      33.862  45.436  35.133  1.00  0.00    -0.218 OA
HETATM   13  C19 UNL     1      32.395  44.286  33.309  1.00  0.00     0.306 C
HETATM   14  O15 UNL     1      33.013  43.623  32.535  1.00  0.00    -0.274 OA
ENDROOT
BRANCH   9  15
HETATM   15  S1  UNL     1      31.868  48.411  34.517  1.00  0.00     0.251 S
HETATM   16  O9  UNL     1      33.293  48.602  35.113  1.00  0.00    -0.204 OA
HETATM   17  O10 UNL     1      30.987  49.049  35.572  1.00  0.00    -0.204 OA
BRANCH  15  18
HETATM   18  N3  UNL     1      31.795  49.268  33.044  1.00  0.00    -0.303 N
ATOM     19  H3  UNL     1      30.935  49.506  32.551  1.00  0.00     0.173 HD
BRANCH  18  20
HETATM   20  C14 UNL     1      33.144  49.614  32.584  1.00  0.00     0.199 C
BRANCH  20  21
HETATM   21  C15 UNL     1      33.048  49.858  31.046  1.00  0.00     0.103 C
BRANCH  21  22
HETATM   22  C16 UNL     1      31.778  50.593  30.809  1.00  0.00     0.072 A
HETATM   23  N4  UNL     1      31.505  51.880  30.878  1.00  0.00    -0.296 N
HETATM   24  N5  UNL     1      30.353  52.327  30.601  1.00  0.00    -0.279 N
ATOM     25  H4  UNL     1      32.238  52.531  31.160  1.00  0.00     0.187 HD
HETATM   26  C17 UNL     1      29.401  51.467  30.231  1.00  0.00     0.158 A
ATOM     27  H5  UNL     1      30.156  53.326  30.658  1.00  0.00     0.189 HD
HETATM   28  N6  UNL     1      28.159  51.716  29.906  1.00  0.00    -0.379 N
HETATM   29  S2  UNL     1      30.236  49.977  30.300  1.00  0.00    -0.038 SA
ATOM     30  H62 UNL     1      27.660  52.605  29.865  1.00  0.00     0.158 HD
ATOM     31  H61 UNL     1      27.431  51.060  29.624  1.00  0.00     0.158 HD
ENDBRANCH  21  22
ENDBRANCH  20  21
BRANCH  20  32
HETATM   32  C18 UNL     1      33.678  50.847  33.150  1.00  0.00     0.197 C
HETATM   33  O11 UNL     1      34.908  51.085  33.219  1.00  0.00    -0.646 OA
HETATM   34  O12 UNL     1      32.811  51.811  33.633  1.00  0.00    -0.646 OA
ENDBRANCH  20  32
ENDBRANCH  18  20
ENDBRANCH  15  18
ENDBRANCH   9  15
BRANCH   8  35
HETATM   35  C9  UNL     1      29.132  46.624  34.959  1.00  0.00     0.249 C
BRANCH  35  36
HETATM   36  O6  UNL     1      28.279  45.531  35.170  1.00  0.00    -0.316 OA
BRANCH  36  37
HETATM   37  C10 UNL     1      26.926  45.539  35.000  1.00  0.00     0.254 C
HETATM   38  C11 UNL     1      26.159  44.783  33.990  1.00  0.00     0.126 C
HETATM   39  O7  UNL     1      26.253  46.273  35.793  1.00  0.00    -0.266 OA
ENDBRANCH  36  37
ENDBRANCH  35  36
ENDBRANCH   8  35
BRANCH   8  40
HETATM   40  O8  UNL     1      29.866  46.832  32.802  1.00  0.00    -0.356 OA
HETATM   41  C12 UNL     1      28.735  47.566  32.810  1.00  0.00     0.205 C
ENDBRANCH   8  40
BRANCH   1  42
HETATM   42  O1  UNL     1      30.201  42.400  36.859  1.00  0.00    -0.364 OA
HETATM   43  C1  UNL     1      31.242  42.856  37.620  1.00  0.00     0.204 C
ENDBRANCH   1  42
BRANCH   6  44
HETATM   44  N1  UNL     1      28.713  40.784  34.859  1.00  0.00    -0.346 N
ATOM     45  H1  UNL     1      29.339  40.066  35.224  1.00  0.00     0.163 HD
BRANCH  44  46
HETATM   46  C7  UNL     1      27.424  40.439  34.395  1.00  0.00     0.237 C
HETATM   47  N2  UNL     1      27.133  39.297  33.881  1.00  0.00    -0.233 N
ATOM     48  H2  UNL     1      26.190  39.082  33.557  1.00  0.00     0.198 HD
BRANCH  46  49
HETATM   49  O3  UNL     1      26.378  41.376  34.485  1.00  0.00    -0.331 OA
ATOM     50  H3  UNL     1      26.569  42.272  34.736  1.00  0.00     0.221 HD
ENDBRANCH  46  49
BRANCH  47  51
HETATM   51  O4  UNL     1      28.156  38.373  33.789  1.00  0.00    -0.287 OA
ATOM     52  H4  UNL     1      27.912  37.456  33.829  1.00  0.00     0.244 HD
ENDBRANCH  47  51
ENDBRANCH  44  46
ENDBRANCH   6  44
TORSDOF 15
ENDMDL