MODEL 1
REMARK VINA RESULT: -8.677642967      0.000      0.000
REMARK  16 active torsions:
REMARK  status: ('A' for Active; 'I' for Inactive)
REMARK    1  A    between atoms: C2_2  and  N1_3
REMARK    2  A    between atoms: C2_2  and  C3_7
REMARK    3  A    between atoms: C3_7  and  O1_8
REMARK    4  A    between atoms: O1_8  and  N2_9
REMARK    5  A    between atoms: N2_9  and  C4_10
REMARK    6  A    between atoms: C4_10  and  C5_11
REMARK    7  A    between atoms: C6_14  and  N4_15
REMARK       I    between atoms: N4_15  and  C7_17
REMARK    8  A    between atoms: C7_17  and  C8_19
REMARK    9  A    between atoms: C10_23  and  C11_24
REMARK   10  A    between atoms: C12_25  and  N6_26
REMARK       I    between atoms: N7_29  and  C15_30
REMARK   11  A    between atoms: C15_30  and  C16_32
REMARK   12  A    between atoms: C19_39  and  S1_40
REMARK   13  A    between atoms: S1_40  and  C20_41
REMARK   14  A    between atoms: C20_41  and  C21_42
REMARK   15  A    between atoms: N10_45  and  N11_46
REMARK   16  A    between atoms: C24_56  and  O10_57
ROOT
HETATM    1  C8  UNL     1      31.950  47.325  33.585  1.00  0.00     0.177 A
HETATM    2  N5  UNL     1      31.675  47.832  32.372  1.00  0.00    -0.354 N
ATOM      3  H5  UNL     1      30.970  47.404  31.774  1.00  0.00     0.165 HD
HETATM    4  C9  UNL     1      32.363  48.931  31.965  1.00  0.00     0.128 A
HETATM    5  C10 UNL     1      33.320  49.565  32.704  1.00  0.00     0.127 A
HETATM    6  O7  UNL     1      33.557  49.019  33.903  1.00  0.00    -0.270 OA
HETATM    7  C22 UNL     1      32.924  47.980  34.318  1.00  0.00     0.321 A
HETATM    8  O8  UNL     1      33.188  47.515  35.451  1.00  0.00    -0.257 OA
ENDROOT
BRANCH   1   9
HETATM    9  C7  UNL     1      31.239  46.149  34.082  1.00  0.00     0.280 C
HETATM   10  N4  UNL     1      30.198  46.217  35.019  1.00  0.00    -0.303 N
ATOM     11  H4  UNL     1      30.389  46.624  35.935  1.00  0.00     0.171 HD
HETATM   12  O2  UNL     1      31.592  45.032  33.639  1.00  0.00    -0.265 OA
BRANCH  10  13
HETATM   13  C6  UNL     1      29.021  45.789  34.771  1.00  0.00     0.178 A
HETATM   14  N3  UNL     1      28.706  44.624  34.193  1.00  0.00    -0.332 N
HETATM   15  C5  UNL     1      27.425  44.262  33.983  1.00  0.00     0.117 A
ATOM     16  H3  UNL     1      29.454  43.994  33.905  1.00  0.00     0.168 HD
HETATM   17  C24 UNL     1      26.367  45.073  34.353  1.00  0.00     0.173 A
HETATM   18  N12 UNL     1      26.661  46.238  34.931  1.00  0.00    -0.299 N
HETATM   19  C23 UNL     1      27.942  46.601  35.141  1.00  0.00     0.291 A
ATOM     20  H12 UNL     1      25.907  46.862  35.217  1.00  0.00     0.171 HD
HETATM   21  O9  UNL     1      28.196  47.713  35.692  1.00  0.00    -0.264 OA
BRANCH  15  22
HETATM   22  C4  UNL     1      27.113  42.965  33.345  1.00  0.00     0.252 C
BRANCH  22  23
HETATM   23  N2  UNL     1      26.529  42.791  32.330  1.00  0.00    -0.292 NA
BRANCH  23  24
HETATM   24  O1  UNL     1      25.901  42.605  31.257  1.00  0.00    -0.207 OA
BRANCH  24  25
HETATM   25  C3  UNL     1      26.231  41.745  30.201  1.00  0.00     0.250 C
BRANCH  25  26
HETATM   26  C2  UNL     1      25.021  40.906  29.914  1.00  0.00     0.206 C
HETATM   27  C1  UNL     1      25.462  39.601  29.317  1.00  0.00     0.042 C
BRANCH  26  28
HETATM   28  N1  UNL     1      24.163  40.766  31.065  1.00  0.00    -0.073 N
ATOM     29  H13 UNL     1      23.201  41.005  30.826  1.00  0.00     0.274 HD
ATOM     30  H12 UNL     1      24.042  39.781  31.304  1.00  0.00     0.274 HD
ATOM     31  H11 UNL     1      24.471  41.296  31.881  1.00  0.00     0.274 HD
ENDBRANCH  26  28
ENDBRANCH  25  26
ENDBRANCH  24  25
ENDBRANCH  23  24
ENDBRANCH  22  23
ENDBRANCH  15  22
BRANCH  17  32
HETATM   32  O10 UNL     1      25.051  44.701  34.137  1.00  0.00    -0.344 OA
ATOM     33  H10 UNL     1      24.428  44.627  34.849  1.00  0.00     0.219 HD
ENDBRANCH  17  32
ENDBRANCH  10  13
ENDBRANCH   1   9
BRANCH   5  34
HETATM   34  C11 UNL     1      34.082  50.738  32.307  1.00  0.00     0.137 A
HETATM   35  C12 UNL     1      33.640  51.951  31.884  1.00  0.00     0.137 A
HETATM   36  N8  UNL     1      34.771  52.680  31.562  1.00  0.00    -0.320 N
HETATM   37  C19 UNL     1      35.868  51.949  31.779  1.00  0.00     0.168 A
ATOM     38  H8  UNL     1      34.767  53.637  31.210  1.00  0.00     0.169 HD
HETATM   39  N10 UNL     1      35.448  50.766  32.233  1.00  0.00    -0.234 N
BRANCH  35  40
HETATM   40  N6  UNL     1      32.361  52.536  31.789  1.00  0.00    -0.362 N
HETATM   41  C13 UNL     1      32.038  53.422  30.702  1.00  0.00     0.144 C
HETATM   42  C14 UNL     1      30.700  53.163  30.060  1.00  0.00     0.146 C
HETATM   43  N7  UNL     1      29.984  52.147  30.847  1.00  0.00    -0.340 N
HETATM   44  C15 UNL     1      29.391  51.071  30.165  1.00  0.00     0.320 C
HETATM   45  C17 UNL     1      29.976  52.395  32.264  1.00  0.00     0.146 C
HETATM   46  O3  UNL     1      29.509  51.073  28.875  1.00  0.00    -0.261 OA
HETATM   47  C18 UNL     1      31.381  52.181  32.828  1.00  0.00     0.144 C
BRANCH  44  48
HETATM   48  C16 UNL     1      28.670  49.971  30.745  1.00  0.00     0.270 C
HETATM   49  O4  UNL     1      29.146  48.834  30.834  1.00  0.00    -0.640 OA
HETATM   50  O5  UNL     1      27.376  50.187  31.230  1.00  0.00    -0.640 OA
ENDBRANCH  44  48
ENDBRANCH  35  40
BRANCH  37  51
HETATM   51  S1  UNL     1      37.581  52.444  31.512  1.00  0.00    -0.083 SA
BRANCH  51  52
HETATM   52  C20 UNL     1      38.258  51.616  30.051  1.00  0.00     0.181 C
BRANCH  52  53
HETATM   53  C21 UNL     1      39.269  50.630  30.500  1.00  0.00     0.240 C
HETATM   54  N9  UNL     1      40.633  50.753  30.125  1.00  0.00    -0.061 NA
HETATM   55  O6  UNL     1      38.957  49.638  31.234  1.00  0.00    -0.276 OA
ENDBRANCH  52  53
ENDBRANCH  51  52
ENDBRANCH  37  51
BRANCH  39  56
HETATM   56  N11 UNL     1      36.307  49.715  32.580  1.00  0.00    -0.336 N
ATOM     57 2H11 UNL     1      36.087  49.013  33.286  1.00  0.00     0.177 HD
ATOM     58 1H11 UNL     1      37.225  49.538  32.174  1.00  0.00     0.177 HD
ENDBRANCH  39  56
ENDBRANCH   5  34
TORSDOF 16
ENDMDL