MODEL 1
REMARK VINA RESULT: -6.434581387      0.000      0.000
REMARK  6 active torsions:
REMARK  status: ('A' for Active; 'I' for Inactive)
REMARK    1  A    between atoms: C2_2  and  C3_3
REMARK    2  A    between atoms: C3_3  and  C4_4
REMARK    3  A    between atoms: C4_4  and  C5_5
REMARK    4  A    between atoms: C5_5  and  N1_6
REMARK    5  A    between atoms: N1_6  and  C6_8
REMARK    6  A    between atoms: C8_17  and  N5_18
ROOT
HETATM    1  C6  UNL     1       6.738   9.134  -0.541  1.00  0.00     0.707 A
HETATM    2  N2  UNL     1       7.605   9.614  -1.451  1.00  0.00    -0.022 N
ATOM      3  H2  UNL     1       7.372   9.520  -2.439  1.00  0.00     0.203 HD
HETATM    4  C7  UNL     1       8.765  10.214  -1.124  1.00  0.00     0.705 A
HETATM    5  N3  UNL     1       9.565  10.661  -2.029  1.00  0.00    -0.234 N
ATOM      6  H31 UNL     1      10.444  11.115  -1.781  1.00  0.00     0.174 HD
ATOM      7  H32 UNL     1       9.353  10.579  -3.024  1.00  0.00     0.174 HD
HETATM    8  N4  UNL     1       9.049  10.323   0.209  1.00  0.00    -0.022 N
ATOM      9  H4  UNL     1       9.920  10.770   0.496  1.00  0.00     0.203 HD
HETATM   10  C8  UNL     1       8.220   9.860   1.140  1.00  0.00     0.706 A
HETATM   11  N6  UNL     1       7.076   9.272   0.772  1.00  0.00    -0.022 N
ATOM     12  H6  UNL     1       6.443   8.918   1.491  1.00  0.00     0.203 HD
ENDROOT
BRANCH   1  13
HETATM   13  N1  UNL     1       5.644   8.568  -0.834  1.00  0.00    -0.225 N
ATOM     14  H1  UNL     1       5.119   8.139  -0.072  1.00  0.00     0.177 HD
BRANCH  13  15
HETATM   15  C5  UNL     1       5.081   8.483  -2.153  1.00  0.00     0.138 C
BRANCH  15  16
HETATM   16  C4  UNL     1       3.593   8.736  -2.062  1.00  0.00     0.020 C
BRANCH  16  17
HETATM   17  C3  UNL     1       3.229  10.121  -2.554  1.00  0.00     0.001 C
BRANCH  17  18
HETATM   18  C2  UNL     1       2.370   9.956  -3.777  1.00  0.00    -0.004 C
HETATM   19  C1  UNL     1       3.107  10.199  -5.062  1.00  0.00     0.005 C
ENDBRANCH  17  18
ENDBRANCH  16  17
ENDBRANCH  15  16
ENDBRANCH  13  15
ENDBRANCH   1  13
BRANCH  10  20
HETATM   20  N5  UNL     1       8.503   9.973   2.379  1.00  0.00    -0.229 N
HETATM   21  C9  UNL     1       8.988  11.229   2.905  1.00  0.00     0.165 C
ATOM     22  H5  UNL     1       8.388   9.172   3.001  1.00  0.00     0.177 HD
ENDBRANCH  10  20
TORSDOF 6
ENDMDL