MODEL 5
REMARK VINA RESULT: -5.903179663      2.267      5.967
REMARK  6 active torsions:
REMARK  status: ('A' for Active; 'I' for Inactive)
REMARK    1  A    between atoms: C2_2  and  C3_3
REMARK    2  A    between atoms: C3_3  and  C4_4
REMARK    3  A    between atoms: C5_7  and  N2_8
REMARK    4  A    between atoms: C6_13  and  N4_14
REMARK    5  A    between atoms: N4_14  and  C7_16
REMARK    6  A    between atoms: C7_16  and  C8_17
ROOT
HETATM    1  C4  UNL     1       9.933  10.752   0.083  1.00  0.00     0.051 A
HETATM    2  N1  UNL     1       9.124  10.648   1.152  1.00  0.00    -0.194 N
ATOM      3  H1  UNL     1       9.533  10.753   2.080  1.00  0.00     0.184 HD
HETATM    4  C5  UNL     1       7.813  10.415   1.062  1.00  0.00     0.677 A
HETATM    5  N3  UNL     1       7.227  10.271  -0.139  1.00  0.00    -0.176 N
ATOM      6  H3  UNL     1       6.224  10.095  -0.200  1.00  0.00     0.186 HD
HETATM    7  C6  UNL     1       7.975  10.361  -1.276  1.00  0.00     0.140 A
HETATM    8  C10 UNL     1       9.329  10.603  -1.150  1.00  0.00     0.112 A
HETATM    9  C11 UNL     1      10.109  10.691  -2.375  1.00  0.00     0.105 C
HETATM   10  N6  UNL     1      10.735  10.742  -3.336  1.00  0.00    -0.191 NA
ENDROOT
BRANCH   1  11
HETATM   11  C3  UNL     1      11.361  11.016   0.243  1.00  0.00     0.059 C
BRANCH  11  12
HETATM   12  C2  UNL     1      11.744  11.402   1.656  1.00  0.00     0.002 C
HETATM   13  C1  UNL     1      13.248  11.416   1.831  1.00  0.00     0.005 C
ENDBRANCH  11  12
ENDBRANCH   1  11
BRANCH   7  14
HETATM   14  N4  UNL     1       7.465  10.231  -2.454  1.00  0.00    -0.372 N
ATOM     15  H4  UNL     1       7.548  10.970  -3.151  1.00  0.00     0.161 HD
BRANCH  14  16
HETATM   16  C7  UNL     1       6.771   8.993  -2.747  1.00  0.00     0.156 C
BRANCH  16  17
HETATM   17  C8  UNL     1       5.334   9.247  -3.150  1.00  0.00     0.229 A
HETATM   18  C9  UNL     1       4.304   8.530  -2.314  1.00  0.00     0.267 A
HETATM   19  N5  UNL     1       4.485   9.965  -2.228  1.00  0.00    -0.066 N
ATOM     20  H52 UNL     1       4.674  10.603  -1.455  1.00  0.00     0.277 HD
ATOM     21  H51 UNL     1       3.853  10.759  -2.331  1.00  0.00     0.277 HD
ENDBRANCH  16  17
ENDBRANCH  14  16
ENDBRANCH   7  14
BRANCH   4  22
HETATM   22  N2  UNL     1       7.087  10.325   2.121  1.00  0.00    -0.234 N
ATOM     23  H22 UNL     1       6.215   9.799   2.076  1.00  0.00     0.174 HD
ATOM     24  H21 UNL     1       7.376  10.774   2.991  1.00  0.00     0.174 HD
ENDBRANCH   4  22
TORSDOF 6
ENDMDL