MODEL 4
REMARK VINA RESULT: -5.553136004      2.366      3.426
REMARK  4 active torsions:
REMARK  status: ('A' for Active; 'I' for Inactive)
REMARK    1  A    between atoms: C2_2  and  C3_3
REMARK    2  A    between atoms: C3_3  and  C4_4
REMARK    3  A    between atoms: C4_4  and  C5_5
REMARK    4  A    between atoms: C5_5  and  C6_6
ROOT
HETATM    1  C6  UNL     1       8.316  10.302  -0.644  1.00  0.00     0.056 C
HETATM    2  C7  UNL     1       8.264   9.671   0.716  1.00  0.00     0.040 C
HETATM    3  C8  UNL     1       7.445  10.465   1.712  1.00  0.00     0.233 C
HETATM    4  N1  UNL     1       8.184  11.630   2.087  1.00  0.00    -0.074 N
ATOM      5  H11 UNL     1       7.595  12.329   2.540  1.00  0.00     0.277 HD
ATOM      6  H12 UNL     1       8.469  12.181   1.278  1.00  0.00     0.277 HD
HETATM    7  C9  UNL     1       9.295  11.253   2.901  1.00  0.00     0.253 C
HETATM    8  C10 UNL     1      10.568  11.712   2.241  1.00  0.00     0.166 C
HETATM    9  N2  UNL     1      10.274  12.197   0.934  1.00  0.00    -0.334 N
ATOM     10  H2  UNL     1       9.868  13.119   0.771  1.00  0.00     0.180 HD
HETATM   11  N3  UNL     1      10.581  11.320  -0.107  1.00  0.00    -0.293 N
ATOM     12  H3  UNL     1      11.559  11.047  -0.207  1.00  0.00     0.188 HD
HETATM   13  C11 UNL     1       9.670  10.778  -1.032  1.00  0.00     0.095 C
HETATM   14  N4  UNL     1       9.962  10.661  -2.307  1.00  0.00    -0.383 N
ATOM     15  H4  UNL     1       9.270  10.263  -2.942  1.00  0.00     0.160 HD
HETATM   16  C12 UNL     1      11.248  11.085  -2.832  1.00  0.00     0.147 C
ENDROOT
BRANCH   1  17
HETATM   17  C5  UNL     1       7.659   9.465  -1.707  1.00  0.00     0.012 C
BRANCH  17  18
HETATM   18  C4  UNL     1       6.547   8.612  -1.218  1.00  0.00     0.001 C
BRANCH  18  19
HETATM   19  C3  UNL     1       5.600   8.323  -2.356  1.00  0.00    -0.000 C
BRANCH  19  20
HETATM   20  C2  UNL     1       4.161   8.614  -2.021  1.00  0.00    -0.005 C
HETATM   21  C1  UNL     1       3.755   9.965  -2.623  1.00  0.00     0.005 C
ENDBRANCH  19  20
ENDBRANCH  18  19
ENDBRANCH  17  18
ENDBRANCH   1  17
TORSDOF 4
ENDMDL