MODEL 3
REMARK VINA RESULT: -6.999608997      1.245      1.498
REMARK  4 active torsions:
REMARK  status: ('A' for Active; 'I' for Inactive)
REMARK    1  A    between atoms: C4_11  and  C5_12
REMARK    2  A    between atoms: C5_12  and  C6_13
REMARK    3  A    between atoms: C6_13  and  C7_14
REMARK    4  A    between atoms: C7_14  and  C8_15
ROOT
HETATM    1  C1  UNL     1       4.749  10.699  -5.381  1.00  0.00     0.071 C
HETATM    2  C2  UNL     1       3.601   9.804  -5.153  1.00  0.00     0.045 A
HETATM    3  N1  UNL     1       2.708   9.340  -6.029  1.00  0.00    -0.194 N
ATOM      4  H1  UNL     1       2.707   9.562  -7.025  1.00  0.00     0.184 HD
HETATM    5  C3  UNL     1       1.809   8.543  -5.426  1.00  0.00     0.676 A
HETATM    6  N2  UNL     1       0.816   7.933  -5.978  1.00  0.00    -0.234 N
ATOM      7  H21 UNL     1       0.134   7.328  -5.521  1.00  0.00     0.174 HD
ATOM      8  H22 UNL     1       0.542   7.949  -6.960  1.00  0.00     0.174 HD
HETATM    9  N3  UNL     1       2.170   8.521  -4.132  1.00  0.00    -0.194 N
ATOM     10  H3  UNL     1       1.681   7.998  -3.406  1.00  0.00     0.184 HD
HETATM   11  C4  UNL     1       3.248   9.268  -3.921  1.00  0.00     0.049 A
ENDROOT
BRANCH  11  12
HETATM   12  C5  UNL     1       3.954   9.501  -2.622  1.00  0.00     0.060 C
BRANCH  12  13
HETATM   13  C6  UNL     1       4.797   8.283  -2.254  1.00  0.00     0.008 C
BRANCH  13  14
HETATM   14  C7  UNL     1       6.222   8.626  -2.565  1.00  0.00     0.034 C
BRANCH  14  15
HETATM   15  C8  UNL     1       6.898   9.333  -1.392  1.00  0.00     0.138 C
HETATM   16  C9  UNL     1       6.568   8.569  -0.162  1.00  0.00     0.145 C
HETATM   17  N4  UNL     1       7.443   8.713   0.936  1.00  0.00    -0.417 N
HETATM   18  C10 UNL     1       8.695   9.331   0.712  1.00  0.00     0.140 C
ATOM     19  H4  UNL     1       7.180   8.381   1.864  1.00  0.00     0.153 HD
HETATM   20  C11 UNL     1       8.816  10.106  -0.570  1.00  0.00     0.187 C
HETATM   21  O1  UNL     1       8.253   9.422  -1.649  1.00  0.00    -0.383 OA
ENDBRANCH  14  15
ENDBRANCH  13  14
ENDBRANCH  12  13
ENDBRANCH  11  12
TORSDOF 4
ENDMDL