MODEL 2
REMARK VINA RESULT: -7.316112079      0.878      1.097
REMARK  6 active torsions:
REMARK  status: ('A' for Active; 'I' for Inactive)
REMARK    1  A    between atoms: N1_1  and  C1_4
REMARK    2  A    between atoms: C2_9  and  N4_10
REMARK    3  A    between atoms: N4_10  and  C3_12
REMARK    4  A    between atoms: C3_12  and  C4_13
REMARK    5  A    between atoms: C4_13  and  O1_14
REMARK    6  A    between atoms: O1_14  and  C5_15
ROOT
HETATM    1  C1  UNL     1       8.182  10.183   1.971  1.00  0.00     0.705 A
HETATM    2  N2  UNL     1       8.802   9.035   1.701  1.00  0.00    -0.118 N
ATOM      3  H2  UNL     1       9.642   8.684   2.161  1.00  0.00     0.206 HD
HETATM    4  N3  UNL     1       8.130   8.427   0.721  1.00  0.00    -0.117 N
ATOM      5  H3  UNL     1       8.376   7.527   0.309  1.00  0.00     0.206 HD
HETATM    6  C2  UNL     1       7.078   9.182   0.361  1.00  0.00     0.707 A
HETATM    7  N5  UNL     1       7.118  10.275   1.145  1.00  0.00    -0.020 N
ATOM      8  H5  UNL     1       6.453  11.048   1.119  1.00  0.00     0.203 HD
ENDROOT
BRANCH   6   9
HETATM    9  N4  UNL     1       6.212   8.908  -0.553  1.00  0.00    -0.222 N
ATOM     10  H4  UNL     1       5.257   8.652  -0.304  1.00  0.00     0.177 HD
BRANCH   9  11
HETATM   11  C3  UNL     1       6.623   8.972  -1.948  1.00  0.00     0.164 C
BRANCH  11  12
HETATM   12  C4  UNL     1       6.193  10.240  -2.608  1.00  0.00     0.188 C
BRANCH  12  13
HETATM   13  O1  UNL     1       4.834  10.343  -2.635  1.00  0.00    -0.384 OA
BRANCH  13  14
HETATM   14  C5  UNL     1       4.164   9.770  -3.665  1.00  0.00     0.121 C
HETATM   15  C6  UNL     1       4.810   9.992  -5.016  1.00  0.00     0.032 C
HETATM   16  C7  UNL     1       3.816  10.168  -6.115  1.00  0.00     0.002 C
HETATM   17  C8  UNL     1       2.642   9.252  -6.050  1.00  0.00     0.000 C
HETATM   18  C9  UNL     1       2.039   9.163  -4.666  1.00  0.00     0.002 C
HETATM   19  C10 UNL     1       2.726  10.226  -3.797  1.00  0.00     0.032 C
ENDBRANCH  13  14
ENDBRANCH  12  13
ENDBRANCH  11  12
ENDBRANCH   9  11
ENDBRANCH   6   9
BRANCH   1  20
HETATM   20  N1  UNL     1       8.525  11.062   2.862  1.00  0.00    -0.233 N
ATOM     21  H12 UNL     1       8.559  12.071   2.717  1.00  0.00     0.174 HD
ATOM     22  H11 UNL     1       8.806  10.879   3.825  1.00  0.00     0.174 HD
ENDBRANCH   1  20
TORSDOF 6
ENDMDL