MODEL 2
REMARK VINA RESULT: -7.153598838      2.042      2.906
REMARK  5 active torsions:
REMARK  status: ('A' for Active; 'I' for Inactive)
REMARK    1  A    between atoms: N1_1  and  C1_4
REMARK    2  A    between atoms: N5_11  and  C3_12
REMARK    3  A    between atoms: C3_12  and  C4_13
REMARK    4  A    between atoms: C4_13  and  C5_14
REMARK    5  A    between atoms: C5_14  and  C6_15
ROOT
HETATM    1  C1  UNL     1       7.359   9.823   0.806  1.00  0.00     0.695 A
HETATM    2  N2  UNL     1       7.248  10.773   1.748  1.00  0.00    -0.161 N
ATOM      3  H2  UNL     1       7.041  10.618   2.735  1.00  0.00     0.187 HD
HETATM    4  C2  UNL     1       7.457  11.972   1.161  1.00  0.00     0.222 A
HETATM    5  N3  UNL     1       7.444  13.260   1.742  1.00  0.00    -0.061 NA
HETATM    6  N4  UNL     1       7.694  11.714  -0.134  1.00  0.00    -0.257 N
ATOM      7  H4  UNL     1       7.891  12.421  -0.844  1.00  0.00     0.190 HD
HETATM    8  N5  UNL     1       7.636  10.410  -0.360  1.00  0.00    -0.122 N
ENDROOT
BRANCH   8   9
HETATM    9  C3  UNL     1       7.843   9.815  -1.646  1.00  0.00     0.168 C
BRANCH   9  10
HETATM   10  C4  UNL     1       6.753  10.295  -2.610  1.00  0.00     0.023 C
BRANCH  10  11
HETATM   11  C5  UNL     1       5.523   9.474  -2.292  1.00  0.00     0.006 C
BRANCH  11  12
HETATM   12  C6  UNL     1       4.665   9.250  -3.516  1.00  0.00    -0.014 C
HETATM   13  C7  UNL     1       3.224   9.530  -3.285  1.00  0.00     0.004 C
HETATM   14  C8  UNL     1       2.573  10.401  -4.300  1.00  0.00     0.000 C
HETATM   15  C9  UNL     1       2.928  10.056  -5.721  1.00  0.00     0.000 C
HETATM   16  C10 UNL     1       4.390   9.733  -5.890  1.00  0.00     0.000 C
HETATM   17  C11 UNL     1       5.173  10.129  -4.635  1.00  0.00     0.004 C
ENDBRANCH  11  12
ENDBRANCH  10  11
ENDBRANCH   9  10
ENDBRANCH   8   9
BRANCH   1  18
HETATM   18  N1  UNL     1       7.228   8.552   0.966  1.00  0.00    -0.233 N
ATOM     19  H12 UNL     1       7.446   8.055   1.830  1.00  0.00     0.174 HD
ATOM     20  H11 UNL     1       6.898   7.876   0.277  1.00  0.00     0.174 HD
ENDBRANCH   1  18
TORSDOF 5
ENDMDL