MODEL 2
REMARK VINA RESULT: -6.865040012      0.046      1.917
REMARK  8 active torsions:
REMARK  status: ('A' for Active; 'I' for Inactive)
REMARK    1  A    between atoms: C3_3  and  C4_4
REMARK    2  A    between atoms: C5_5  and  C6_6
REMARK    3  A    between atoms: C6_6  and  C7_7
REMARK    4  A    between atoms: C7_7  and  C8_8
REMARK    5  A    between atoms: C8_8  and  C9_9
REMARK    6  A    between atoms: C9_9  and  C10_10
REMARK    7  A    between atoms: C11_13  and  N2_14
REMARK    8  A    between atoms: C12_19  and  N4_20
ROOT
HETATM    1  C1  UNL     1       9.019  10.935   2.835  1.00  0.00     0.113 C
HETATM    2  C2  UNL     1       8.307  10.314   1.717  1.00  0.00    -0.097 C
HETATM    3  C3  UNL     1       7.701   9.811   0.792  1.00  0.00    -0.015 C
ENDROOT
BRANCH   3   4
HETATM    4  C4  UNL     1       6.980   9.245  -0.293  1.00  0.00    -0.015 C
HETATM    5  C5  UNL     1       6.361   8.782  -1.222  1.00  0.00    -0.092 C
BRANCH   5   6
HETATM    6  C6  UNL     1       5.588   8.236  -2.356  1.00  0.00     0.095 C
BRANCH   6   7
HETATM    7  C7  UNL     1       4.140   8.614  -2.150  1.00  0.00     0.012 C
BRANCH   7   8
HETATM    8  C8  UNL     1       3.904   9.978  -2.751  1.00  0.00     0.008 C
BRANCH   8   9
HETATM    9  C9  UNL     1       2.486  10.107  -3.264  1.00  0.00     0.077 C
BRANCH   9  10
HETATM   10  C10 UNL     1       2.385   9.438  -4.580  1.00  0.00     0.113 A
HETATM   11  N1  UNL     1       2.895   9.950  -5.713  1.00  0.00    -0.180 N
HETATM   12  C11 UNL     1       2.795   9.334  -6.891  1.00  0.00     0.691 A
ATOM     13  H1  UNL     1       3.380  10.846  -5.669  1.00  0.00     0.185 HD
HETATM   14  N3  UNL     1       2.169   8.167  -6.971  1.00  0.00    -0.023 N
HETATM   15  C12 UNL     1       1.651   7.634  -5.859  1.00  0.00     0.691 A
ATOM     16  H3  UNL     1       2.085   7.684  -7.866  1.00  0.00     0.203 HD
HETATM   17  N5  UNL     1       1.754   8.256  -4.671  1.00  0.00    -0.180 N
ATOM     18  H5  UNL     1       1.352   7.828  -3.836  1.00  0.00     0.185 HD
BRANCH  12  19
HETATM   19  N2  UNL     1       3.315   9.889  -7.954  1.00  0.00    -0.234 N
ATOM     20  H22 UNL     1       3.755   9.321  -8.677  1.00  0.00     0.174 HD
ATOM     21  H21 UNL     1       3.281  10.903  -8.059  1.00  0.00     0.174 HD
ENDBRANCH  12  19
BRANCH  15  22
HETATM   22  N4  UNL     1       1.043   6.495  -5.948  1.00  0.00    -0.234 N
ATOM     23  H42 UNL     1       1.456   5.732  -6.484  1.00  0.00     0.174 HD
ATOM     24  H41 UNL     1       0.148   6.385  -5.472  1.00  0.00     0.174 HD
ENDBRANCH  15  22
ENDBRANCH   9  10
ENDBRANCH   8   9
ENDBRANCH   7   8
ENDBRANCH   6   7
ENDBRANCH   5   6
ENDBRANCH   3   4
TORSDOF 8
ENDMDL