MODEL 3
REMARK VINA RESULT: -5.238058457      2.213      4.108
REMARK  5 active torsions:
REMARK  status: ('A' for Active; 'I' for Inactive)
REMARK    1  A    between atoms: C4_4  and  C5_5
REMARK    2  A    between atoms: C5_5  and  N1_6
REMARK    3  A    between atoms: C10_17  and  N3_18
REMARK    4  A    between atoms: N3_18  and  C11_21
REMARK    5  A    between atoms: C11_21  and  N4_22
ROOT
HETATM    1  C1  UNL     1      11.503  10.288   0.182  1.00  0.00     0.012 C
HETATM    2  C2  UNL     1      10.518  10.382   1.307  1.00  0.00     0.019 C
HETATM    3  C3  UNL     1       9.450   9.324   1.047  1.00  0.00     0.041 C
HETATM    4  C4  UNL     1       8.593  10.033   0.040  1.00  0.00     0.212 C
HETATM    5  N2  UNL     1       8.655  11.441   0.329  1.00  0.00    -0.060 N
ATOM      6  H21 UNL     1       7.759  11.822   0.628  1.00  0.00     0.278 HD
ATOM      7  H22 UNL     1       8.773  12.010  -0.509  1.00  0.00     0.278 HD
HETATM    8  C6  UNL     1       9.703  11.651   1.298  1.00  0.00     0.131 C
HETATM    9  C7  UNL     1      10.526  12.878   1.003  1.00  0.00     0.039 C
HETATM   10  C8  UNL     1      11.076  13.383   2.315  1.00  0.00     0.004 C
HETATM   11  C9  UNL     1       9.951  14.095   3.022  1.00  0.00     0.033 C
HETATM   12  C10 UNL     1       8.751  13.185   3.056  1.00  0.00     0.190 C
HETATM   13  C12 UNL     1       9.092  11.778   2.666  1.00  0.00     0.072 C
ENDROOT
BRANCH   4  14
HETATM   14  C5  UNL     1       7.208   9.492  -0.092  1.00  0.00     0.262 C
BRANCH  14  15
HETATM   15  N1  UNL     1       6.888   8.421   0.806  1.00  0.00    -0.077 N
ATOM     16  H13 UNL     1       7.731   8.091   1.277  1.00  0.00     0.274 HD
ATOM     17  H12 UNL     1       6.366   8.777   1.607  1.00  0.00     0.274 HD
ATOM     18  H11 UNL     1       6.393   7.637   0.382  1.00  0.00     0.274 HD
ENDBRANCH  14  15
ENDBRANCH   4  14
BRANCH  12  19
HETATM   19  N3  UNL     1       7.609  13.719   2.359  1.00  0.00    -0.047 N
ATOM     20  H32 UNL     1       7.307  13.104   1.604  1.00  0.00     0.279 HD
ATOM     21  H31 UNL     1       6.767  13.685   2.934  1.00  0.00     0.279 HD
BRANCH  19  22
HETATM   22  C11 UNL     1       7.875  15.068   1.877  1.00  0.00     0.460 C
BRANCH  22  23
HETATM   23  N4  UNL     1       6.591  15.763   1.847  1.00  0.00    -0.055 N
ATOM     24  H43 UNL     1       5.791  15.131   1.829  1.00  0.00     0.276 HD
ATOM     25  H42 UNL     1       6.366  16.231   2.725  1.00  0.00     0.276 HD
ATOM     26  H41 UNL     1       6.620  16.398   1.049  1.00  0.00     0.276 HD
ENDBRANCH  22  23
ENDBRANCH  19  22
ENDBRANCH  12  19
TORSDOF 5
ENDMDL