MODEL 2
REMARK VINA RESULT: -7.122465614      1.652      2.432
REMARK  4 active torsions:
REMARK  status: ('A' for Active; 'I' for Inactive)
REMARK    1  A    between atoms: C1_1  and  C2_2
REMARK    2  A    between atoms: C2_2  and  C3_3
REMARK    3  A    between atoms: C3_3  and  C4_4
REMARK    4  A    between atoms: N2_12  and  N3_14
ROOT
HETATM    1  C1  UNL     1       3.930   8.713  -1.888  1.00  0.00     0.080 C
HETATM    2  N2  UNL     1       5.060   8.687  -1.248  1.00  0.00    -0.313 N
ATOM      3  H2  UNL     1       5.248   7.967  -0.551  1.00  0.00     0.185 HD
ENDROOT
BRANCH   1   4
HETATM    4  C2  UNL     1       3.675   9.749  -2.883  1.00  0.00     0.048 C
BRANCH   4   5
HETATM    5  C3  UNL     1       2.275   9.922  -3.355  1.00  0.00     0.038 C
BRANCH   5   6
HETATM    6  C4  UNL     1       2.083   9.512  -4.755  1.00  0.00     0.186 C
HETATM    7  C5  UNL     1       3.096  10.033  -5.707  1.00  0.00     0.033 C
HETATM    8  C6  UNL     1       3.244   9.036  -6.885  1.00  0.00     0.004 C
HETATM    9  C7  UNL     1       1.856   8.598  -7.288  1.00  0.00     0.027 C
HETATM   10  C8  UNL     1       1.140   7.895  -6.153  1.00  0.00     0.232 C
HETATM   11  N1  UNL     1       1.884   8.064  -4.899  1.00  0.00    -0.071 N
ATOM     12  H12 UNL     1       2.749   7.525  -4.859  1.00  0.00     0.277 HD
ATOM     13  H11 UNL     1       1.434   7.630  -4.093  1.00  0.00     0.277 HD
ENDBRANCH   5   6
ENDBRANCH   4   5
ENDBRANCH   1   4
BRANCH   2  14
HETATM   14  N3  UNL     1       6.011   9.664  -1.533  1.00  0.00    -0.272 N
HETATM   15  C9  UNL     1       6.911   9.970  -0.667  1.00  0.00     0.190 C
HETATM   16  N4  UNL     1       7.079   9.412   0.630  1.00  0.00    -0.360 N
HETATM   17  N5  UNL     1       7.938  10.940  -0.818  1.00  0.00    -0.360 N
HETATM   18  C10 UNL     1       8.300   9.928   1.228  1.00  0.00     0.142 C
ATOM     19  H4  UNL     1       6.442   8.750   1.073  1.00  0.00     0.162 HD
HETATM   20  C11 UNL     1       8.985  10.713   0.160  1.00  0.00     0.142 C
ATOM     21  H5  UNL     1       7.939  11.686  -1.513  1.00  0.00     0.162 HD
ATOM     22  H3  UNL     1       5.994  10.141  -2.435  1.00  0.00     0.190 HD
ENDBRANCH   2  14
TORSDOF 4
ENDMDL