MODEL 4
REMARK VINA RESULT: -6.077761267      2.846      4.944
REMARK  11 active torsions:
REMARK  status: ('A' for Active; 'I' for Inactive)
REMARK    1  A    between atoms: C2_2  and  C3_3
REMARK    2  A    between atoms: C3_3  and  O1_4
REMARK    3  A    between atoms: O1_4  and  N1_5
REMARK    4  A    between atoms: N1_5  and  C4_7
REMARK    5  A    between atoms: C6_11  and  C7_12
REMARK    6  A    between atoms: C7_12  and  C8_13
REMARK    7  A    between atoms: C9_16  and  C10_17
REMARK       I    between atoms: C10_17  and  N4_19
REMARK    8  A    between atoms: N4_19  and  C11_21
REMARK    9  A    between atoms: C11_21  and  C12_22
REMARK   10  A    between atoms: C12_22  and  O3_23
REMARK   11  A    between atoms: C15_32  and  N8_33
ROOT
HETATM    1  C4  UNL     1      -6.109  72.254  26.481  1.00  0.00     0.718 A
HETATM    2  N2  UNL     1      -7.080  71.434  26.896  1.00  0.00    -0.171 N
ATOM      3  H2  UNL     1      -7.329  70.615  26.341  1.00  0.00     0.186 HD
HETATM    4  C5  UNL     1      -7.741  71.699  28.068  1.00  0.00     0.172 A
HETATM    5  C6  UNL     1      -8.762  71.024  28.705  1.00  0.00     0.032 A
HETATM    6  C14 UNL     1      -9.041  71.748  29.861  1.00  0.00     0.123 A
HETATM    7  N6  UNL     1      -8.206  72.782  29.864  1.00  0.00    -0.288 N
ATOM      8  H6  UNL     1      -8.174  73.494  30.594  1.00  0.00     0.187 HD
HETATM    9  N7  UNL     1      -7.426  72.769  28.805  1.00  0.00    -0.069 N
HETATM   10  C15 UNL     1      -6.435  73.620  28.399  1.00  0.00     0.713 A
HETATM   11  N9  UNL     1      -5.805  73.344  27.255  1.00  0.00    -0.019 N
ATOM     12  H9  UNL     1      -5.064  73.972  26.942  1.00  0.00     0.203 HD
ENDROOT
BRANCH   5  13
HETATM   13  C7  UNL     1      -9.363  69.911  28.316  1.00  0.00     0.065 C
BRANCH  13  14
HETATM   14  C8  UNL     1     -10.397  69.876  27.303  1.00  0.00     0.106 A
HETATM   15  N3  UNL     1     -10.229  69.475  26.006  1.00  0.00    -0.337 N
HETATM   16  C9  UNL     1     -11.396  69.547  25.348  1.00  0.00     0.117 A
ATOM     17  H3  UNL     1      -9.346  69.166  25.599  1.00  0.00     0.167 HD
HETATM   18  C13 UNL     1     -12.309  70.012  26.279  1.00  0.00     0.125 A
HETATM   19  N5  UNL     1     -11.703  70.207  27.455  1.00  0.00    -0.350 N
ATOM     20  H5  UNL     1     -12.144  70.545  28.311  1.00  0.00     0.166 HD
BRANCH  16  21
HETATM   21  C10 UNL     1     -11.651  69.209  23.945  1.00  0.00     0.269 C
HETATM   22  O2  UNL     1     -12.692  69.594  23.375  1.00  0.00    -0.266 OA
HETATM   23  N4  UNL     1     -10.719  68.436  23.199  1.00  0.00    -0.354 N
ATOM     24  H4  UNL     1      -9.867  68.120  23.662  1.00  0.00     0.162 HD
BRANCH  23  25
HETATM   25  C11 UNL     1     -10.921  68.082  21.832  1.00  0.00     0.149 C
BRANCH  25  26
HETATM   26  C12 UNL     1     -10.108  68.859  20.842  1.00  0.00     0.183 C
BRANCH  26  27
HETATM   27  O3  UNL     1      -8.737  68.783  21.098  1.00  0.00    -0.399 OA
ATOM     28  H3  UNL     1      -8.291  68.178  20.516  1.00  0.00     0.209 HD
ENDBRANCH  26  27
ENDBRANCH  25  26
ENDBRANCH  23  25
ENDBRANCH  16  21
ENDBRANCH  13  14
ENDBRANCH   5  13
BRANCH   1  29
HETATM   29  N1  UNL     1      -5.424  72.116  25.402  1.00  0.00    -0.095 N
ATOM     30  H1  UNL     1      -4.436  71.899  25.534  1.00  0.00     0.213 HD
BRANCH  29  31
HETATM   31  O1  UNL     1      -5.826  72.215  24.135  1.00  0.00    -0.263 OA
BRANCH  31  32
HETATM   32  C3  UNL     1      -5.689  73.357  23.312  1.00  0.00     0.228 C
BRANCH  32  33
HETATM   33  C2  UNL     1      -6.893  74.226  23.375  1.00  0.00    -0.009 C
HETATM   34  C1  UNL     1      -6.985  75.251  24.209  1.00  0.00     0.009 C
ENDBRANCH  32  33
ENDBRANCH  31  32
ENDBRANCH  29  31
ENDBRANCH   1  29
BRANCH  10  35
HETATM   35  N8  UNL     1      -6.169  74.634  29.144  1.00  0.00    -0.232 N
ATOM     36  H82 UNL     1      -6.861  75.321  29.443  1.00  0.00     0.174 HD
ATOM     37  H81 UNL     1      -5.206  74.760  29.453  1.00  0.00     0.174 HD
ENDBRANCH  10  35
TORSDOF 11
ENDMDL