MODEL 2
REMARK VINA RESULT: -6.884521020      2.804      8.006
REMARK  7 active torsions:
REMARK  status: ('A' for Active; 'I' for Inactive)
REMARK    1  A    between atoms: N1_1  and  C1_4
REMARK       I    between atoms: N4_13  and  C5_14
REMARK    2  A    between atoms: N6_16  and  C6_18
REMARK    3  A    between atoms: C6_18  and  C7_19
REMARK    4  A    between atoms: C7_19  and  C8_20
REMARK    5  A    between atoms: C8_20  and  N7_21
REMARK       I    between atoms: N7_21  and  C9_23
REMARK    6  A    between atoms: C9_23  and  C10_25
REMARK    7  A    between atoms: C10_25  and  N8_26
ROOT
HETATM    1  C1  UNL     1     -10.415  69.306  26.930  1.00  0.00     0.680 A
HETATM    2  N2  UNL     1      -9.543  68.579  27.656  1.00  0.00    -0.154 N
ATOM      3  H2  UNL     1      -9.703  67.581  27.795  1.00  0.00     0.187 HD
HETATM    4  C2  UNL     1      -8.460  69.167  28.200  1.00  0.00     0.290 A
HETATM    5  O1  UNL     1      -7.636  68.517  28.878  1.00  0.00    -0.265 OA
HETATM    6  C3  UNL     1      -8.287  70.519  27.982  1.00  0.00     0.148 A
HETATM    7  N3  UNL     1      -7.331  71.374  28.381  1.00  0.00    -0.344 N
ATOM      8  H3  UNL     1      -6.520  71.138  28.952  1.00  0.00     0.167 HD
HETATM    9  C4  UNL     1      -7.621  72.576  27.906  1.00  0.00     0.193 A
HETATM   10  N4  UNL     1      -8.776  72.552  27.181  1.00  0.00    -0.265 N
HETATM   11  C5  UNL     1      -9.400  73.646  26.523  1.00  0.00     0.197 C
HETATM   12  N5  UNL     1     -10.084  74.594  27.330  1.00  0.00    -0.063 NA
HETATM   13  N6  UNL     1      -9.393  73.843  25.252  1.00  0.00    -0.364 N
ATOM     14  H6  UNL     1      -9.874  74.663  24.882  1.00  0.00     0.162 HD
HETATM   15  C13 UNL     1      -9.184  71.266  27.234  1.00  0.00     0.163 A
HETATM   16  N11 UNL     1     -10.234  70.623  26.726  1.00  0.00    -0.174 N
ATOM     17  H11 UNL     1     -10.916  71.140  26.170  1.00  0.00     0.186 HD
ENDROOT
BRANCH  13  18
HETATM   18  C6  UNL     1      -8.729  72.949  24.320  1.00  0.00     0.124 C
BRANCH  18  19
HETATM   19  C7  UNL     1      -9.723  72.274  23.399  1.00  0.00     0.039 C
BRANCH  19  20
HETATM   20  C8  UNL     1      -9.097  71.114  22.668  1.00  0.00     0.124 C
BRANCH  20  21
HETATM   21  N7  UNL     1     -10.051  70.049  22.504  1.00  0.00    -0.360 N
HETATM   22  C9  UNL     1      -9.875  68.897  21.718  1.00  0.00     0.237 C
HETATM   23  O2  UNL     1      -8.804  68.719  21.070  1.00  0.00    -0.272 OA
ATOM     24  H7  UNL     1     -10.935  70.139  23.003  1.00  0.00     0.162 HD
BRANCH  22  25
HETATM   25  C10 UNL     1     -10.936  67.839  21.615  1.00  0.00     0.252 C
BRANCH  25  26
HETATM   26  N8  UNL     1     -11.536  67.879  20.304  1.00  0.00    -0.278 N
HETATM   27  C11 UNL     1     -12.583  67.155  19.894  1.00  0.00     0.201 A
HETATM   28  N9  UNL     1     -12.840  67.481  18.603  1.00  0.00    -0.346 N
HETATM   29  C12 UNL     1     -11.946  68.406  18.224  1.00  0.00     0.198 A
ATOM     30  H9  UNL     1     -13.583  67.091  18.022  1.00  0.00     0.167 HD
HETATM   31  N10 UNL     1     -11.164  68.622  19.297  1.00  0.00    -0.293 N
ATOM     32  H10 UNL     1     -10.384  69.279  19.320  1.00  0.00     0.188 HD
ENDBRANCH  25  26
ENDBRANCH  22  25
ENDBRANCH  20  21
ENDBRANCH  19  20
ENDBRANCH  18  19
ENDBRANCH  13  18
BRANCH   1  33
HETATM   33  N1  UNL     1     -11.435  68.716  26.427  1.00  0.00    -0.234 N
ATOM     34  H12 UNL     1     -11.489  67.697  26.436  1.00  0.00     0.174 HD
ATOM     35  H11 UNL     1     -12.179  69.286  26.024  1.00  0.00     0.174 HD
ENDBRANCH   1  33
TORSDOF 7
ENDMDL