MODEL 1
REMARK VINA RESULT: -6.279293538      0.000      0.000
REMARK  8 active torsions:
REMARK  status: ('A' for Active; 'I' for Inactive)
REMARK    1  A    between atoms: C2_3  and  N2_4
REMARK       I    between atoms: N2_4  and  C3_6
REMARK       I    between atoms: C3_6  and  N3_8
REMARK    2  A    between atoms: N3_8  and  N4_10
REMARK    3  A    between atoms: N4_10  and  C4_12
REMARK    4  A    between atoms: C4_12  and  C5_14
REMARK    5  A    between atoms: C5_14  and  C6_15
REMARK    6  A    between atoms: C6_15  and  S1_16
REMARK    7  A    between atoms: S1_16  and  C7_17
REMARK    8  A    between atoms: C7_17  and  N6_18
ROOT
HETATM    1  N1  UNL     1     -11.406  75.647  21.282  1.00  0.00    -0.196 NA
HETATM    2  C1  UNL     1     -11.833  74.881  20.525  1.00  0.00     0.078 C
HETATM    3  C2  UNL     1     -12.373  73.937  19.570  1.00  0.00     0.248 C
ENDROOT
BRANCH   3   4
HETATM    4  N2  UNL     1     -11.392  72.878  19.390  1.00  0.00    -0.329 N
HETATM    5  C3  UNL     1     -11.673  71.585  19.883  1.00  0.00     0.335 C
HETATM    6  O1  UNL     1     -12.766  71.384  20.467  1.00  0.00    -0.246 OA
HETATM    7  N3  UNL     1     -10.727  70.548  19.714  1.00  0.00    -0.251 N
ATOM      8  H3  UNL     1      -9.844  70.735  19.239  1.00  0.00     0.191 HD
ATOM      9  H2  UNL     1     -10.510  73.067  18.912  1.00  0.00     0.165 HD
BRANCH   7  10
HETATM   10  N4  UNL     1     -11.002  69.270  20.197  1.00  0.00    -0.287 N
ATOM     11  H4  UNL     1     -11.754  68.729  19.770  1.00  0.00     0.188 HD
BRANCH  10  12
HETATM   12  C4  UNL     1     -10.333  68.755  21.167  1.00  0.00     0.108 C
HETATM   13  N5  UNL     1      -8.918  68.823  21.035  1.00  0.00    -0.086 NA
BRANCH  12  14
HETATM   14  C5  UNL     1     -11.045  68.163  22.285  1.00  0.00     0.084 C
BRANCH  14  15
HETATM   15  C6  UNL     1     -12.291  68.874  22.703  1.00  0.00     0.082 C
BRANCH  15  16
HETATM   16  S1  UNL     1     -12.000  70.317  23.731  1.00  0.00    -0.148 SA
BRANCH  16  17
HETATM   17  C7  UNL     1     -10.256  70.761  23.821  1.00  0.00     0.205 C
BRANCH  17  18
HETATM   18  N6  UNL     1     -10.015  72.179  23.805  1.00  0.00    -0.318 N
HETATM   19  C8  UNL     1     -10.875  73.189  23.998  1.00  0.00     0.186 A
HETATM   20  N7  UNL     1     -10.185  74.337  23.885  1.00  0.00    -0.345 N
HETATM   21  C9  UNL     1      -8.896  74.077  23.621  1.00  0.00     0.147 A
ATOM     22  H7  UNL     1     -10.584  75.270  23.985  1.00  0.00     0.167 HD
HETATM   23  C10 UNL     1      -7.759  74.824  23.410  1.00  0.00     0.280 A
HETATM   24  C12 UNL     1      -8.801  72.714  23.573  1.00  0.00     0.146 A
HETATM   25  O2  UNL     1      -7.845  76.068  23.454  1.00  0.00    -0.265 OA
HETATM   26  N8  UNL     1      -6.556  74.257  23.158  1.00  0.00    -0.273 N
HETATM   27  C11 UNL     1      -6.483  72.916  23.114  1.00  0.00     0.328 A
ATOM     28  H8  UNL     1      -5.727  74.832  23.005  1.00  0.00     0.173 HD
HETATM   29  O3  UNL     1      -5.351  72.384  22.877  1.00  0.00    -0.247 OA
HETATM   30  N9  UNL     1      -7.579  72.168  23.317  1.00  0.00    -0.292 N
ATOM     31  H9  UNL     1      -7.494  71.152  23.277  1.00  0.00     0.172 HD
ENDBRANCH  17  18
ENDBRANCH  16  17
ENDBRANCH  15  16
ENDBRANCH  14  15
ENDBRANCH  12  14
ENDBRANCH  10  12
ENDBRANCH   7  10
ENDBRANCH   3   4
TORSDOF 8
ENDMDL