MODEL 2
REMARK VINA RESULT: -5.490019486      3.762      7.895
REMARK  10 active torsions:
REMARK  status: ('A' for Active; 'I' for Inactive)
REMARK    1  A    between atoms: N1_2  and  C2_3
REMARK    2  A    between atoms: N1_2  and  C4_7
REMARK    3  A    between atoms: C2_3  and  C3_4
REMARK    4  A    between atoms: C3_4  and  O1_5
REMARK    5  A    between atoms: C4_7  and  C5_8
REMARK    6  A    between atoms: C5_8  and  C6_9
REMARK    7  A    between atoms: C6_9  and  N2_10
REMARK    8  A    between atoms: C8_15  and  N4_16
REMARK    9  A    between atoms: C11_24  and  N6_25
REMARK   10  A    between atoms: C13_27  and  N7_28
ROOT
HETATM    1  N2  UNL     1      -6.564  73.361  25.184  1.00  0.00    -0.297 N
HETATM    2  C7  UNL     1      -5.900  74.506  24.958  1.00  0.00     0.328 A
HETATM    3  O2  UNL     1      -5.602  74.821  23.774  1.00  0.00    -0.246 OA
HETATM    4  N3  UNL     1      -5.522  75.353  25.921  1.00  0.00    -0.293 N
ATOM      5  H3  UNL     1      -5.020  76.208  25.684  1.00  0.00     0.172 HD
HETATM    6  C8  UNL     1      -5.814  75.067  27.223  1.00  0.00     0.132 A
HETATM    7  C9  UNL     1      -6.493  73.906  27.503  1.00  0.00     0.106 A
HETATM    8  N5  UNL     1      -6.826  73.527  28.740  1.00  0.00    -0.317 N
ATOM      9  H5  UNL     1      -6.567  74.131  29.520  1.00  0.00     0.169 HD
HETATM   10  C10 UNL     1      -7.486  72.385  29.004  1.00  0.00     0.272 A
HETATM   11  O3  UNL     1      -7.783  72.059  30.199  1.00  0.00    -0.266 OA
HETATM   12  C11 UNL     1      -7.878  71.507  28.011  1.00  0.00     0.101 A
HETATM   13  C15 UNL     1      -7.546  71.877  26.717  1.00  0.00     0.067 A
HETATM   14  C16 UNL     1      -6.870  73.048  26.469  1.00  0.00     0.071 A
ENDROOT
BRANCH   1  15
HETATM   15  C6  UNL     1      -6.917  72.530  24.118  1.00  0.00     0.135 C
BRANCH  15  16
HETATM   16  C5  UNL     1      -8.288  72.952  23.511  1.00  0.00     0.050 C
BRANCH  16  17
HETATM   17  C4  UNL     1      -9.247  71.877  23.703  1.00  0.00     0.273 C
BRANCH  17  18
HETATM   18  N1  UNL     1      -9.861  71.193  22.609  1.00  0.00     0.086 N
HETATM   19  C1  UNL     1     -11.268  71.727  22.684  1.00  0.00     0.310 C
BRANCH  18  20
HETATM   20  C2  UNL     1     -10.023  69.773  22.765  1.00  0.00     0.297 C
BRANCH  20  21
HETATM   21  C3  UNL     1      -9.931  69.127  21.403  1.00  0.00     0.194 C
BRANCH  21  22
HETATM   22  O1  UNL     1      -8.531  68.863  21.249  1.00  0.00    -0.399 OA
ATOM     23  H1  UNL     1      -8.308  69.309  20.440  1.00  0.00     0.209 HD
ENDBRANCH  21  22
ENDBRANCH  20  21
ENDBRANCH  18  20
ENDBRANCH  17  18
ENDBRANCH  16  17
ENDBRANCH  15  16
ENDBRANCH   1  15
BRANCH   6  24
HETATM   24  N4  UNL     1      -5.450  75.880  28.118  1.00  0.00    -0.383 N
ATOM     25  H42 UNL     1      -6.035  76.123  28.917  1.00  0.00     0.157 HD
ATOM     26  H41 UNL     1      -4.530  76.314  28.038  1.00  0.00     0.157 HD
ENDBRANCH   6  24
BRANCH  12  27
HETATM   27  N6  UNL     1      -8.570  70.306  28.318  1.00  0.00    -0.372 N
HETATM   28  C12 UNL     1     -10.000  69.956  28.433  1.00  0.00     0.157 C
HETATM   29  C13 UNL     1      -9.588  68.593  27.873  1.00  0.00     0.219 C
HETATM   30  C14 UNL     1      -8.302  68.927  28.647  1.00  0.00     0.157 C
BRANCH  29  31
HETATM   31  N7  UNL     1     -10.291  67.473  28.445  1.00  0.00    -0.072 N
ATOM     32  H73 UNL     1     -10.380  67.588  29.455  1.00  0.00     0.274 HD
ATOM     33  H72 UNL     1     -11.275  67.499  28.178  1.00  0.00     0.274 HD
ATOM     34  H71 UNL     1      -9.888  66.562  28.226  1.00  0.00     0.274 HD
ENDBRANCH  29  31
ENDBRANCH  12  27
TORSDOF 10
ENDMDL