MODEL 1
REMARK VINA RESULT: -5.308465604      0.000      0.000
REMARK  13 active torsions:
REMARK  status: ('A' for Active; 'I' for Inactive)
REMARK    1  A    between atoms: N1_1  and  N2_4
REMARK    2  A    between atoms: N2_4  and  C1_5
REMARK    3  A    between atoms: C1_5  and  C2_6
REMARK    4  A    between atoms: C2_6  and  N3_7
REMARK    5  A    between atoms: N3_7  and  C3_10
REMARK    6  A    between atoms: C3_10  and  C4_11
REMARK    7  A    between atoms: C5_13  and  N4_14
REMARK    8  A    between atoms: C8_19  and  N6_20
REMARK    9  A    between atoms: N6_20  and  C9_22
REMARK   10  A    between atoms: C9_22  and  C10_23
REMARK   11  A    between atoms: C10_23  and  N7_24
REMARK   12  A    between atoms: C13_34  and  O2_35
REMARK   13  A    between atoms: C14_37  and  O3_38
ROOT
HETATM    1  N4  UNL     1     -11.043  69.272  21.389  1.00  0.00    -0.297 N
HETATM    2  C6  UNL     1      -9.716  68.951  21.345  1.00  0.00     0.188 A
HETATM    3  N5  UNL     1      -8.987  69.909  21.959  1.00  0.00    -0.346 N
ATOM      4  H5  UNL     1      -7.972  69.916  22.065  1.00  0.00     0.167 HD
HETATM    5  C7  UNL     1      -9.824  70.839  22.398  1.00  0.00     0.122 A
HETATM    6  C8  UNL     1      -9.576  72.032  23.101  1.00  0.00     0.137 A
HETATM    7  N8  UNL     1     -10.667  72.751  23.401  1.00  0.00    -0.337 N
ATOM      8  H8  UNL     1     -10.555  73.628  23.909  1.00  0.00     0.168 HD
HETATM    9  C11 UNL     1     -11.928  72.346  23.046  1.00  0.00     0.183 A
HETATM   10  N9  UNL     1     -12.124  71.202  22.376  1.00  0.00    -0.336 N
ATOM     11  H9  UNL     1     -13.069  70.918  22.121  1.00  0.00     0.168 HD
HETATM   12  C12 UNL     1     -11.083  70.432  22.041  1.00  0.00     0.142 A
ENDROOT
BRANCH   1  13
HETATM   13  C5  UNL     1     -12.054  68.475  20.819  1.00  0.00     0.262 C
HETATM   14  O1  UNL     1     -13.351  68.761  21.125  1.00  0.00    -0.354 OA
HETATM   15  C4  UNL     1     -14.163  68.076  20.215  1.00  0.00     0.181 C
HETATM   16  C14 UNL     1     -13.276  67.547  19.115  1.00  0.00     0.181 C
HETATM   17  C13 UNL     1     -12.075  68.497  19.295  1.00  0.00     0.198 C
BRANCH  15  18
HETATM   18  C3  UNL     1     -15.088  69.138  19.589  1.00  0.00     0.267 C
BRANCH  18  19
HETATM   19  N3  UNL     1     -14.939  70.296  20.468  1.00  0.00    -0.067 N
ATOM     20  H32 UNL     1     -14.133  70.197  21.086  1.00  0.00     0.277 HD
ATOM     21  H31 UNL     1     -15.674  70.328  21.174  1.00  0.00     0.277 HD
BRANCH  19  22
HETATM   22  C2  UNL     1     -14.878  71.540  19.696  1.00  0.00     0.293 C
BRANCH  22  23
HETATM   23  C1  UNL     1     -13.632  71.508  18.910  1.00  0.00     0.208 C
BRANCH  23  24
HETATM   24  N2  UNL     1     -12.627  72.171  19.287  1.00  0.00    -0.348 NA
BRANCH  24  25
HETATM   25  N1  UNL     1     -11.579  72.807  19.344  1.00  0.00    -0.281 N
ATOM     26  H12 UNL     1     -11.280  72.344  20.202  1.00  0.00     0.191 HD
ATOM     27  H11 UNL     1     -10.801  73.444  19.171  1.00  0.00     0.191 HD
ENDBRANCH  24  25
ENDBRANCH  23  24
ENDBRANCH  22  23
ENDBRANCH  19  22
ENDBRANCH  18  19
ENDBRANCH  15  18
BRANCH  16  28
HETATM   28  O3  UNL     1     -12.828  66.291  19.485  1.00  0.00    -0.390 OA
ATOM     29  H3  UNL     1     -12.394  65.898  18.738  1.00  0.00     0.210 HD
ENDBRANCH  16  28
BRANCH  17  30
HETATM   30  O2  UNL     1     -10.921  67.963  18.783  1.00  0.00    -0.388 OA
ATOM     31  H2  UNL     1     -10.687  67.163  19.237  1.00  0.00     0.210 HD
ENDBRANCH  17  30
ENDBRANCH   1  13
BRANCH   6  32
HETATM   32  N6  UNL     1      -8.424  72.323  23.358  1.00  0.00    -0.352 N
ATOM     33  H6  UNL     1      -7.847  71.541  23.048  1.00  0.00     0.166 HD
BRANCH  32  34
HETATM   34  C9  UNL     1      -7.569  73.259  23.891  1.00  0.00     0.089 C
BRANCH  34  35
HETATM   35  C10 UNL     1      -6.241  73.520  23.262  1.00  0.00     0.274 C
BRANCH  35  36
HETATM   36  N7  UNL     1      -5.833  72.214  22.669  1.00  0.00    -0.075 N
ATOM     37  H73 UNL     1      -6.608  71.569  22.519  1.00  0.00     0.274 HD
ATOM     38  H72 UNL     1      -5.542  72.276  21.694  1.00  0.00     0.274 HD
ATOM     39  H71 UNL     1      -5.112  71.855  23.294  1.00  0.00     0.274 HD
ENDBRANCH  35  36
ENDBRANCH  34  35
ENDBRANCH  32  34
ENDBRANCH   6  32
TORSDOF 13
ENDMDL