MODEL 1
REMARK VINA RESULT: -6.767926908      0.000      0.000
REMARK  7 active torsions:
REMARK  status: ('A' for Active; 'I' for Inactive)
REMARK    1  A    between atoms: C2_2  and  C3_3
REMARK    2  A    between atoms: C3_3  and  N1_4
REMARK    3  A    between atoms: N1_4  and  C4_6
REMARK    4  A    between atoms: N4_13  and  C7_14
REMARK    5  A    between atoms: C8_15  and  N5_16
REMARK    6  A    between atoms: N5_16  and  C9_18
REMARK    7  A    between atoms: C9_18  and  C10_19
ROOT
HETATM    1  C4  UNL     1     -11.234  75.824  21.333  1.00  0.00     0.685 A
HETATM    2  N2  UNL     1     -12.025  75.524  20.294  1.00  0.00    -0.172 N
ATOM      3  H2  UNL     1     -12.337  76.208  19.605  1.00  0.00     0.186 HD
HETATM    4  C5  UNL     1     -12.365  74.216  20.257  1.00  0.00     0.172 A
HETATM    5  C6  UNL     1     -11.741  73.648  21.356  1.00  0.00     0.176 A
HETATM    6  N3  UNL     1     -11.065  74.630  21.996  1.00  0.00    -0.172 N
ATOM      7  H3  UNL     1     -10.513  74.503  22.844  1.00  0.00     0.186 HD
HETATM    8  N4  UNL     1     -12.016  72.354  21.330  1.00  0.00    -0.255 N
HETATM    9  C13 UNL     1     -12.824  72.113  20.206  1.00  0.00     0.335 A
HETATM   10  O3  UNL     1     -13.292  71.010  19.845  1.00  0.00    -0.246 OA
HETATM   11  N9  UNL     1     -13.022  73.271  19.564  1.00  0.00    -0.286 N
HETATM   12  C14 UNL     1     -13.799  73.440  18.371  1.00  0.00     0.163 C
ENDROOT
BRANCH   8  13
HETATM   13  C7  UNL     1     -11.616  71.283  22.163  1.00  0.00     0.120 C
HETATM   14  C8  UNL     1     -10.340  70.658  22.153  1.00  0.00     0.105 C
BRANCH  14  15
HETATM   15  N5  UNL     1      -9.713  69.827  21.172  1.00  0.00    -0.371 N
ATOM     16  H5  UNL     1      -8.962  70.112  20.544  1.00  0.00     0.164 HD
BRANCH  15  17
HETATM   17  C9  UNL     1     -10.320  68.516  21.218  1.00  0.00     0.136 C
BRANCH  17  18
HETATM   18  C10 UNL     1     -11.483  68.189  20.419  1.00  0.00     0.128 A
HETATM   19  N6  UNL     1     -11.173  67.915  19.091  1.00  0.00    -0.293 N
HETATM   20  C11 UNL     1     -12.090  67.535  18.212  1.00  0.00     0.329 A
ATOM     21  H6  UNL     1     -10.206  68.010  18.783  1.00  0.00     0.172 HD
HETATM   22  O1  UNL     1     -11.750  67.290  17.006  1.00  0.00    -0.246 OA
HETATM   23  N7  UNL     1     -13.369  67.399  18.574  1.00  0.00    -0.260 N
HETATM   24  C12 UNL     1     -13.670  67.670  19.871  1.00  0.00     0.329 A
ATOM     25  H7  UNL     1     -14.085  67.106  17.909  1.00  0.00     0.175 HD
HETATM   26  O2  UNL     1     -14.863  67.550  20.225  1.00  0.00    -0.246 OA
HETATM   27  N8  UNL     1     -12.758  68.058  20.783  1.00  0.00    -0.293 N
ATOM     28  H8  UNL     1     -13.041  68.250  21.743  1.00  0.00     0.172 HD
ENDBRANCH  17  18
ENDBRANCH  15  17
ENDBRANCH  14  15
ENDBRANCH   8  13
BRANCH   1  29
HETATM   29  N1  UNL     1     -10.672  76.915  21.608  1.00  0.00    -0.205 N
ATOM     30  H1  UNL     1     -10.882  77.609  20.891  1.00  0.00     0.183 HD
BRANCH  29  31
HETATM   31  C3  UNL     1      -9.864  77.460  22.570  1.00  0.00     0.078 C
BRANCH  31  32
HETATM   32  C2  UNL     1      -8.422  77.124  22.686  1.00  0.00     0.040 C
HETATM   33  C1  UNL     1      -8.097  75.898  23.468  1.00  0.00     0.010 C
ENDBRANCH  31  32
ENDBRANCH  29  31
ENDBRANCH   1  29
TORSDOF 7
ENDMDL