MODEL 4
REMARK VINA RESULT: -6.439945462      2.795      4.252
REMARK  11 active torsions:
REMARK  status: ('A' for Active; 'I' for Inactive)
REMARK    1  A    between atoms: O1_2  and  C2_3
REMARK    2  A    between atoms: C2_3  and  C3_4
REMARK    3  A    between atoms: C3_4  and  N1_5
REMARK    4  A    between atoms: N1_5  and  C4_7
REMARK    5  A    between atoms: C5_10  and  N3_11
REMARK    6  A    between atoms: N3_11  and  C6_13
REMARK    7  A    between atoms: C6_13  and  C7_14
REMARK    8  A    between atoms: C7_14  and  O2_15
REMARK    9  A    between atoms: C9_20  and  C10_21
REMARK   10  A    between atoms: C10_21  and  C11_22
REMARK   11  A    between atoms: C13_29  and  O4_30
ROOT
HETATM    1  C4  UNL     1     -11.006  73.558  22.604  1.00  0.00     0.715 A
HETATM    2  N2  UNL     1      -9.711  73.427  23.015  1.00  0.00    -0.021 N
ATOM      3  H2  UNL     1      -9.201  74.254  23.323  1.00  0.00     0.203 HD
HETATM    4  C5  UNL     1      -9.088  72.230  23.025  1.00  0.00     0.694 A
HETATM    5  N4  UNL     1      -9.815  71.177  22.607  1.00  0.00    -0.173 N
ATOM      6  H4  UNL     1      -9.376  70.256  22.601  1.00  0.00     0.186 HD
HETATM    7  C8  UNL     1     -11.100  71.281  22.195  1.00  0.00     0.172 A
HETATM    8  C9  UNL     1     -12.042  70.388  21.732  1.00  0.00     0.030 A
HETATM    9  C14 UNL     1     -13.223  71.082  21.452  1.00  0.00     0.123 A
HETATM   10  N7  UNL     1     -12.951  72.361  21.755  1.00  0.00    -0.288 N
ATOM     11  H7  UNL     1     -13.612  73.134  21.663  1.00  0.00     0.187 HD
HETATM   12  N8  UNL     1     -11.702  72.483  22.193  1.00  0.00    -0.068 N
ENDROOT
BRANCH   8  13
HETATM   13  C10 UNL     1     -11.887  69.101  21.571  1.00  0.00     0.051 C
BRANCH  13  14
HETATM   14  C11 UNL     1     -12.183  68.411  20.311  1.00  0.00     0.088 A
HETATM   15  N5  UNL     1     -11.406  68.297  19.220  1.00  0.00    -0.305 N
HETATM   16  C12 UNL     1     -12.081  67.579  18.300  1.00  0.00     0.326 A
ATOM     17  H5  UNL     1     -10.470  68.687  19.108  1.00  0.00     0.171 HD
HETATM   18  O3  UNL     1     -11.709  67.244  17.138  1.00  0.00    -0.247 OA
HETATM   19  N6  UNL     1     -13.294  67.220  18.782  1.00  0.00    -0.287 N
HETATM   20  C13 UNL     1     -13.357  67.734  20.022  1.00  0.00     0.171 A
ATOM     21  H6  UNL     1     -14.010  66.674  18.304  1.00  0.00     0.172 HD
BRANCH  20  22
HETATM   22  O4  UNL     1     -14.437  67.612  20.901  1.00  0.00    -0.344 OA
ATOM     23  H4  UNL     1     -14.467  67.011  21.637  1.00  0.00     0.219 HD
ENDBRANCH  20  22
ENDBRANCH  13  14
ENDBRANCH   8  13
BRANCH   4  24
HETATM   24  N3  UNL     1      -7.864  72.113  23.416  1.00  0.00    -0.223 N
ATOM     25  H3  UNL     1      -7.429  71.193  23.339  1.00  0.00     0.177 HD
BRANCH  24  26
HETATM   26  C6  UNL     1      -7.076  73.176  23.946  1.00  0.00     0.164 C
BRANCH  26  27
HETATM   27  C7  UNL     1      -5.807  73.408  23.121  1.00  0.00     0.184 C
BRANCH  27  28
HETATM   28  O2  UNL     1      -5.581  72.257  22.380  1.00  0.00    -0.399 OA
ATOM     29  H2  UNL     1      -4.852  72.435  21.796  1.00  0.00     0.209 HD
ENDBRANCH  27  28
ENDBRANCH  26  27
ENDBRANCH  24  26
ENDBRANCH   4  24
BRANCH   1  30
HETATM   30  N1  UNL     1     -11.592  74.687  22.595  1.00  0.00    -0.222 N
ATOM     31  H1  UNL     1     -12.266  74.848  23.343  1.00  0.00     0.177 HD
BRANCH  30  32
HETATM   32  C3  UNL     1     -11.422  75.747  21.672  1.00  0.00     0.164 C
BRANCH  32  33
HETATM   33  C2  UNL     1     -11.818  75.392  20.281  1.00  0.00     0.187 C
BRANCH  33  34
HETATM   34  O1  UNL     1     -13.114  75.147  19.993  1.00  0.00    -0.394 OA
HETATM   35  C1  UNL     1     -13.354  74.486  18.829  1.00  0.00     0.201 C
ENDBRANCH  33  34
ENDBRANCH  32  33
ENDBRANCH  30  32
ENDBRANCH   1  30
TORSDOF 11
ENDMDL