MODEL 1
REMARK VINA RESULT: -6.161618158      0.000      0.000
REMARK  12 active torsions:
REMARK  status: ('A' for Active; 'I' for Inactive)
REMARK    1  A    between atoms: O1_1  and  C1_3
REMARK    2  A    between atoms: C1_3  and  C2_4
REMARK    3  A    between atoms: C2_4  and  N1_5
REMARK    4  A    between atoms: N1_5  and  C3_7
REMARK    5  A    between atoms: C4_10  and  N3_11
REMARK    6  A    between atoms: N3_11  and  C5_13
REMARK    7  A    between atoms: C5_13  and  C6_14
REMARK    8  A    between atoms: N7_25  and  C12_26
REMARK    9  A    between atoms: C12_26  and  C13_27
REMARK   10  A    between atoms: C13_27  and  O2_28
REMARK   11  A    between atoms: C13_27  and  C14_30
REMARK   12  A    between atoms: C14_30  and  O3_31
ROOT
HETATM    1  C3  UNL     1      -9.144  71.753  23.419  1.00  0.00     0.681 A
HETATM    2  N2  UNL     1      -9.751  71.705  24.616  1.00  0.00    -0.174 N
ATOM      3  H2  UNL     1      -9.473  72.364  25.343  1.00  0.00     0.186 HD
HETATM    4  C4  UNL     1     -10.733  70.792  24.879  1.00  0.00     0.152 A
HETATM    5  C11 UNL     1     -11.091  69.917  23.890  1.00  0.00     0.137 A
HETATM    6  N5  UNL     1     -11.984  68.944  23.851  1.00  0.00    -0.277 N
ATOM      7  H5  UNL     1     -12.592  68.682  24.626  1.00  0.00     0.184 HD
HETATM    8  N6  UNL     1     -11.980  68.351  22.656  1.00  0.00    -0.018 NA
HETATM    9  N7  UNL     1     -11.059  68.967  21.924  1.00  0.00    -0.255 N
HETATM   10  C15 UNL     1     -10.487  69.946  22.663  1.00  0.00     0.168 A
HETATM   11  N8  UNL     1      -9.528  70.868  22.466  1.00  0.00    -0.173 N
ATOM     12  H8  UNL     1      -9.068  70.903  21.557  1.00  0.00     0.186 HD
ENDROOT
BRANCH   4  13
HETATM   13  N3  UNL     1     -11.253  70.805  26.015  1.00  0.00    -0.349 N
ATOM     14  H3  UNL     1     -12.263  70.668  25.998  1.00  0.00     0.167 HD
BRANCH  13  15
HETATM   15  C5  UNL     1     -10.737  70.969  27.312  1.00  0.00     0.102 C
BRANCH  15  16
HETATM   16  C6  UNL     1      -9.942  69.826  27.820  1.00  0.00    -0.005 A
HETATM   17  C7  UNL     1     -10.384  68.595  27.919  1.00  0.00     0.015 A
HETATM   18  C8  UNL     1      -9.557  67.496  28.429  1.00  0.00     0.018 A
HETATM   19  C9  UNL     1      -8.316  67.801  28.794  1.00  0.00     0.087 A
HETATM   20  N4  UNL     1      -7.805  69.124  28.698  1.00  0.00    -0.374 N
HETATM   21  C10 UNL     1      -8.567  70.083  28.239  1.00  0.00     0.100 A
ATOM     22  H4  UNL     1      -6.847  69.325  28.986  1.00  0.00     0.164 HD
ENDBRANCH  15  16
ENDBRANCH  13  15
ENDBRANCH   4  13
BRANCH   1  23
HETATM   23  N1  UNL     1      -8.219  72.584  23.113  1.00  0.00    -0.224 N
ATOM     24  H1  UNL     1      -8.181  72.902  22.145  1.00  0.00     0.177 HD
BRANCH  23  25
HETATM   25  C2  UNL     1      -7.236  73.104  24.012  1.00  0.00     0.164 C
BRANCH  25  26
HETATM   26  C1  UNL     1      -5.975  73.370  23.176  1.00  0.00     0.184 C
BRANCH  26  27
HETATM   27  O1  UNL     1      -5.682  72.202  22.489  1.00  0.00    -0.399 OA
ATOM     28  H1  UNL     1      -5.378  72.452  21.625  1.00  0.00     0.209 HD
ENDBRANCH  26  27
ENDBRANCH  25  26
ENDBRANCH  23  25
ENDBRANCH   1  23
BRANCH   9  29
HETATM   29  C12 UNL     1     -10.728  68.643  20.548  1.00  0.00     0.182 C
BRANCH  29  30
HETATM   30  C13 UNL     1     -11.987  68.148  19.881  1.00  0.00     0.161 C
BRANCH  30  31
HETATM   31  O2  UNL     1     -13.013  69.059  20.086  1.00  0.00    -0.392 OA
ATOM     32  H2  UNL     1     -13.372  69.329  19.249  1.00  0.00     0.210 HD
ENDBRANCH  30  31
BRANCH  30  33
HETATM   33  C14 UNL     1     -11.724  68.030  18.394  1.00  0.00     0.197 C
BRANCH  33  34
HETATM   34  O3  UNL     1     -12.141  66.770  17.979  1.00  0.00    -0.398 OA
ATOM     35  H3  UNL     1     -13.037  66.841  17.672  1.00  0.00     0.209 HD
ENDBRANCH  33  34
ENDBRANCH  30  33
ENDBRANCH  29  30
ENDBRANCH   9  29
TORSDOF 12
ENDMDL