MODEL 1
REMARK VINA RESULT: -6.706799162      0.000      0.000
REMARK  9 active torsions:
REMARK  status: ('A' for Active; 'I' for Inactive)
REMARK    1  A    between atoms: N1_2  and  C2_3
REMARK    2  A    between atoms: N1_2  and  C3_6
REMARK    3  A    between atoms: C2_3  and  O1_4
REMARK    4  A    between atoms: C3_6  and  C4_7
REMARK    5  A    between atoms: N3_11  and  C6_12
REMARK    6  A    between atoms: C7_15  and  N5_16
REMARK    7  A    between atoms: N5_16  and  C8_18
REMARK    8  A    between atoms: C8_18  and  C9_19
REMARK    9  A    between atoms: C9_19  and  N6_20
ROOT
HETATM    1  C6  UNL     1      -9.818  69.358  26.773  1.00  0.00     0.733 A
HETATM    2  N4  UNL     1      -8.937  70.297  27.160  1.00  0.00    -0.019 N
ATOM      3  H4  UNL     1      -8.917  71.188  26.665  1.00  0.00     0.203 HD
HETATM    4  C7  UNL     1      -8.077  70.099  28.185  1.00  0.00     0.707 A
HETATM    5  N9  UNL     1      -8.080  68.934  28.855  1.00  0.00    -0.022 N
ATOM      6  H9  UNL     1      -7.433  68.777  29.627  1.00  0.00     0.203 HD
HETATM    7  C14 UNL     1      -8.950  67.979  28.487  1.00  0.00     0.705 A
HETATM    8  N10 UNL     1      -8.952  66.866  29.127  1.00  0.00    -0.234 N
ATOM      9 1H10 UNL     1      -9.613  66.141  28.847  1.00  0.00     0.174 HD
ATOM     10 2H10 UNL     1      -8.309  66.705  29.901  1.00  0.00     0.174 HD
HETATM   11  N11 UNL     1      -9.813  68.195  27.449  1.00  0.00    -0.020 N
ATOM     12  H11 UNL     1     -10.466  67.460  27.182  1.00  0.00     0.203 HD
ENDROOT
BRANCH   4  13
HETATM   13  N5  UNL     1      -7.273  71.064  28.476  1.00  0.00    -0.224 N
ATOM     14  H5  UNL     1      -6.341  70.803  28.795  1.00  0.00     0.177 HD
BRANCH  13  15
HETATM   15  C8  UNL     1      -7.556  72.458  28.399  1.00  0.00     0.157 C
BRANCH  15  16
HETATM   16  C9  UNL     1      -6.353  73.223  27.833  1.00  0.00     0.141 C
BRANCH  16  17
HETATM   17  N6  UNL     1      -5.948  72.630  26.600  1.00  0.00    -0.375 N
HETATM   18  C10 UNL     1      -6.108  73.090  25.433  1.00  0.00     0.103 A
HETATM   19  C11 UNL     1      -6.731  74.292  25.216  1.00  0.00     0.065 A
HETATM   20  N8  UNL     1      -5.665  72.400  24.377  1.00  0.00    -0.339 N
HETATM   21  C12 UNL     1      -6.865  74.727  23.895  1.00  0.00     0.092 A
HETATM   22  N7  UNL     1      -6.398  73.986  22.871  1.00  0.00    -0.362 N
HETATM   23  C13 UNL     1      -5.788  72.807  23.101  1.00  0.00     0.181 A
ATOM     24  H7  UNL     1      -6.507  74.320  21.914  1.00  0.00     0.165 HD
ATOM     25  H8  UNL     1      -5.203  71.508  24.550  1.00  0.00     0.168 HD
ATOM     26  H6  UNL     1      -5.475  71.728  26.669  1.00  0.00     0.161 HD
ENDBRANCH  16  17
ENDBRANCH  15  16
ENDBRANCH  13  15
ENDBRANCH   4  13
BRANCH   1  27
HETATM   27  N3  UNL     1     -10.736  69.570  25.677  1.00  0.00    -0.079 N
HETATM   28  C5  UNL     1     -11.883  70.232  25.847  1.00  0.00     0.227 A
HETATM   29  N2  UNL     1     -12.506  70.262  24.666  1.00  0.00    -0.338 N
HETATM   30  C4  UNL     1     -11.726  69.614  23.787  1.00  0.00     0.126 A
ATOM     31  H2  UNL     1     -13.407  70.696  24.469  1.00  0.00     0.168 HD
HETATM   32  N12 UNL     1     -10.642  69.200  24.444  1.00  0.00    -0.265 N
ATOM     33  H12 UNL     1      -9.866  68.677  24.039  1.00  0.00     0.189 HD
BRANCH  30  34
HETATM   34  C3  UNL     1     -12.082  69.433  22.346  1.00  0.00     0.352 C
BRANCH  34  35
HETATM   35  N1  UNL     1     -11.063  68.660  21.705  1.00  0.00     0.113 N
HETATM   36  C1  UNL     1     -11.543  67.776  20.690  1.00  0.00     0.313 C
BRANCH  35  37
HETATM   37  C2  UNL     1      -9.982  69.482  21.219  1.00  0.00     0.437 C
BRANCH  37  38
HETATM   38  O1  UNL     1      -8.765  68.775  21.199  1.00  0.00    -0.373 OA
ATOM     39  H1  UNL     1      -8.083  69.268  20.757  1.00  0.00     0.211 HD
ENDBRANCH  37  38
ENDBRANCH  35  37
ENDBRANCH  34  35
ENDBRANCH  30  34
ENDBRANCH   1  27
TORSDOF 9
ENDMDL