MODEL 1
REMARK VINA RESULT: -6.150311304      0.000      0.000
REMARK  9 active torsions:
REMARK  status: ('A' for Active; 'I' for Inactive)
REMARK    1  A    between atoms: N1_1  and  C1_5
REMARK    2  A    between atoms: C1_5  and  C2_6
REMARK    3  A    between atoms: C2_6  and  N2_7
REMARK    4  A    between atoms: N2_7  and  C3_9
REMARK    5  A    between atoms: C4_12  and  N4_13
REMARK    6  A    between atoms: N8_29  and  C12_30
REMARK    7  A    between atoms: C12_30  and  C13_31
REMARK    8  A    between atoms: C13_31  and  O2_32
REMARK    9  A    between atoms: O2_32  and  C14_33
ROOT
HETATM    1  C3  UNL     1      -9.522  72.682  23.107  1.00  0.00     0.681 A
HETATM    2  N3  UNL     1     -10.601  72.985  22.421  1.00  0.00    -0.174 N
ATOM      3  H3  UNL     1     -10.887  73.962  22.369  1.00  0.00     0.186 HD
HETATM    4  C4  UNL     1     -11.371  72.032  21.763  1.00  0.00     0.150 A
HETATM    5  C9  UNL     1     -11.003  70.735  21.827  1.00  0.00     0.128 A
HETATM    6  C10 UNL     1      -9.862  70.430  22.550  1.00  0.00     0.156 A
HETATM    7  N6  UNL     1      -9.165  71.394  23.161  1.00  0.00    -0.174 N
ATOM      8  H6  UNL     1      -8.329  71.137  23.688  1.00  0.00     0.186 HD
HETATM    9  N7  UNL     1      -9.674  69.118  22.436  1.00  0.00    -0.292 N
ATOM     10  H7  UNL     1      -8.915  68.581  22.857  1.00  0.00     0.172 HD
HETATM   11  C11 UNL     1     -10.663  68.623  21.670  1.00  0.00     0.328 A
HETATM   12  O1  UNL     1     -10.667  67.382  21.430  1.00  0.00    -0.246 OA
HETATM   13  N8  UNL     1     -11.516  69.594  21.269  1.00  0.00    -0.291 N
ENDROOT
BRANCH   1  14
HETATM   14  N2  UNL     1      -8.797  73.573  23.726  1.00  0.00    -0.224 N
ATOM     15  H2  UNL     1      -9.195  74.504  23.848  1.00  0.00     0.177 HD
BRANCH  14  16
HETATM   16  C2  UNL     1      -7.493  73.342  24.244  1.00  0.00     0.165 C
BRANCH  16  17
HETATM   17  C1  UNL     1      -6.394  73.684  23.240  1.00  0.00     0.249 C
BRANCH  17  18
HETATM   18  N1  UNL     1      -5.789  72.451  22.733  1.00  0.00    -0.078 N
ATOM     19  H13 UNL     1      -6.301  71.622  23.032  1.00  0.00     0.274 HD
ATOM     20  H12 UNL     1      -5.915  72.347  21.725  1.00  0.00     0.274 HD
ATOM     21  H11 UNL     1      -4.806  72.415  23.002  1.00  0.00     0.274 HD
ENDBRANCH  17  18
ENDBRANCH  16  17
ENDBRANCH  14  16
ENDBRANCH   1  14
BRANCH   4  22
HETATM   22  N4  UNL     1     -12.478  72.541  21.053  1.00  0.00    -0.362 N
HETATM   23  C5  UNL     1     -13.790  72.608  21.583  1.00  0.00     0.152 C
HETATM   24  C6  UNL     1     -14.253  74.049  21.540  1.00  0.00     0.252 C
HETATM   25  N5  UNL     1     -13.797  74.746  20.376  1.00  0.00    -0.072 N
HETATM   26  C7  UNL     1     -13.474  73.832  19.285  1.00  0.00     0.252 C
ATOM     27  H52 UNL     1     -14.469  75.453  20.081  1.00  0.00     0.277 HD
ATOM     28  H51 UNL     1     -13.007  75.354  20.595  1.00  0.00     0.277 HD
HETATM   29  C8  UNL     1     -12.240  73.067  19.721  1.00  0.00     0.152 C
ENDBRANCH   4  22
BRANCH  13  30
HETATM   30  C12 UNL     1     -12.694  69.396  20.498  1.00  0.00     0.161 C
BRANCH  30  31
HETATM   31  C13 UNL     1     -12.603  69.532  19.011  1.00  0.00     0.200 C
BRANCH  31  32
HETATM   32  O2  UNL     1     -13.003  68.448  18.223  1.00  0.00    -0.305 OA
BRANCH  32  33
HETATM   33  C14 UNL     1     -12.311  67.262  18.083  1.00  0.00     0.372 C
HETATM   34  N9  UNL     1     -12.538  66.200  18.981  1.00  0.00    -0.032 NA
HETATM   35  O3  UNL     1     -11.486  67.136  17.160  1.00  0.00    -0.242 OA
ENDBRANCH  32  33
ENDBRANCH  31  32
ENDBRANCH  30  31
ENDBRANCH  13  30
TORSDOF 9
ENDMDL