MODEL 4
REMARK VINA RESULT: -5.724678996      3.796      8.182
REMARK  7 active torsions:
REMARK  status: ('A' for Active; 'I' for Inactive)
REMARK       I    between atoms: C1_4  and  N3_6
REMARK    1  A    between atoms: N3_6  and  C2_8
REMARK    2  A    between atoms: C2_8  and  C3_9
REMARK    3  A    between atoms: C3_9  and  C4_10
REMARK    4  A    between atoms: C4_10  and  C5_11
REMARK    5  A    between atoms: C5_11  and  N4_12
REMARK    6  A    between atoms: C5_11  and  C7_21
REMARK    7  A    between atoms: N4_12  and  C6_14
REMARK       I    between atoms: C7_21  and  N9_23
ROOT
HETATM    1  C5  UNL     1      -9.846  72.336  24.034  1.00  0.00     0.192 C
ENDROOT
BRANCH   1   2
HETATM    2  C4  UNL     1     -11.063  72.527  23.163  1.00  0.00     0.037 C
BRANCH   2   3
HETATM    3  C3  UNL     1     -10.871  72.119  21.748  1.00  0.00     0.022 C
BRANCH   3   4
HETATM    4  C2  UNL     1     -11.691  70.896  21.388  1.00  0.00     0.122 C
BRANCH   4   5
HETATM    5  N3  UNL     1     -10.902  69.926  20.655  1.00  0.00    -0.365 N
HETATM    6  C1  UNL     1      -9.964  69.161  21.394  1.00  0.00     0.181 C
HETATM    7  N1  UNL     1     -10.324  68.470  22.439  1.00  0.00    -0.374 N
HETATM    8  N2  UNL     1      -8.589  69.103  21.039  1.00  0.00    -0.064 NA
ATOM      9  H12 UNL     1      -9.650  67.920  22.971  1.00  0.00     0.158 HD
ATOM     10  H11 UNL     1     -11.312  68.511  22.694  1.00  0.00     0.158 HD
ATOM     11  H3  UNL     1     -11.017  69.798  19.650  1.00  0.00     0.162 HD
ENDBRANCH   4   5
ENDBRANCH   3   4
ENDBRANCH   2   3
ENDBRANCH   1   2
BRANCH   1  12
HETATM   12  N4  UNL     1      -8.673  72.042  23.232  1.00  0.00    -0.211 N
ATOM     13  H4  UNL     1      -8.768  71.319  22.519  1.00  0.00     0.178 HD
BRANCH  12  14
HETATM   14  C6  UNL     1      -7.550  72.599  23.335  1.00  0.00     0.704 A
HETATM   15  N5  UNL     1      -6.361  72.024  23.140  1.00  0.00    -0.117 N
HETATM   16  N6  UNL     1      -5.392  72.915  23.338  1.00  0.00     0.006 NA
ATOM     17  H5  UNL     1      -6.217  71.049  22.879  1.00  0.00     0.202 HD
HETATM   18  N7  UNL     1      -5.974  74.077  23.665  1.00  0.00     0.006 NA
HETATM   19  N8  UNL     1      -7.291  73.868  23.658  1.00  0.00    -0.117 N
ATOM     20  H8  UNL     1      -7.996  74.573  23.870  1.00  0.00     0.202 HD
ENDBRANCH  12  14
ENDBRANCH   1  12
BRANCH   1  21
HETATM   21  C7  UNL     1      -9.994  71.240  25.008  1.00  0.00     0.243 C
HETATM   22  O1  UNL     1     -10.696  70.242  24.734  1.00  0.00    -0.271 OA
HETATM   23  N9  UNL     1      -9.369  71.249  26.271  1.00  0.00    -0.347 N
HETATM   24  C8  UNL     1      -8.512  72.305  26.754  1.00  0.00     0.153 C
HETATM   25  C11 UNL     1      -9.562  70.135  27.210  1.00  0.00     0.153 C
HETATM   26  C9  UNL     1      -7.356  71.773  27.567  1.00  0.00     0.252 C
HETATM   27  N10 UNL     1      -7.765  70.941  28.661  1.00  0.00    -0.072 N
HETATM   28  C10 UNL     1      -9.141  70.523  28.585  1.00  0.00     0.252 C
ATOM     29 2H10 UNL     1      -7.147  70.134  28.751  1.00  0.00     0.277 HD
ATOM     30 1H10 UNL     1      -7.577  71.400  29.553  1.00  0.00     0.277 HD
ENDBRANCH   1  21
TORSDOF 7
ENDMDL