MODEL 1
REMARK VINA RESULT: -7.361683436      0.000      0.000
REMARK  7 active torsions:
REMARK  status: ('A' for Active; 'I' for Inactive)
REMARK    1  A    between atoms: N2_3  and  N3_5
REMARK       I    between atoms: N3_5  and  C2_7
REMARK    2  A    between atoms: N5_9  and  C3_11
REMARK    3  A    between atoms: C3_11  and  C4_12
REMARK    4  A    between atoms: C4_12  and  C5_13
REMARK    5  A    between atoms: C5_13  and  C6_15
REMARK       I    between atoms: C6_15  and  N6_17
REMARK    6  A    between atoms: N6_17  and  C7_19
REMARK    7  A    between atoms: C7_19  and  C8_20
ROOT
HETATM    1  N1  UNL     1     -15.123  70.036  18.027  1.00  0.00    -0.170 NA
HETATM    2  C1  UNL     1     -14.973  68.901  18.254  1.00  0.00     0.198 C
HETATM    3  N2  UNL     1     -14.788  67.546  18.547  1.00  0.00    -0.234 N
ATOM      4  H2  UNL     1     -15.461  66.857  18.210  1.00  0.00     0.199 HD
ENDROOT
BRANCH   3   5
HETATM    5  N3  UNL     1     -13.678  67.129  19.306  1.00  0.00    -0.265 N
HETATM    6  C2  UNL     1     -12.398  67.480  18.789  1.00  0.00     0.203 C
HETATM    7  N4  UNL     1     -12.021  67.175  17.466  1.00  0.00    -0.062 NA
HETATM    8  N5  UNL     1     -11.582  68.092  19.564  1.00  0.00    -0.363 N
ATOM      9  H5  UNL     1     -10.670  68.336  19.178  1.00  0.00     0.162 HD
ATOM     10  H3  UNL     1     -13.784  66.606  20.175  1.00  0.00     0.190 HD
BRANCH   8  11
HETATM   11  C3  UNL     1     -11.834  68.460  20.920  1.00  0.00     0.130 C
BRANCH  11  12
HETATM   12  C4  UNL     1     -10.606  68.287  21.792  1.00  0.00     0.108 C
BRANCH  12  13
HETATM   13  C5  UNL     1      -9.707  69.443  21.662  1.00  0.00     0.217 C
HETATM   14  O1  UNL     1      -8.702  69.390  20.882  1.00  0.00    -0.287 OA
BRANCH  13  15
HETATM   15  C6  UNL     1      -9.909  70.685  22.400  1.00  0.00     0.287 C
HETATM   16  O2  UNL     1     -10.559  70.665  23.473  1.00  0.00    -0.264 OA
HETATM   17  N6  UNL     1      -9.401  71.928  21.957  1.00  0.00    -0.349 N
ATOM     18  H6  UNL     1      -8.872  71.950  21.085  1.00  0.00     0.163 HD
BRANCH  17  19
HETATM   19  C7  UNL     1      -9.589  73.165  22.671  1.00  0.00     0.180 C
BRANCH  19  20
HETATM   20  C8  UNL     1      -8.338  73.687  23.286  1.00  0.00     0.036 A
HETATM   21  C9  UNL     1      -8.388  74.820  24.097  1.00  0.00     0.101 A
HETATM   22  C10 UNL     1      -7.254  75.335  24.692  1.00  0.00     0.251 A
HETATM   23  O3  UNL     1      -7.367  76.352  25.407  1.00  0.00    -0.268 OA
HETATM   24  N7  UNL     1      -6.100  74.705  24.464  1.00  0.00    -0.275 N
HETATM   25  C11 UNL     1      -6.048  73.613  23.684  1.00  0.00     0.327 A
ATOM     26  H7  UNL     1      -5.242  75.058  24.890  1.00  0.00     0.173 HD
HETATM   27  O4  UNL     1      -4.972  72.995  23.449  1.00  0.00    -0.247 OA
HETATM   28  N8  UNL     1      -7.156  73.091  23.089  1.00  0.00    -0.311 N
ATOM     29  H8  UNL     1      -7.086  72.260  22.502  1.00  0.00     0.170 HD
ENDBRANCH  19  20
ENDBRANCH  17  19
ENDBRANCH  13  15
ENDBRANCH  12  13
ENDBRANCH  11  12
ENDBRANCH   8  11
ENDBRANCH   3   5
TORSDOF 7
ENDMDL