MODEL 5
REMARK VINA RESULT: -6.026426226      3.669      6.847
REMARK  10 active torsions:
REMARK  status: ('A' for Active; 'I' for Inactive)
REMARK    1  A    between atoms: N1_1  and  S1_4
REMARK    2  A    between atoms: S1_4  and  N2_5
REMARK    3  A    between atoms: S1_4  and  C1_9
REMARK    4  A    between atoms: C4_12  and  C5_13
REMARK    5  A    between atoms: C5_13  and  C6_14
REMARK    6  A    between atoms: C6_14  and  C7_15
REMARK       I    between atoms: C7_15  and  N3_17
REMARK    7  A    between atoms: N3_17  and  N4_19
REMARK    8  A    between atoms: N4_19  and  C8_21
REMARK    9  A    between atoms: C9_23  and  N5_24
REMARK   10  A    between atoms: N5_24  and  N6_26
ROOT
HETATM    1  C1  UNL     1     -10.612  74.827  22.102  1.00  0.00     0.125 C
HETATM    2  C2  UNL     1     -11.199  73.781  21.409  1.00  0.00     0.030 C
HETATM    3  C3  UNL     1     -10.835  72.453  21.392  1.00  0.00     0.012 C
HETATM    4  C4  UNL     1      -9.739  71.798  21.911  1.00  0.00    -0.012 C
HETATM    5  C9  UNL     1      -8.742  72.410  22.639  1.00  0.00     0.128 C
HETATM    6  N7  UNL     1      -8.604  73.708  22.999  1.00  0.00    -0.307 N
ATOM      7  H7  UNL     1      -7.785  73.914  23.571  1.00  0.00     0.170 HD
HETATM    8  C10 UNL     1      -9.394  74.777  22.712  1.00  0.00     0.268 C
HETATM    9  O4  UNL     1      -8.942  75.910  23.057  1.00  0.00    -0.267 OA
ENDROOT
BRANCH   4  10
HETATM   10  C5  UNL     1      -9.579  70.370  21.711  1.00  0.00     0.052 C
BRANCH  10  11
HETATM   11  C6  UNL     1     -10.515  69.455  22.407  1.00  0.00     0.109 C
BRANCH  11  12
HETATM   12  C7  UNL     1     -10.909  68.382  21.422  1.00  0.00     0.236 C
HETATM   13  O2  UNL     1     -10.520  67.194  21.559  1.00  0.00    -0.272 OA
HETATM   14  N3  UNL     1     -11.726  68.695  20.320  1.00  0.00    -0.268 N
ATOM     15  H3  UNL     1     -12.055  69.652  20.186  1.00  0.00     0.190 HD
BRANCH  14  16
HETATM   16  N4  UNL     1     -12.088  67.699  19.410  1.00  0.00    -0.275 N
ATOM     17  H4  UNL     1     -12.329  66.773  19.761  1.00  0.00     0.189 HD
BRANCH  16  18
HETATM   18  C8  UNL     1     -12.130  67.935  18.028  1.00  0.00     0.368 C
HETATM   19  O3  UNL     1     -11.784  67.050  17.208  1.00  0.00    -0.282 OA
ENDBRANCH  16  18
ENDBRANCH  14  16
ENDBRANCH  11  12
ENDBRANCH  10  11
ENDBRANCH   4  10
BRANCH   5  20
HETATM   20  N5  UNL     1      -7.797  71.641  23.037  1.00  0.00    -0.292 N
ATOM     21  H5  UNL     1      -8.008  70.698  23.366  1.00  0.00     0.188 HD
BRANCH  20  22
HETATM   22  N6  UNL     1      -6.489  72.095  23.017  1.00  0.00    -0.344 N
ATOM     23  H62 UNL     1      -5.996  72.229  23.900  1.00  0.00     0.176 HD
ATOM     24  H61 UNL     1      -6.036  72.289  22.125  1.00  0.00     0.176 HD
ENDBRANCH  20  22
ENDBRANCH   5  20
BRANCH   1  25
HETATM   25  S1  UNL     1     -11.500  76.339  22.207  1.00  0.00     0.136 S
HETATM   26  O1  UNL     1     -12.802  76.230  21.500  1.00  0.00    -0.224 OA
BRANCH  25  27
HETATM   27  N1  UNL     1     -11.717  76.737  23.701  1.00  0.00    -0.341 N
ATOM     28  H12 UNL     1     -11.373  77.589  24.142  1.00  0.00     0.167 HD
ATOM     29  H11 UNL     1     -12.260  75.994  24.140  1.00  0.00     0.167 HD
ENDBRANCH  25  27
BRANCH  25  30
HETATM   30  N2  UNL     1     -10.567  77.590  21.467  1.00  0.00    -0.341 N
ATOM     31  H22 UNL     1     -10.110  78.358  21.959  1.00  0.00     0.167 HD
ATOM     32  H21 UNL     1     -10.563  77.415  20.462  1.00  0.00     0.167 HD
ENDBRANCH  25  30
ENDBRANCH   1  25
TORSDOF 10
ENDMDL