MODEL 2
REMARK VINA RESULT: -6.418242733      3.020      7.996
REMARK  10 active torsions:
REMARK  status: ('A' for Active; 'I' for Inactive)
REMARK    1  A    between atoms: C1_2  and  C2_4
REMARK    2  A    between atoms: C2_4  and  N2_5
REMARK    3  A    between atoms: C2_4  and  C3_9
REMARK    4  A    between atoms: C3_9  and  C4_10
REMARK    5  A    between atoms: C4_10  and  N3_11
REMARK    6  A    between atoms: C4_10  and  C5_15
REMARK    7  A    between atoms: C5_15  and  C6_16
REMARK    8  A    between atoms: C5_15  and  N4_19
REMARK    9  A    between atoms: C6_16  and  O2_17
REMARK   10  A    between atoms: N4_19  and  C7_21
ROOT
HETATM    1  C5  UNL     1      -7.130  72.782  24.264  1.00  0.00     0.137 C
ENDROOT
BRANCH   1   2
HETATM    2  C4  UNL     1      -7.681  72.794  25.656  1.00  0.00     0.210 C
BRANCH   2   3
HETATM    3  C3  UNL     1      -6.732  72.559  26.760  1.00  0.00     0.077 C
BRANCH   3   4
HETATM    4  C2  UNL     1      -6.977  73.252  28.055  1.00  0.00     0.274 C
BRANCH   4   5
HETATM    5  C1  UNL     1      -7.460  72.268  29.098  1.00  0.00     0.261 C
HETATM    6  N1  UNL     1      -7.563  70.903  28.784  1.00  0.00    -0.060 NA
HETATM    7  O1  UNL     1      -7.756  72.712  30.220  1.00  0.00    -0.275 OA
ENDBRANCH   4   5
BRANCH   4   8
HETATM    8  N2  UNL     1      -5.898  73.990  28.604  1.00  0.00    -0.067 N
ATOM      9  H23 UNL     1      -6.146  74.457  29.476  1.00  0.00     0.275 HD
ATOM     10  H22 UNL     1      -5.160  73.390  28.972  1.00  0.00     0.275 HD
ATOM     11  H21 UNL     1      -5.560  74.639  27.893  1.00  0.00     0.275 HD
ENDBRANCH   4   8
ENDBRANCH   3   4
ENDBRANCH   2   3
BRANCH   2  12
HETATM   12  N3  UNL     1      -8.487  73.962  25.959  1.00  0.00    -0.073 N
ATOM     13  H33 UNL     1      -7.992  74.632  26.546  1.00  0.00     0.274 HD
ATOM     14  H32 UNL     1      -8.626  74.559  25.143  1.00  0.00     0.274 HD
ATOM     15  H31 UNL     1      -9.371  73.663  26.373  1.00  0.00     0.274 HD
ENDBRANCH   2  12
ENDBRANCH   1   2
BRANCH   1  16
HETATM   16  C6  UNL     1      -5.913  73.700  24.154  1.00  0.00     0.191 C
BRANCH  16  17
HETATM   17  O2  UNL     1      -5.020  73.138  23.252  1.00  0.00    -0.399 OA
ATOM     18  H2  UNL     1      -5.477  72.985  22.433  1.00  0.00     0.209 HD
ENDBRANCH  16  17
ENDBRANCH   1  16
BRANCH   1  19
HETATM   19  N4  UNL     1      -8.054  73.201  23.273  1.00  0.00    -0.366 N
ATOM     20  H4  UNL     1      -7.970  74.183  23.009  1.00  0.00     0.161 HD
BRANCH  19  21
HETATM   21  C7  UNL     1      -8.956  72.581  22.665  1.00  0.00     0.117 A
HETATM   22  C8  UNL     1     -10.226  73.152  22.609  1.00  0.00     0.136 A
HETATM   23  N5  UNL     1     -11.204  72.524  21.974  1.00  0.00    -0.360 N
HETATM   24  C9  UNL     1     -10.999  71.341  21.379  1.00  0.00     0.066 A
ATOM     25  H5  UNL     1     -12.131  72.948  21.938  1.00  0.00     0.165 HD
HETATM   26  C10 UNL     1     -12.056  70.741  20.737  1.00  0.00     0.049 A
HETATM   27  C13 UNL     1      -9.750  70.764  21.427  1.00  0.00     0.129 A
HETATM   28  C11 UNL     1     -11.861  69.527  20.123  1.00  0.00     0.093 A
HETATM   29  N6  UNL     1     -10.637  68.953  20.164  1.00  0.00    -0.332 N
HETATM   30  C12 UNL     1      -9.593  69.547  20.799  1.00  0.00     0.274 A
ATOM     31  H6  UNL     1     -10.494  68.052  19.707  1.00  0.00     0.168 HD
HETATM   32  O3  UNL     1      -8.465  68.994  20.824  1.00  0.00    -0.266 OA
HETATM   33  N7  UNL     1      -8.751  71.400  22.072  1.00  0.00    -0.335 N
ATOM     34  H7  UNL     1      -7.826  70.973  22.108  1.00  0.00     0.168 HD
ENDBRANCH  19  21
ENDBRANCH   1  19
TORSDOF 10
ENDMDL