MODEL 4
REMARK VINA RESULT: -6.466162321      1.727      3.341
REMARK  10 active torsions:
REMARK  status: ('A' for Active; 'I' for Inactive)
REMARK    1  A    between atoms: N3_4  and  C2_6
REMARK    2  A    between atoms: C2_6  and  C3_7
REMARK    3  A    between atoms: C3_7  and  C4_8
REMARK    4  A    between atoms: C4_8  and  C5_9
REMARK    5  A    between atoms: C5_9  and  N4_10
REMARK    6  A    between atoms: C5_9  and  C6_14
REMARK       I    between atoms: C6_14  and  N5_16
REMARK    7  A    between atoms: N5_16  and  N6_18
REMARK    8  A    between atoms: N6_18  and  C7_20
REMARK    9  A    between atoms: C7_20  and  C8_25
REMARK   10  A    between atoms: N7_21  and  O2_23
ROOT
HETATM    1  C6  UNL     1      -9.195  73.255  22.985  1.00  0.00     0.266 C
HETATM    2  O1  UNL     1      -9.410  72.423  23.904  1.00  0.00    -0.269 OA
HETATM    3  N5  UNL     1      -9.804  72.950  21.737  1.00  0.00    -0.267 N
ATOM      4  H5  UNL     1      -9.653  73.600  20.965  1.00  0.00     0.190 HD
ENDROOT
BRANCH   3   5
HETATM    5  N6  UNL     1     -10.592  71.825  21.494  1.00  0.00    -0.280 N
ATOM      6  H6  UNL     1     -11.590  71.903  21.696  1.00  0.00     0.189 HD
BRANCH   5   7
HETATM    7  C7  UNL     1     -10.134  70.592  20.994  1.00  0.00     0.168 C
HETATM    8  N7  UNL     1      -8.962  70.159  21.204  1.00  0.00    -0.250 N
ATOM      9  H7  UNL     1      -8.348  70.753  21.762  1.00  0.00     0.196 HD
BRANCH   8  10
HETATM   10  O2  UNL     1      -8.444  68.994  20.766  1.00  0.00    -0.288 OA
ATOM     11  H2  UNL     1      -8.429  68.682  19.869  1.00  0.00     0.244 HD
ENDBRANCH   8  10
BRANCH   7  12
HETATM   12  C8  UNL     1     -11.032  69.745  20.183  1.00  0.00     0.095 A
HETATM   13  C9  UNL     1     -11.733  70.345  19.157  1.00  0.00     0.040 A
HETATM   14  C10 UNL     1     -12.586  69.602  18.363  1.00  0.00     0.078 A
HETATM   15  C11 UNL     1     -12.686  68.265  18.653  1.00  0.00     0.259 A
HETATM   16  O3  UNL     1     -13.463  67.562  17.936  1.00  0.00    -0.267 OA
HETATM   17  N8  UNL     1     -11.989  67.730  19.652  1.00  0.00    -0.266 N
HETATM   18  N9  UNL     1     -11.179  68.448  20.404  1.00  0.00    -0.294 N
ATOM     19  H8  UNL     1     -12.084  66.733  19.842  1.00  0.00     0.190 HD
ATOM     20  H9  UNL     1     -10.661  68.001  21.161  1.00  0.00     0.187 HD
ENDBRANCH   7  12
ENDBRANCH   5   7
ENDBRANCH   3   5
BRANCH   1  21
HETATM   21  C5  UNL     1      -8.401  74.460  23.094  1.00  0.00     0.276 C
BRANCH  21  22
HETATM   22  C4  UNL     1      -9.095  75.693  23.539  1.00  0.00     0.044 C
BRANCH  22  23
HETATM   23  C3  UNL     1      -9.209  76.799  22.566  1.00  0.00     0.022 C
BRANCH  23  24
HETATM   24  C2  UNL     1     -10.689  76.859  22.142  1.00  0.00     0.122 C
BRANCH  24  25
HETATM   25  N3  UNL     1     -10.813  76.194  20.855  1.00  0.00    -0.367 N
HETATM   26  C1  UNL     1     -11.575  75.193  20.651  1.00  0.00     0.196 C
HETATM   27  N1  UNL     1     -11.624  74.619  19.363  1.00  0.00    -0.067 NA
HETATM   28  N2  UNL     1     -12.351  74.687  21.725  1.00  0.00    -0.067 NA
ATOM     29  H3  UNL     1     -10.260  76.546  20.074  1.00  0.00     0.161 HD
ENDBRANCH  24  25
ENDBRANCH  23  24
ENDBRANCH  22  23
ENDBRANCH  21  22
BRANCH  21  30
HETATM   30  N4  UNL     1      -7.195  74.197  23.850  1.00  0.00    -0.066 N
ATOM     31  H43 UNL     1      -7.359  73.490  24.567  1.00  0.00     0.275 HD
ATOM     32  H42 UNL     1      -6.508  73.699  23.283  1.00  0.00     0.275 HD
ATOM     33  H41 UNL     1      -6.791  75.042  24.255  1.00  0.00     0.275 HD
ENDBRANCH  21  30
ENDBRANCH   1  21
TORSDOF 10
ENDMDL