MODEL 5
REMARK VINA RESULT: -5.781338350      1.762      2.840
REMARK  12 active torsions:
REMARK  status: ('A' for Active; 'I' for Inactive)
REMARK    1  A    between atoms: N1_2  and  C2_4
REMARK    2  A    between atoms: C3_7  and  N3_8
REMARK    3  A    between atoms: C4_13  and  N5_14
REMARK    4  A    between atoms: N5_14  and  C5_16
REMARK    5  A    between atoms: C5_16  and  C6_17
REMARK    6  A    between atoms: C5_16  and  C7_24
REMARK    7  A    between atoms: C6_17  and  N6_18
REMARK    8  A    between atoms: N6_18  and  N7_20
REMARK    9  A    between atoms: N7_20  and  N8_21
REMARK   10  A    between atoms: C7_24  and  O1_25
REMARK   11  A    between atoms: O1_25  and  S1_26
REMARK   12  A    between atoms: S1_26  and  N9_27
ROOT
HETATM    1  N5  UNL     1     -11.820  71.530  19.136  1.00  0.00    -0.217 N
ATOM      2  H5  UNL     1     -11.466  71.727  18.200  1.00  0.00     0.178 HD
ENDROOT
BRANCH   1   3
HETATM    3  C4  UNL     1     -10.954  71.470  20.055  1.00  0.00     0.707 A
HETATM    4  N4  UNL     1     -10.218  70.353  20.191  1.00  0.00    -0.022 N
HETATM    5  C3  UNL     1      -9.276  70.214  21.146  1.00  0.00     0.705 A
ATOM      6  H4  UNL     1     -10.379  69.580  19.545  1.00  0.00     0.203 HD
HETATM    7  N2  UNL     1      -9.079  71.246  21.988  1.00  0.00    -0.022 N
HETATM    8  C2  UNL     1      -9.791  72.381  21.889  1.00  0.00     0.706 A
ATOM      9  H2  UNL     1      -8.372  71.164  22.719  1.00  0.00     0.203 HD
HETATM   10  N10 UNL     1     -10.724  72.475  20.917  1.00  0.00    -0.022 N
ATOM     11  H10 UNL     1     -11.270  73.332  20.835  1.00  0.00     0.203 HD
BRANCH   5  12
HETATM   12  N3  UNL     1      -8.576  69.140  21.267  1.00  0.00    -0.234 N
ATOM     13  H32 UNL     1      -8.995  68.212  21.212  1.00  0.00     0.174 HD
ATOM     14  H31 UNL     1      -7.570  69.200  21.423  1.00  0.00     0.174 HD
ENDBRANCH   5  12
BRANCH   8  15
HETATM   15  N1  UNL     1      -9.561  73.335  22.721  1.00  0.00    -0.229 N
HETATM   16  C1  UNL     1      -8.278  73.452  23.358  1.00  0.00     0.165 C
ATOM     17  H1  UNL     1     -10.295  74.012  22.930  1.00  0.00     0.177 HD
ENDBRANCH   8  15
ENDBRANCH   1   3
BRANCH   1  18
HETATM   18  C5  UNL     1     -13.226  71.357  19.247  1.00  0.00     0.144 C
BRANCH  18  19
HETATM   19  C6  UNL     1     -14.032  72.579  18.879  1.00  0.00     0.183 C
BRANCH  19  20
HETATM   20  N6  UNL     1     -13.240  73.543  18.143  1.00  0.00    -0.251 N
ATOM     21  H6  UNL     1     -13.245  73.552  17.124  1.00  0.00     0.197 HD
BRANCH  20  22
HETATM   22  N7  UNL     1     -12.565  74.346  18.772  1.00  0.00    -0.248 NA
BRANCH  22  23
HETATM   23  N8  UNL     1     -11.663  75.048  19.228  1.00  0.00    -0.261 N
ATOM     24  H82 UNL     1     -11.347  75.324  18.299  1.00  0.00     0.193 HD
ATOM     25  H81 UNL     1     -11.008  75.552  19.826  1.00  0.00     0.193 HD
ENDBRANCH  22  23
ENDBRANCH  20  22
ENDBRANCH  19  20
ENDBRANCH  18  19
BRANCH  18  26
HETATM   26  C7  UNL     1     -13.622  70.254  18.252  1.00  0.00     0.219 C
BRANCH  26  27
HETATM   27  O1  UNL     1     -12.455  69.548  17.986  1.00  0.00    -0.258 OA
BRANCH  27  28
HETATM   28  S1  UNL     1     -12.522  67.960  18.479  1.00  0.00     0.355 S
HETATM   29  O2  UNL     1     -11.962  67.111  17.373  1.00  0.00    -0.176 OA
HETATM   30  O3  UNL     1     -11.737  67.786  19.761  1.00  0.00    -0.176 OA
BRANCH  28  31
HETATM   31  N9  UNL     1     -14.197  67.532  18.735  1.00  0.00    -0.306 N
ATOM     32  H92 UNL     1     -14.824  67.168  18.018  1.00  0.00     0.171 HD
ATOM     33  H91 UNL     1     -14.429  67.709  19.712  1.00  0.00     0.171 HD
ENDBRANCH  28  31
ENDBRANCH  27  28
ENDBRANCH  26  27
ENDBRANCH  18  26
ENDBRANCH   1  18
TORSDOF 12
ENDMDL