MODEL 4
REMARK VINA RESULT: -5.335801547      3.064      4.223
REMARK  8 active torsions:
REMARK  status: ('A' for Active; 'I' for Inactive)
REMARK    1  A    between atoms: N1_2  and  C2_4
REMARK    2  A    between atoms: C3_7  and  N3_8
REMARK    3  A    between atoms: N3_8  and  N4_10
REMARK    4  A    between atoms: N6_16  and  C5_18
REMARK    5  A    between atoms: C5_18  and  C6_19
REMARK    6  A    between atoms: C6_19  and  N7_20
REMARK       I    between atoms: N7_20  and  C7_22
REMARK    7  A    between atoms: C7_22  and  C8_24
REMARK    8  A    between atoms: C8_24  and  N8_25
ROOT
HETATM    1  C2  UNL     1      -6.128  73.959  27.123  1.00  0.00     0.706 A
HETATM    2  N2  UNL     1      -6.427  72.988  28.017  1.00  0.00    -0.020 N
ATOM      3  H2  UNL     1      -6.002  72.977  28.944  1.00  0.00     0.203 HD
HETATM    4  C3  UNL     1      -7.296  72.046  27.649  1.00  0.00     0.725 A
HETATM    5  N5  UNL     1      -7.859  72.058  26.430  1.00  0.00    -0.020 N
ATOM      6  H5  UNL     1      -8.518  71.318  26.190  1.00  0.00     0.203 HD
HETATM    7  C4  UNL     1      -7.591  73.003  25.510  1.00  0.00     0.707 A
HETATM    8  N6  UNL     1      -8.113  73.072  24.340  1.00  0.00    -0.224 N
ATOM      9  H6  UNL     1      -7.847  73.826  23.707  1.00  0.00     0.177 HD
HETATM   10  N10 UNL     1      -6.695  73.962  25.911  1.00  0.00    -0.022 N
ATOM     11  H10 UNL     1      -6.450  74.706  25.258  1.00  0.00     0.203 HD
ENDROOT
BRANCH   8  12
HETATM   12  C5  UNL     1      -9.072  72.086  23.919  1.00  0.00     0.157 C
BRANCH  12  13
HETATM   13  C6  UNL     1      -8.646  71.484  22.587  1.00  0.00     0.143 C
BRANCH  13  14
HETATM   14  N7  UNL     1      -9.773  70.755  22.052  1.00  0.00    -0.358 N
HETATM   15  C7  UNL     1      -9.544  69.496  21.461  1.00  0.00     0.246 C
HETATM   16  O1  UNL     1      -8.338  69.031  21.401  1.00  0.00    -0.272 OA
ATOM     17  H7  UNL     1     -10.715  71.143  22.101  1.00  0.00     0.162 HD
BRANCH  15  18
HETATM   18  C8  UNL     1     -10.653  68.706  20.906  1.00  0.00     0.376 C
BRANCH  18  19
HETATM   19  N8  UNL     1     -11.791  69.555  20.616  1.00  0.00     0.114 N
HETATM   20  C9  UNL     1     -11.942  69.630  19.147  1.00  0.00     0.276 C
HETATM   21  C10 UNL     1     -12.024  68.236  18.543  1.00  0.00     0.049 C
HETATM   22  C11 UNL     1     -13.096  67.425  19.249  1.00  0.00     0.117 C
HETATM   23  N9  UNL     1     -13.795  68.314  20.121  1.00  0.00    -0.398 N
HETATM   24  C12 UNL     1     -13.018  68.926  21.147  1.00  0.00     0.391 C
ATOM     25  H9  UNL     1     -14.793  68.500  20.016  1.00  0.00     0.154 HD
ENDBRANCH  18  19
ENDBRANCH  15  18
ENDBRANCH  13  14
ENDBRANCH  12  13
ENDBRANCH   8  12
BRANCH   4  26
HETATM   26  N3  UNL     1      -7.606  71.116  28.470  1.00  0.00    -0.138 N
ATOM     27  H3  UNL     1      -7.853  71.404  29.416  1.00  0.00     0.205 HD
BRANCH  26  28
HETATM   28  N4  UNL     1      -7.639  69.765  28.203  1.00  0.00    -0.331 N
ATOM     29  H42 UNL     1      -7.185  69.168  28.894  1.00  0.00     0.177 HD
ATOM     30  H41 UNL     1      -8.068  69.318  27.392  1.00  0.00     0.177 HD
ENDBRANCH  26  28
ENDBRANCH   4  26
BRANCH   1  31
HETATM   31  N1  UNL     1      -5.275  74.890  27.471  1.00  0.00    -0.229 N
HETATM   32  C1  UNL     1      -5.128  76.096  26.708  1.00  0.00     0.165 C
ATOM     33  H1  UNL     1      -4.702  74.754  28.303  1.00  0.00     0.177 HD
ENDBRANCH   1  31
TORSDOF 8
ENDMDL