MODEL 1
REMARK VINA RESULT: -6.408203150      0.000      0.000
REMARK  10 active torsions:
REMARK  status: ('A' for Active; 'I' for Inactive)
REMARK    1  A    between atoms: O1_2  and  N1_3
REMARK    2  A    between atoms: N1_3  and  O2_4
REMARK    3  A    between atoms: N1_3  and  N2_6
REMARK       I    between atoms: N2_6  and  C2_8
REMARK    4  A    between atoms: N4_10  and  C3_12
REMARK    5  A    between atoms: C3_12  and  C4_13
REMARK    6  A    between atoms: C4_13  and  C5_14
REMARK    7  A    between atoms: C5_14  and  N5_15
REMARK    8  A    between atoms: N5_15  and  C6_17
REMARK    9  A    between atoms: C9_23  and  C10_24
REMARK   10  A    between atoms: C10_24  and  O3_25
ROOT
HETATM    1  C6  UNL     1      -9.667  72.136  21.845  1.00  0.00     0.682 A
HETATM    2  N6  UNL     1     -10.448  72.575  20.845  1.00  0.00    -0.181 N
ATOM      3  H6  UNL     1     -10.712  71.926  20.104  1.00  0.00     0.185 HD
HETATM    4  C7  UNL     1     -10.901  73.859  20.787  1.00  0.00     0.143 A
HETATM    5  C8  UNL     1     -11.730  74.266  19.694  1.00  0.00     0.119 C
HETATM    6  N7  UNL     1     -12.404  74.576  18.809  1.00  0.00    -0.190 NA
HETATM    7  C9  UNL     1     -10.553  74.739  21.777  1.00  0.00     0.072 A
HETATM    8  C11 UNL     1      -9.751  74.295  22.807  1.00  0.00     0.271 A
HETATM    9  O4  UNL     1      -9.444  75.104  23.697  1.00  0.00    -0.267 OA
HETATM   10  N8  UNL     1      -9.334  73.011  22.810  1.00  0.00    -0.156 N
ATOM     11  H8  UNL     1      -8.743  72.692  23.578  1.00  0.00     0.187 HD
ENDROOT
BRANCH   7  12
HETATM   12  C10 UNL     1     -11.043  76.128  21.711  1.00  0.00     0.211 C
BRANCH  12  13
HETATM   13  O3  UNL     1     -10.033  76.992  21.285  1.00  0.00    -0.396 OA
ATOM     14  H3  UNL     1      -9.757  77.565  21.991  1.00  0.00     0.209 HD
ENDBRANCH  12  13
ENDBRANCH   7  12
BRANCH   1  15
HETATM   15  N5  UNL     1      -9.230  70.931  21.921  1.00  0.00    -0.226 N
ATOM     16  H5  UNL     1      -8.610  70.712  22.700  1.00  0.00     0.177 HD
BRANCH  15  17
HETATM   17  C5  UNL     1      -9.531  69.872  21.020  1.00  0.00     0.139 C
BRANCH  17  18
HETATM   18  C4  UNL     1     -10.418  68.804  21.623  1.00  0.00     0.040 C
BRANCH  18  19
HETATM   19  C3  UNL     1     -11.763  68.756  20.944  1.00  0.00     0.124 C
BRANCH  19  20
HETATM   20  N4  UNL     1     -11.566  68.195  19.615  1.00  0.00    -0.363 N
HETATM   21  C2  UNL     1     -12.482  67.508  19.022  1.00  0.00     0.202 C
HETATM   22  N2  UNL     1     -13.751  67.236  19.600  1.00  0.00    -0.245 N
HETATM   23  N3  UNL     1     -12.194  67.003  17.724  1.00  0.00    -0.062 NA
ATOM     24  H2  UNL     1     -13.808  67.070  20.605  1.00  0.00     0.188 HD
ATOM     25  H4  UNL     1     -10.678  68.350  19.139  1.00  0.00     0.162 HD
BRANCH  22  26
HETATM   26  N1  UNL     1     -14.925  67.187  18.840  1.00  0.00     0.037 NA
BRANCH  26  27
HETATM   27  O1  UNL     1     -16.004  67.573  19.576  1.00  0.00    -0.266 OA
HETATM   28  C1  UNL     1     -15.952  68.908  19.933  1.00  0.00     0.234 C
ENDBRANCH  26  27
BRANCH  26  29
HETATM   29  O2  UNL     1     -14.837  67.880  17.704  1.00  0.00    -0.270 OA
ATOM     30  H2  UNL     1     -14.010  68.343  17.644  1.00  0.00     0.241 HD
ENDBRANCH  26  29
ENDBRANCH  22  26
ENDBRANCH  19  20
ENDBRANCH  18  19
ENDBRANCH  17  18
ENDBRANCH  15  17
ENDBRANCH   1  15
TORSDOF 10
ENDMDL