MODEL 5
REMARK VINA RESULT: -6.041073269      3.923      4.935
REMARK  8 active torsions:
REMARK  status: ('A' for Active; 'I' for Inactive)
REMARK       I    between atoms: C1_4  and  N3_6
REMARK    1  A    between atoms: N3_6  and  C2_8
REMARK    2  A    between atoms: C2_8  and  C3_9
REMARK    3  A    between atoms: C3_9  and  C4_10
REMARK    4  A    between atoms: C4_10  and  N4_11
REMARK    5  A    between atoms: C7_15  and  C8_16
REMARK    6  A    between atoms: C8_16  and  S1_17
REMARK    7  A    between atoms: S1_17  and  C9_19
REMARK    8  A    between atoms: C9_19  and  O3_20
ROOT
HETATM    1  N4  UNL     1      -8.476  72.343  25.534  1.00  0.00    -0.277 N
HETATM    2  C5  UNL     1      -9.596  71.678  25.158  1.00  0.00     0.252 C
HETATM    3  O1  UNL     1     -10.412  71.427  26.076  1.00  0.00    -0.268 OA
HETATM    4  C6  UNL     1      -9.966  71.235  23.901  1.00  0.00     0.100 C
HETATM    5  C7  UNL     1      -9.401  71.544  22.658  1.00  0.00     0.029 C
HETATM    6  N5  UNL     1      -8.137  71.969  22.476  1.00  0.00    -0.322 N
ATOM      7  H5  UNL     1      -7.860  72.105  21.503  1.00  0.00     0.169 HD
HETATM    8  C10 UNL     1      -7.176  72.244  23.396  1.00  0.00     0.314 C
HETATM    9  O4  UNL     1      -5.979  72.242  22.986  1.00  0.00    -0.262 OA
HETATM   10  C11 UNL     1      -7.404  72.524  24.732  1.00  0.00     0.318 C
HETATM   11  O5  UNL     1      -6.440  73.050  25.343  1.00  0.00    -0.262 OA
ENDROOT
BRANCH   1  12
HETATM   12  C4  UNL     1      -8.431  72.892  26.877  1.00  0.00     0.137 C
BRANCH  12  13
HETATM   13  C3  UNL     1      -7.554  72.068  27.792  1.00  0.00     0.040 C
BRANCH  13  14
HETATM   14  C2  UNL     1      -8.419  71.760  29.023  1.00  0.00     0.124 C
BRANCH  14  15
HETATM   15  N3  UNL     1      -9.344  70.715  28.684  1.00  0.00    -0.365 N
HETATM   16  C1  UNL     1      -8.827  69.415  28.382  1.00  0.00     0.181 C
HETATM   17  N1  UNL     1      -9.418  68.747  27.457  1.00  0.00    -0.374 N
HETATM   18  N2  UNL     1      -7.712  68.877  29.063  1.00  0.00    -0.064 NA
ATOM     19  H12 UNL     1      -9.051  67.820  27.242  1.00  0.00     0.158 HD
ATOM     20  H11 UNL     1     -10.224  69.136  26.965  1.00  0.00     0.158 HD
ATOM     21  H3  UNL     1     -10.347  70.896  28.659  1.00  0.00     0.162 HD
ENDBRANCH  14  15
ENDBRANCH  13  14
ENDBRANCH  12  13
ENDBRANCH   1  12
BRANCH   5  22
HETATM   22  C8  UNL     1     -10.274  71.379  21.491  1.00  0.00     0.168 C
BRANCH  22  23
HETATM   23  S1  UNL     1     -10.114  69.830  20.672  1.00  0.00     0.044 S
HETATM   24  O2  UNL     1      -8.535  69.281  20.984  1.00  0.00    -0.256 OA
BRANCH  23  25
HETATM   25  C9  UNL     1     -11.194  68.600  21.408  1.00  0.00     0.272 C
BRANCH  25  26
HETATM   26  O3  UNL     1     -10.553  67.384  21.531  1.00  0.00    -0.389 OA
ATOM     27  H3  UNL     1      -9.705  67.483  21.948  1.00  0.00     0.210 HD
ENDBRANCH  25  26
ENDBRANCH  23  25
ENDBRANCH  22  23
ENDBRANCH   5  22
TORSDOF 8
ENDMDL