MODEL 5
REMARK VINA RESULT: -6.074943382      2.339      3.563
REMARK  7 active torsions:
REMARK  status: ('A' for Active; 'I' for Inactive)
REMARK    1  A    between atoms: N1_1  and  C1_4
REMARK    2  A    between atoms: C2_7  and  C3_8
REMARK    3  A    between atoms: C3_8  and  C4_9
REMARK       I    between atoms: C4_9  and  N3_11
REMARK    4  A    between atoms: N3_11  and  C5_13
REMARK    5  A    between atoms: C5_13  and  C6_14
REMARK    6  A    between atoms: C6_14  and  C7_15
REMARK    7  A    between atoms: C7_15  and  N4_16
ROOT
HETATM    1  C4  UNL     1     -11.460  73.067  20.648  1.00  0.00     0.224 C
HETATM    2  O1  UNL     1     -10.836  73.619  19.724  1.00  0.00    -0.273 OA
HETATM    3  N3  UNL     1     -12.500  72.137  20.427  1.00  0.00    -0.361 N
ATOM      4  H3  UNL     1     -12.968  71.724  21.235  1.00  0.00     0.162 HD
ENDROOT
BRANCH   3   5
HETATM    5  C5  UNL     1     -12.923  71.751  19.116  1.00  0.00     0.124 C
BRANCH   5   6
HETATM    6  C6  UNL     1     -13.996  70.719  19.053  1.00  0.00     0.041 C
BRANCH   6   7
HETATM    7  C7  UNL     1     -14.388  70.102  20.348  1.00  0.00     0.144 C
BRANCH   7   8
HETATM    8  N4  UNL     1     -13.959  68.767  20.576  1.00  0.00    -0.316 N
HETATM    9  C8  UNL     1     -13.815  67.951  19.435  1.00  0.00     0.245 C
HETATM   10  C9  UNL     1     -12.521  67.882  18.772  1.00  0.00     0.243 C
HETATM   11  O2  UNL     1     -12.533  67.201  17.693  1.00  0.00    -0.271 OA
HETATM   12  N5  UNL     1     -11.216  68.405  19.047  1.00  0.00    -0.288 N
HETATM   13  C10 UNL     1     -10.807  68.751  20.392  1.00  0.00     0.317 C
ATOM     14  H5  UNL     1     -10.559  68.535  18.277  1.00  0.00     0.172 HD
HETATM   15  O3  UNL     1      -9.598  69.038  20.558  1.00  0.00    -0.262 OA
HETATM   16  C11 UNL     1     -11.629  68.819  21.617  1.00  0.00     0.328 C
HETATM   17  O4  UNL     1     -11.108  69.070  22.707  1.00  0.00    -0.261 OA
HETATM   18  N6  UNL     1     -13.039  68.603  21.594  1.00  0.00    -0.264 N
ATOM     19  H6  UNL     1     -13.433  68.272  22.474  1.00  0.00     0.190 HD
ENDBRANCH   7   8
ENDBRANCH   6   7
ENDBRANCH   5   6
ENDBRANCH   3   5
BRANCH   1  20
HETATM   20  C3  UNL     1     -11.031  73.452  22.038  1.00  0.00     0.181 C
BRANCH  20  21
HETATM   21  C2  UNL     1      -9.707  72.787  22.301  1.00  0.00     0.121 A
HETATM   22  N2  UNL     1      -8.670  73.246  23.015  1.00  0.00    -0.178 N
HETATM   23  C1  UNL     1      -7.674  72.334  23.012  1.00  0.00     0.691 A
ATOM     24  H2  UNL     1      -8.638  74.148  23.489  1.00  0.00     0.185 HD
HETATM   25  N8  UNL     1      -8.143  71.312  22.274  1.00  0.00    -0.131 N
HETATM   26  N7  UNL     1      -9.377  71.586  21.843  1.00  0.00    -0.274 N
ATOM     27  H8  UNL     1      -7.631  70.453  22.074  1.00  0.00     0.205 HD
ATOM     28  H7  UNL     1      -9.961  70.981  21.265  1.00  0.00     0.189 HD
BRANCH  23  29
HETATM   29  N1  UNL     1      -6.525  72.390  23.571  1.00  0.00    -0.233 N
ATOM     30  H12 UNL     1      -5.858  73.157  23.492  1.00  0.00     0.174 HD
ATOM     31  H11 UNL     1      -6.071  71.708  24.180  1.00  0.00     0.174 HD
ENDBRANCH  23  29
ENDBRANCH  20  21
ENDBRANCH   1  20
TORSDOF 7
ENDMDL