MODEL 2
REMARK VINA RESULT: -7.347864860      2.567      3.081
REMARK  12 active torsions:
REMARK  status: ('A' for Active; 'I' for Inactive)
REMARK    1  A    between atoms: C3_9  and  C4_10
REMARK    2  A    between atoms: C4_10  and  C5_15
REMARK    3  A    between atoms: N4_11  and  O2_13
REMARK    4  A    between atoms: C6_18  and  N6_19
REMARK    5  A    between atoms: C7_24  and  N8_25
REMARK    6  A    between atoms: C8_27  and  O3_28
REMARK    7  A    between atoms: C8_27  and  C11_33
REMARK    8  A    between atoms: O3_28  and  C9_29
REMARK    9  A    between atoms: C9_29  and  C10_30
REMARK   10  A    between atoms: C10_30  and  O4_31
REMARK   11  A    between atoms: C12_39  and  N11_40
REMARK   12  A    between atoms: C13_43  and  O6_44
ROOT
HETATM    1  C5  UNL     1      13.742  14.372   6.000  1.00  0.00     0.117 A
HETATM    2  N5  UNL     1      12.698  13.711   5.549  1.00  0.00    -0.187 N
ATOM      3  H5  UNL     1      12.104  13.262   6.246  1.00  0.00     0.184 HD
HETATM    4  C6  UNL     1      12.335  13.568   4.269  1.00  0.00     0.678 A
HETATM    5  N7  UNL     1      13.085  14.140   3.316  1.00  0.00    -0.174 N
ATOM      6  H7  UNL     1      12.822  14.040   2.336  1.00  0.00     0.186 HD
HETATM    7  C7  UNL     1      14.177  14.843   3.645  1.00  0.00     0.159 A
HETATM    8  C13 UNL     1      14.517  14.966   4.984  1.00  0.00     0.140 A
ENDROOT
BRANCH   7   9
HETATM    9  N8  UNL     1      14.977  15.447   2.643  1.00  0.00    -0.318 N
HETATM   10  C8  UNL     1      15.930  14.926   1.993  1.00  0.00     0.177 C
ATOM     11  H8  UNL     1      14.759  16.418   2.419  1.00  0.00     0.169 HD
BRANCH  10  12
HETATM   12  O3  UNL     1      16.562  15.729   1.059  1.00  0.00    -0.332 OA
BRANCH  12  13
HETATM   13  C9  UNL     1      16.042  16.026  -0.202  1.00  0.00     0.203 C
BRANCH  13  14
HETATM   14  C10 UNL     1      15.238  17.296  -0.110  1.00  0.00     0.191 C
BRANCH  14  15
HETATM   15  O4  UNL     1      15.808  18.104   0.859  1.00  0.00    -0.399 OA
ATOM     16  H4  UNL     1      16.573  18.525   0.485  1.00  0.00     0.209 HD
ENDBRANCH  14  15
ENDBRANCH  13  14
ENDBRANCH  12  13
ENDBRANCH  10  12
BRANCH  10  17
HETATM   17  C11 UNL     1      16.383  13.565   2.174  1.00  0.00     0.152 A
HETATM   18  N9  UNL     1      16.093  12.558   1.296  1.00  0.00    -0.234 N
HETATM   19  O5  UNL     1      16.633  11.445   1.716  1.00  0.00    -0.155 OA
ATOM     20  H9  UNL     1      15.540  12.661   0.444  1.00  0.00     0.197 HD
HETATM   21  N10 UNL     1      17.265  11.644   2.818  1.00  0.00    -0.224 N
HETATM   22  C12 UNL     1      17.140  12.960   3.151  1.00  0.00     0.154 A
ATOM     23  H10 UNL     1      17.773  10.938   3.351  1.00  0.00     0.198 HD
BRANCH  22  24
HETATM   24  N11 UNL     1      17.650  13.503   4.196  1.00  0.00    -0.382 N
ATOM     25 2H11 UNL     1      18.560  13.264   4.592  1.00  0.00     0.157 HD
ATOM     26 1H11 UNL     1      17.243  14.233   4.781  1.00  0.00     0.157 HD
ENDBRANCH  22  24
ENDBRANCH  10  17
ENDBRANCH   7   9
BRANCH   8  27
HETATM   27  O6  UNL     1      15.637  15.685   5.334  1.00  0.00    -0.355 OA
ATOM     28  H6  UNL     1      15.665  16.615   5.143  1.00  0.00     0.218 HD
ENDBRANCH   8  27
BRANCH   4  29
HETATM   29  N6  UNL     1      11.277  12.890   3.931  1.00  0.00    -0.234 N
ATOM     30  H62 UNL     1      10.418  12.996   4.471  1.00  0.00     0.174 HD
ATOM     31  H61 UNL     1      11.283  12.250   3.137  1.00  0.00     0.174 HD
ENDBRANCH   4  29
BRANCH   1  32
HETATM   32  C4  UNL     1      14.106  14.508   7.383  1.00  0.00     0.118 C
HETATM   33  N4  UNL     1      15.320  13.984   7.634  1.00  0.00    -0.265 N
ATOM     34  H4  UNL     1      15.812  13.571   6.841  1.00  0.00     0.194 HD
BRANCH  32  35
HETATM   35  C3  UNL     1      13.447  15.073   8.505  1.00  0.00     0.147 A
HETATM   36  N3  UNL     1      13.707  16.395   8.811  1.00  0.00    -0.290 N
HETATM   37  N2  UNL     1      13.179  17.045   9.805  1.00  0.00    -0.251 N
ATOM     38  H3  UNL     1      14.361  16.899   8.212  1.00  0.00     0.187 HD
HETATM   39  C2  UNL     1      12.317  16.442  10.621  1.00  0.00     0.343 A
ATOM     40  H2  UNL     1      13.426  18.023   9.961  1.00  0.00     0.191 HD
HETATM   41  N1  UNL     1      11.990  15.167  10.423  1.00  0.00    -0.268 N
HETATM   42  O1  UNL     1      11.772  17.025  11.604  1.00  0.00    -0.245 OA
HETATM   43  C1  UNL     1      11.052  14.468  11.290  1.00  0.00     0.165 C
HETATM   44  C14 UNL     1      12.561  14.487   9.358  1.00  0.00     0.281 A
HETATM   45  O7  UNL     1      12.222  13.306   9.224  1.00  0.00    -0.265 OA
ENDBRANCH  32  35
BRANCH  33  46
HETATM   46  O2  UNL     1      15.941  13.948   8.803  1.00  0.00    -0.289 OA
ATOM     47  H2  UNL     1      16.874  13.837   8.947  1.00  0.00     0.244 HD
ENDBRANCH  33  46
ENDBRANCH   1  32
TORSDOF 12
ENDMDL