MODEL 1
REMARK VINA RESULT: -7.481369114      0.000      0.000
REMARK  9 active torsions:
REMARK  status: ('A' for Active; 'I' for Inactive)
REMARK    1  A    between atoms: C2_3  and  N2_4
REMARK    2  A    between atoms: N2_4  and  N3_6
REMARK    3  A    between atoms: N3_6  and  N4_7
REMARK    4  A    between atoms: C3_8  and  S1_9
REMARK    5  A    between atoms: S1_9  and  C4_10
REMARK    6  A    between atoms: C4_10  and  N5_11
REMARK    7  A    between atoms: C5_14  and  C6_15
REMARK    8  A    between atoms: C7_18  and  N7_19
REMARK    9  A    between atoms: C12_39  and  N14_40
ROOT
HETATM    1  N4  UNL     1      10.859  13.621   4.489  1.00  0.00     0.009 N
HETATM    2  C3  UNL     1      11.275  14.324   5.538  1.00  0.00     0.143 A
HETATM    3  C9  UNL     1      10.145  14.561   6.328  1.00  0.00     0.146 A
HETATM    4  N9  UNL     1       9.101  14.006   5.756  1.00  0.00    -0.197 N
ATOM      5  H9  UNL     1       8.144  14.018   6.110  1.00  0.00     0.183 HD
HETATM    6  C10 UNL     1       9.512  13.430   4.638  1.00  0.00     0.710 A
HETATM    7  N10 UNL     1       8.750  12.756   3.811  1.00  0.00    -0.232 N
ATOM      8 1H10 UNL     1       7.746  12.614   3.922  1.00  0.00     0.174 HD
ATOM      9 2H10 UNL     1       9.067  12.312   2.950  1.00  0.00     0.174 HD
ENDROOT
BRANCH   2  10
HETATM   10  S1  UNL     1      12.943  14.869   5.943  1.00  0.00    -0.085 SA
BRANCH  10  11
HETATM   11  C4  UNL     1      13.673  13.715   7.129  1.00  0.00     0.234 C
BRANCH  11  12
HETATM   12  N5  UNL     1      13.644  14.202   8.477  1.00  0.00    -0.232 N
HETATM   13  N6  UNL     1      12.405  14.293   9.007  1.00  0.00    -0.284 N
HETATM   14  C5  UNL     1      12.116  14.503  10.286  1.00  0.00     0.169 A
ATOM     15  H6  UNL     1      11.619  14.190   8.366  1.00  0.00     0.187 HD
HETATM   16  C7  UNL     1      13.155  14.654  11.184  1.00  0.00     0.138 A
HETATM   17  N8  UNL     1      14.403  14.570  10.662  1.00  0.00    -0.291 N
HETATM   18  C8  UNL     1      14.614  14.350   9.357  1.00  0.00     0.343 A
ATOM     19  H8  UNL     1      15.206  14.676  11.282  1.00  0.00     0.172 HD
HETATM   20  O3  UNL     1      15.818  14.290   8.958  1.00  0.00    -0.245 OA
BRANCH  14  21
HETATM   21  C6  UNL     1      10.701  14.518  10.679  1.00  0.00     0.232 C
HETATM   22  O1  UNL     1       9.900  15.254  10.051  1.00  0.00    -0.643 OA
HETATM   23  O2  UNL     1      10.210  13.742  11.715  1.00  0.00    -0.643 OA
ENDBRANCH  14  21
BRANCH  16  24
HETATM   24  N7  UNL     1      12.973  14.829  12.394  1.00  0.00    -0.383 N
ATOM     25  H72 UNL     1      12.557  14.105  12.980  1.00  0.00     0.157 HD
ATOM     26  H71 UNL     1      13.204  15.703  12.866  1.00  0.00     0.157 HD
ENDBRANCH  16  24
ENDBRANCH  11  12
ENDBRANCH  10  11
ENDBRANCH   2  10
BRANCH   1  27
HETATM   27  N3  UNL     1      11.555  13.188   3.451  1.00  0.00    -0.198 NA
BRANCH  27  28
HETATM   28  N2  UNL     1      12.157  12.816   2.541  1.00  0.00    -0.043 N
ATOM     29  H2  UNL     1      11.728  12.776   1.617  1.00  0.00     0.223 HD
BRANCH  28  30
HETATM   30  C2  UNL     1      13.554  12.402   2.733  1.00  0.00     0.727 A
HETATM   31  N1  UNL     1      14.480  12.535   1.792  1.00  0.00    -0.017 N
HETATM   32  C1  UNL     1      14.143  13.231   0.567  1.00  0.00     0.195 C
HETATM   33  C12 UNL     1      15.729  12.029   1.960  1.00  0.00     0.694 A
HETATM   34  N13 UNL     1      15.943  11.392   3.148  1.00  0.00    -0.162 N
HETATM   35  C11 UNL     1      15.019  11.272   4.074  1.00  0.00     0.221 A
ATOM     36  H13 UNL     1      16.864  10.991   3.325  1.00  0.00     0.187 HD
HETATM   37  N11 UNL     1      13.785  11.773   3.907  1.00  0.00    -0.160 N
HETATM   38  N12 UNL     1      15.260  10.614   5.314  1.00  0.00    -0.062 NA
ATOM     39  H11 UNL     1      13.064  11.684   4.624  1.00  0.00     0.187 HD
BRANCH  33  40
HETATM   40  N14 UNL     1      16.641  12.125   1.075  1.00  0.00    -0.234 N
ATOM     41 2H14 UNL     1      17.574  12.471   1.301  1.00  0.00     0.174 HD
ATOM     42 1H14 UNL     1      16.501  11.857   0.101  1.00  0.00     0.174 HD
ENDBRANCH  33  40
ENDBRANCH  28  30
ENDBRANCH  27  28
ENDBRANCH   1  27
TORSDOF 9
ENDMDL