MODEL 5
REMARK VINA RESULT: -6.886713935      2.370      7.289
REMARK  11 active torsions:
REMARK  status: ('A' for Active; 'I' for Inactive)
REMARK    1  A    between atoms: O1_2  and  C2_3
REMARK    2  A    between atoms: C2_3  and  C3_4
REMARK    3  A    between atoms: C3_4  and  O2_5
REMARK    4  A    between atoms: O2_5  and  N1_6
REMARK    5  A    between atoms: C4_7  and  N2_8
REMARK    6  A    between atoms: N2_8  and  C5_10
REMARK    7  A    between atoms: C7_25  and  N9_26
REMARK    8  A    between atoms: C8_31  and  C9_32
REMARK    9  A    between atoms: C9_32  and  O4_34
REMARK   10  A    between atoms: O4_34  and  C11_35
REMARK   11  A    between atoms: C13_41  and  N13_42
ROOT
HETATM    1  N1  UNL     1      13.323  16.542   7.148  1.00  0.00    -0.035 N
HETATM    2  C4  UNL     1      14.470  16.177   6.376  1.00  0.00     0.737 C
HETATM    3  N6  UNL     1      15.681  16.591   6.335  1.00  0.00    -0.128 N
ATOM      4  H6  UNL     1      16.222  16.076   5.640  1.00  0.00     0.205 HD
HETATM    5  N7  UNL     1      16.465  17.545   6.973  1.00  0.00    -0.269 N
ATOM      6  H7  UNL     1      17.434  17.553   6.656  1.00  0.00     0.189 HD
HETATM    7  C6  UNL     1      16.190  18.511   7.975  1.00  0.00     0.164 A
HETATM    8  N8  UNL     1      17.334  19.183   8.197  1.00  0.00    -0.173 N
ATOM      9  H8  UNL     1      18.176  18.942   7.675  1.00  0.00     0.186 HD
HETATM   10  C7  UNL     1      17.366  20.163   9.100  1.00  0.00     0.677 A
HETATM   11  N10 UNL     1      16.262  20.458   9.764  1.00  0.00    -0.191 N
ATOM     12  H10 UNL     1      16.328  21.214  10.446  1.00  0.00     0.184 HD
HETATM   13  C8  UNL     1      15.056  19.864   9.636  1.00  0.00     0.086 A
HETATM   14  C12 UNL     1      15.043  18.854   8.698  1.00  0.00     0.103 A
HETATM   15  N12 UNL     1      13.730  18.338   8.691  1.00  0.00    -0.340 N
ATOM     16  H12 UNL     1      13.308  18.460   9.612  1.00  0.00     0.163 HD
HETATM   17  C13 UNL     1      12.791  17.696   7.811  1.00  0.00     0.432 C
ENDROOT
BRANCH   2  18
HETATM   18  N2  UNL     1      14.260  15.135   5.440  1.00  0.00    -0.016 N
ATOM     19  H2  UNL     1      13.415  15.121   4.869  1.00  0.00     0.203 HD
BRANCH  18  20
HETATM   20  C5  UNL     1      15.141  14.207   5.314  1.00  0.00     0.734 A
HETATM   21  N3  UNL     1      16.073  14.059   4.343  1.00  0.00    -0.108 N
HETATM   22  N4  UNL     1      16.735  12.965   4.646  1.00  0.00    -0.167 N
ATOM     23  H3  UNL     1      16.230  14.670   3.541  1.00  0.00     0.207 HD
HETATM   24  O3  UNL     1      16.302  12.411   5.720  1.00  0.00    -0.126 OA
ATOM     25  H4  UNL     1      17.506  12.597   4.090  1.00  0.00     0.219 HD
HETATM   26  N5  UNL     1      15.314  13.179   6.136  1.00  0.00    -0.068 N
ATOM     27  H5  UNL     1      14.759  13.007   6.975  1.00  0.00     0.216 HD
ENDBRANCH  18  20
ENDBRANCH   2  18
BRANCH   1  28
HETATM   28  O2  UNL     1      12.514  15.471   7.279  1.00  0.00    -0.259 OA
BRANCH  28  29
HETATM   29  C3  UNL     1      12.411  15.046   8.596  1.00  0.00     0.228 C
BRANCH  29  30
HETATM   30  C2  UNL     1      12.872  13.634   8.769  1.00  0.00     0.195 C
BRANCH  30  31
HETATM   31  O1  UNL     1      14.232  13.521   8.928  1.00  0.00    -0.394 OA
HETATM   32  C1  UNL     1      14.816  14.473   9.734  1.00  0.00     0.201 C
ENDBRANCH  30  31
ENDBRANCH  29  30
ENDBRANCH  28  29
ENDBRANCH   1  28
BRANCH  17  33
HETATM   33  N13 UNL     1      12.228  18.629   6.829  1.00  0.00    -0.038 N
ATOM     34 3H13 UNL     1      12.906  18.878   6.109  1.00  0.00     0.279 HD
ATOM     35 2H13 UNL     1      11.532  18.181   6.233  1.00  0.00     0.279 HD
ATOM     36 1H13 UNL     1      11.853  19.452   7.301  1.00  0.00     0.279 HD
ENDBRANCH  17  33
BRANCH  13  37
HETATM   37  C9  UNL     1      13.858  20.213  10.367  1.00  0.00     0.182 C
HETATM   38  C10 UNL     1      14.415  21.180  11.482  1.00  0.00     0.047 C
BRANCH  37  39
HETATM   39  O4  UNL     1      12.966  21.109   9.750  1.00  0.00    -0.295 OA
BRANCH  39  40
HETATM   40  C11 UNL     1      13.172  21.806   8.603  1.00  0.00     0.373 C
HETATM   41  N11 UNL     1      13.797  23.080   8.579  1.00  0.00    -0.032 NA
HETATM   42  O5  UNL     1      12.785  21.280   7.540  1.00  0.00    -0.242 OA
ENDBRANCH  39  40
ENDBRANCH  37  39
ENDBRANCH  13  37
BRANCH  10  43
HETATM   43  N9  UNL     1      18.490  20.787   9.286  1.00  0.00    -0.234 N
ATOM     44  H92 UNL     1      19.383  20.305   9.377  1.00  0.00     0.174 HD
ATOM     45  H91 UNL     1      18.471  21.806   9.344  1.00  0.00     0.174 HD
ENDBRANCH  10  43
TORSDOF 11
ENDMDL