MODEL 4
REMARK VINA RESULT: -5.645247712      2.830      4.820
REMARK  11 active torsions:
REMARK  status: ('A' for Active; 'I' for Inactive)
REMARK    1  A    between atoms: O1_2  and  C2_3
REMARK    2  A    between atoms: C2_3  and  O2_4
REMARK    3  A    between atoms: C2_3  and  N1_6
REMARK    4  A    between atoms: N1_6  and  O3_7
REMARK    5  A    between atoms: N1_6  and  N2_9
REMARK    6  A    between atoms: N3_10  and  O4_11
REMARK    7  A    between atoms: O4_11  and  N4_12
REMARK    8  A    between atoms: C3_16  and  N6_17
REMARK    9  A    between atoms: C4_23  and  C6_25
REMARK   10  A    between atoms: C9_29  and  O6_30
REMARK   11  A    between atoms: C11_34  and  C12_35
ROOT
HETATM    1  N2  UNL     1      13.436  15.666   6.956  1.00  0.00    -0.147 N
HETATM    2  N3  UNL     1      14.271  15.271   5.986  1.00  0.00    -0.053 N
HETATM    3  N5  UNL     1      14.166  13.972   5.544  1.00  0.00    -0.037 NA
HETATM    4  C3  UNL     1      12.808  13.484   5.566  1.00  0.00     0.398 C
HETATM    5  N7  UNL     1      11.838  14.529   5.692  1.00  0.00    -0.348 N
ATOM      6  H7  UNL     1      11.058  14.620   5.039  1.00  0.00     0.159 HD
HETATM    7  C4  UNL     1      12.018  15.438   6.779  1.00  0.00     0.189 C
HETATM    8  C5  UNL     1      11.429  16.782   6.409  1.00  0.00     0.074 C
ENDROOT
BRANCH   7   9
HETATM    9  C6  UNL     1      11.443  15.028   8.068  1.00  0.00     0.125 A
HETATM   10  O5  UNL     1      12.244  14.993   9.144  1.00  0.00    -0.311 OA
HETATM   11  C7  UNL     1      11.884  14.659  10.343  1.00  0.00     0.086 A
HETATM   12  C8  UNL     1      12.820  14.639  11.504  1.00  0.00     0.079 C
HETATM   13  C9  UNL     1      10.580  14.296  10.602  1.00  0.00     0.147 A
HETATM   14  C10 UNL     1       9.702  14.303   9.563  1.00  0.00     0.227 A
HETATM   15  O7  UNL     1       8.512  13.975   9.784  1.00  0.00    -0.284 OA
HETATM   16  C11 UNL     1      10.153  14.678   8.269  1.00  0.00     0.127 A
BRANCH  13  17
HETATM   17  O6  UNL     1      10.188  13.934  11.904  1.00  0.00    -0.355 OA
ATOM     18  H6  UNL     1      10.740  13.370  12.433  1.00  0.00     0.218 HD
ENDBRANCH  13  17
BRANCH  16  19
HETATM   19  C12 UNL     1       9.154  14.602   7.262  1.00  0.00     0.216 C
HETATM   20  O8  UNL     1       8.925  13.703   6.465  1.00  0.00    -0.644 OA
HETATM   21  O9  UNL     1       8.251  15.696   7.101  1.00  0.00    -0.644 OA
ENDBRANCH  16  19
ENDBRANCH   7   9
BRANCH   1  22
HETATM   22  N1  UNL     1      13.899  16.253   8.061  1.00  0.00    -0.012 NA
BRANCH  22  23
HETATM   23  C2  UNL     1      15.315  15.897   8.285  1.00  0.00     0.390 C
BRANCH  23  24
HETATM   24  O1  UNL     1      15.465  15.387   9.551  1.00  0.00    -0.351 OA
HETATM   25  C1  UNL     1      15.538  14.021   9.643  1.00  0.00     0.206 C
ENDBRANCH  23  24
BRANCH  23  26
HETATM   26  O2  UNL     1      16.177  16.945   8.013  1.00  0.00    -0.356 OA
ATOM     27  H2  UNL     1      16.216  17.588   8.710  1.00  0.00     0.214 HD
ENDBRANCH  23  26
ENDBRANCH  22  23
BRANCH  22  28
HETATM   28  O3  UNL     1      13.891  17.606   8.120  1.00  0.00    -0.188 OA
HETATM   29  S1  UNL     1      13.193  18.238   9.529  1.00  0.00     0.120 SA
ENDBRANCH  22  28
ENDBRANCH   1  22
BRANCH   2  30
HETATM   30  O4  UNL     1      14.434  16.100   4.943  1.00  0.00    -0.127 OA
BRANCH  30  31
HETATM   31  N4  UNL     1      15.034  17.263   5.270  1.00  0.00    -0.283 N
ATOM     32  H42 UNL     1      15.853  17.614   4.775  1.00  0.00     0.186 HD
ATOM     33  H41 UNL     1      14.588  17.744   6.051  1.00  0.00     0.186 HD
ENDBRANCH  30  31
ENDBRANCH   2  30
BRANCH   4  34
HETATM   34  N6  UNL     1      12.582  12.827   4.293  1.00  0.00    -0.043 N
ATOM     35  H63 UNL     1      12.707  11.815   4.333  1.00  0.00     0.278 HD
ATOM     36  H62 UNL     1      11.603  12.822   4.009  1.00  0.00     0.278 HD
ATOM     37  H61 UNL     1      13.195  13.282   3.616  1.00  0.00     0.278 HD
ENDBRANCH   4  34
TORSDOF 11
ENDMDL