MODEL 1
REMARK VINA RESULT: -7.717491840      0.000      0.000
REMARK  8 active torsions:
REMARK  status: ('A' for Active; 'I' for Inactive)
REMARK    1  A    between atoms: C2_2  and  O1_3
REMARK    2  A    between atoms: C2_2  and  C3_5
REMARK    3  A    between atoms: C2_2  and  C4_14
REMARK    4  A    between atoms: N6_17  and  C5_18
REMARK    5  A    between atoms: C5_18  and  C6_19
REMARK       I    between atoms: C6_19  and  N7_21
REMARK       I    between atoms: N7_21  and  C7_22
REMARK    6  A    between atoms: N7_21  and  C8_31
REMARK       I    between atoms: C7_22  and  N8_23
REMARK       I    between atoms: C7_22  and  N9_27
REMARK    7  A    between atoms: N8_23  and  O3_25
REMARK    8  A    between atoms: N9_27  and  O4_29
ROOT
HETATM    1  C5  UNL     1      12.243  15.894   6.097  1.00  0.00     0.255 C
ENDROOT
BRANCH   1   2
HETATM    2  N6  UNL     1      12.468  14.855   5.058  1.00  0.00    -0.261 N
HETATM    3  N5  UNL     1      13.353  13.958   5.182  1.00  0.00    -0.290 N
HETATM    4  C4  UNL     1      13.502  13.031   4.249  1.00  0.00     0.112 A
ATOM      5  H5  UNL     1      13.954  13.948   6.005  1.00  0.00     0.187 HD
HETATM    6  S1  UNL     1      12.296  13.486   3.131  1.00  0.00    -0.035 SA
HETATM    7  C10 UNL     1      11.691  14.847   3.968  1.00  0.00     0.161 A
HETATM    8  N13 UNL     1      10.729  15.683   3.658  1.00  0.00    -0.378 N
ATOM      9 2H13 UNL     1      10.367  16.496   4.157  1.00  0.00     0.158 HD
ATOM     10 1H13 UNL     1      10.137  15.677   2.827  1.00  0.00     0.158 HD
BRANCH   4  11
HETATM   11  C2  UNL     1      14.447  11.864   4.171  1.00  0.00     0.165 C
HETATM   12  C1  UNL     1      14.339  11.092   5.484  1.00  0.00     0.062 C
BRANCH  11  13
HETATM   13  O1  UNL     1      13.988  10.991   3.160  1.00  0.00    -0.375 OA
ATOM     14  H1  UNL     1      14.607  11.065   2.444  1.00  0.00     0.211 HD
ENDBRANCH  11  13
BRANCH  11  15
HETATM   15  C3  UNL     1      15.835  12.269   3.886  1.00  0.00     0.154 A
HETATM   16  N1  UNL     1      16.587  13.202   4.481  1.00  0.00    -0.269 N
HETATM   17  N2  UNL     1      17.795  13.242   3.900  1.00  0.00    -0.227 N
ATOM     18  H1  UNL     1      16.288  13.791   5.258  1.00  0.00     0.190 HD
HETATM   19  N3  UNL     1      17.782  12.347   2.961  1.00  0.00    -0.227 N
ATOM     20  H2  UNL     1      18.571  13.856   4.147  1.00  0.00     0.210 HD
HETATM   21  N4  UNL     1      16.608  11.736   2.924  1.00  0.00    -0.269 N
ATOM     22  H3  UNL     1      18.565  12.142   2.340  1.00  0.00     0.210 HD
ATOM     23  H4  UNL     1      16.338  10.992   2.279  1.00  0.00     0.190 HD
ENDBRANCH  11  15
ENDBRANCH   4  11
ENDBRANCH   1   2
BRANCH   1  24
HETATM   24  C6  UNL     1      11.283  15.361   7.091  1.00  0.00     0.264 C
HETATM   25  O2  UNL     1      10.072  15.494   6.833  1.00  0.00    -0.270 OA
HETATM   26  N7  UNL     1      11.700  14.740   8.266  1.00  0.00    -0.089 N
HETATM   27  C7  UNL     1      10.735  14.216   9.175  1.00  0.00     0.732 C
HETATM   28  N8  UNL     1       9.463  14.307   8.877  1.00  0.00    -0.096 N
HETATM   29  N9  UNL     1      11.092  13.603  10.416  1.00  0.00    -0.096 N
ATOM     30  H8  UNL     1       9.224  14.755   7.993  1.00  0.00     0.213 HD
ATOM     31  H9  UNL     1      11.918  13.013  10.513  1.00  0.00     0.213 HD
BRANCH  26  32
HETATM   32  C8  UNL     1      13.072  14.569   8.652  1.00  0.00     0.199 A
HETATM   33  N10 UNL     1      13.861  13.491   8.517  1.00  0.00    -0.221 N
HETATM   34  O5  UNL     1      15.038  13.758   9.012  1.00  0.00    -0.153 OA
ATOM     35  H10 UNL     1      13.583  12.605   8.095  1.00  0.00     0.198 HD
HETATM   36  N11 UNL     1      15.072  14.956   9.468  1.00  0.00    -0.222 N
HETATM   37  C9  UNL     1      13.871  15.526   9.277  1.00  0.00     0.168 A
ATOM     38  H11 UNL     1      15.879  15.402   9.904  1.00  0.00     0.198 HD
HETATM   39  N12 UNL     1      13.525  16.735   9.601  1.00  0.00    -0.381 N
ATOM     40 2H12 UNL     1      12.613  17.168   9.456  1.00  0.00     0.157 HD
ATOM     41 1H12 UNL     1      14.110  17.435  10.058  1.00  0.00     0.157 HD
ENDBRANCH  26  32
BRANCH  28  42
HETATM   42  O3  UNL     1       8.444  13.861   9.636  1.00  0.00    -0.276 OA
ATOM     43  H3  UNL     1       7.646  13.460   9.312  1.00  0.00     0.245 HD
ENDBRANCH  28  42
BRANCH  29  44
HETATM   44  O4  UNL     1      10.253  13.861  11.462  1.00  0.00    -0.276 OA
ATOM     45  H4  UNL     1      10.179  14.775  11.710  1.00  0.00     0.245 HD
ENDBRANCH  29  44
ENDBRANCH   1  24
TORSDOF 8
ENDMDL