MODEL 4
REMARK VINA RESULT: -7.367289559      1.510      2.475
REMARK  10 active torsions:
REMARK  status: ('A' for Active; 'I' for Inactive)
REMARK    1  A    between atoms: N2_4  and  N3_6
REMARK    2  A    between atoms: N3_6  and  C3_8
REMARK    3  A    between atoms: C4_11  and  N5_12
REMARK    4  A    between atoms: N5_12  and  C5_14
REMARK    5  A    between atoms: C6_15  and  C7_16
REMARK    6  A    between atoms: C7_16  and  N6_17
REMARK    7  A    between atoms: C7_16  and  O1_21
REMARK    8  A    between atoms: C8_24  and  S1_25
REMARK    9  A    between atoms: C10_35  and  N9_36
REMARK   10  A    between atoms: N9_36  and  O7_38
ROOT
HETATM    1  N5  UNL     1      14.678  14.864   6.569  1.00  0.00    -0.183 N
ATOM      2  H5  UNL     1      15.375  15.556   6.293  1.00  0.00     0.184 HD
ENDROOT
BRANCH   1   3
HETATM    3  C4  UNL     1      14.386  13.810   5.647  1.00  0.00     0.696 A
HETATM    4  N4  UNL     1      15.023  12.715   5.706  1.00  0.00    -0.185 N
HETATM    5  C3  UNL     1      14.852  11.559   4.856  1.00  0.00     0.336 A
ATOM      6  H4  UNL     1      15.735  12.642   6.433  1.00  0.00     0.181 HD
HETATM    7  N10 UNL     1      13.817  11.817   3.894  1.00  0.00    -0.183 N
HETATM    8  C10 UNL     1      13.127  12.889   3.769  1.00  0.00     0.717 A
ATOM      9  H10 UNL     1      13.608  11.064   3.239  1.00  0.00     0.181 HD
HETATM   10  N8  UNL     1      13.395  13.951   4.662  1.00  0.00    -0.021 N
ATOM     11  H8  UNL     1      12.867  14.821   4.592  1.00  0.00     0.203 HD
BRANCH   5  12
HETATM   12  N3  UNL     1      16.073  11.211   4.181  1.00  0.00    -0.293 N
ATOM     13  H3  UNL     1      16.788  10.696   4.694  1.00  0.00     0.184 HD
BRANCH  12  14
HETATM   14  N2  UNL     1      16.314  11.551   2.851  1.00  0.00    -0.293 N
HETATM   15  C2  UNL     1      17.228  12.410   2.522  1.00  0.00     0.103 C
HETATM   16  C1  UNL     1      18.079  13.092   3.500  1.00  0.00     0.086 C
HETATM   17  N1  UNL     1      17.403  12.694   1.141  1.00  0.00    -0.087 NA
ATOM     18  H2  UNL     1      15.756  11.113   2.117  1.00  0.00     0.187 HD
ENDBRANCH  12  14
ENDBRANCH   5  12
BRANCH   8  19
HETATM   19  N9  UNL     1      12.135  13.007   2.772  1.00  0.00    -0.095 N
HETATM   20  C11 UNL     1      12.515  13.313   1.425  1.00  0.00     0.205 C
BRANCH  19  21
HETATM   21  O7  UNL     1      10.850  12.832   3.089  1.00  0.00    -0.274 OA
ATOM     22  H7  UNL     1      10.172  13.182   2.524  1.00  0.00     0.245 HD
ENDBRANCH  19  21
ENDBRANCH   8  19
ENDBRANCH   1   3
BRANCH   1  23
HETATM   23  C5  UNL     1      14.074  15.011   7.822  1.00  0.00     0.151 A
HETATM   24  C6  UNL     1      12.904  15.669   8.052  1.00  0.00     0.144 A
HETATM   25  O2  UNL     1      12.396  15.738   9.300  1.00  0.00    -0.279 OA
HETATM   26  C8  UNL     1      12.988  15.193  10.325  1.00  0.00     0.271 A
HETATM   27  N7  UNL     1      14.147  14.530  10.158  1.00  0.00    -0.290 N
HETATM   28  C9  UNL     1      14.697  14.430   8.935  1.00  0.00     0.278 A
ATOM     29  H7  UNL     1      14.609  14.103  10.961  1.00  0.00     0.172 HD
HETATM   30  O6  UNL     1      15.776  13.812   8.794  1.00  0.00    -0.266 OA
BRANCH  24  31
HETATM   31  C7  UNL     1      12.156  16.321   6.972  1.00  0.00     0.377 C
BRANCH  31  32
HETATM   32  N6  UNL     1      11.319  17.407   7.377  1.00  0.00    -0.047 N
ATOM     33  H63 UNL     1      10.564  17.064   7.972  1.00  0.00     0.277 HD
ATOM     34  H62 UNL     1      11.814  18.003   8.041  1.00  0.00     0.277 HD
ATOM     35  H61 UNL     1      10.938  17.970   6.618  1.00  0.00     0.277 HD
ENDBRANCH  31  32
BRANCH  31  36
HETATM   36  O1  UNL     1      11.401  15.356   6.290  1.00  0.00    -0.365 OA
ATOM     37  H1  UNL     1      11.449  14.534   6.763  1.00  0.00     0.212 HD
ENDBRANCH  31  36
ENDBRANCH  24  31
BRANCH  26  38
HETATM   38  S1  UNL     1      12.233  15.348  11.903  1.00  0.00     0.180 S
HETATM   39  O3  UNL     1      11.805  16.784  12.079  1.00  0.00    -0.589 OA
HETATM   40  O4  UNL     1      13.207  15.009  12.999  1.00  0.00    -0.589 OA
HETATM   41  O5  UNL     1      10.922  14.310  12.051  1.00  0.00    -0.589 OA
ENDBRANCH  26  38
ENDBRANCH   1  23
TORSDOF 10
ENDMDL