MODEL 1
REMARK VINA RESULT: -7.335892350      0.000      0.000
REMARK  11 active torsions:
REMARK  status: ('A' for Active; 'I' for Inactive)
REMARK       I    between atoms: C2_2  and  N1_4
REMARK    1  A    between atoms: N1_4  and  C3_6
REMARK    2  A    between atoms: C4_7  and  C5_8
REMARK    3  A    between atoms: C5_8  and  O2_9
REMARK    4  A    between atoms: C5_8  and  N2_11
REMARK    5  A    between atoms: N2_11  and  O3_13
REMARK    6  A    between atoms: C6_15  and  C7_16
REMARK    7  A    between atoms: N5_21  and  C8_22
REMARK    8  A    between atoms: C8_22  and  S1_23
REMARK    9  A    between atoms: S1_23  and  C9_24
REMARK   10  A    between atoms: C10_27  and  N7_28
REMARK   11  A    between atoms: C11_33  and  N9_34
ROOT
HETATM    1  C7  UNL     1      12.495  13.286   4.930  1.00  0.00     0.167 A
HETATM    2  N3  UNL     1      13.132  12.173   4.622  1.00  0.00    -0.267 N
ATOM      3  H3  UNL     1      13.493  11.509   5.308  1.00  0.00     0.190 HD
HETATM    4  N4  UNL     1      13.243  12.026   3.333  1.00  0.00    -0.224 N
ATOM      5  H4  UNL     1      13.695  11.244   2.860  1.00  0.00     0.210 HD
HETATM    6  N5  UNL     1      12.663  13.073   2.732  1.00  0.00    -0.208 N
HETATM    7  N11 UNL     1      12.209  13.836   3.698  1.00  0.00    -0.264 N
ATOM      8  H11 UNL     1      11.713  14.716   3.557  1.00  0.00     0.190 HD
ENDROOT
BRANCH   1   9
HETATM    9  C6  UNL     1      12.124  13.899   6.201  1.00  0.00     0.113 A
HETATM   10  C4  UNL     1      12.709  14.016   7.413  1.00  0.00     0.094 A
HETATM   11  C3  UNL     1      11.851  14.802   8.252  1.00  0.00     0.141 A
HETATM   12  N13 UNL     1      10.812  15.107   7.512  1.00  0.00    -0.280 N
HETATM   13  N12 UNL     1      10.948  14.596   6.321  1.00  0.00    -0.293 N
HETATM   14  C12 UNL     1       9.629  15.874   7.862  1.00  0.00     0.179 C
ATOM     15  H12 UNL     1      10.265  14.701   5.570  1.00  0.00     0.187 HD
BRANCH  10  16
HETATM   16  C5  UNL     1      14.001  13.506   7.827  1.00  0.00     0.176 C
BRANCH  16  17
HETATM   17  O2  UNL     1      14.014  12.938   9.123  1.00  0.00    -0.344 OA
ATOM     18  H2  UNL     1      14.607  13.364   9.730  1.00  0.00     0.219 HD
ENDBRANCH  16  17
BRANCH  16  19
HETATM   19  N2  UNL     1      15.209  14.027   7.361  1.00  0.00    -0.247 N
ATOM     20  H2  UNL     1      15.654  14.848   7.773  1.00  0.00     0.196 HD
BRANCH  19  21
HETATM   21  O3  UNL     1      15.743  13.344   6.309  1.00  0.00    -0.288 OA
ATOM     22  H3  UNL     1      16.161  13.896   5.659  1.00  0.00     0.244 HD
ENDBRANCH  19  21
ENDBRANCH  16  19
ENDBRANCH  10  16
BRANCH  11  23
HETATM   23  N1  UNL     1      12.193  15.081   9.589  1.00  0.00    -0.311 N
HETATM   24  C2  UNL     1      11.803  14.579  10.811  1.00  0.00     0.219 C
HETATM   25  C1  UNL     1      12.456  15.139  12.073  1.00  0.00     0.117 C
HETATM   26  O1  UNL     1      10.974  13.712  11.049  1.00  0.00    -0.274 OA
ATOM     27  H1  UNL     1      12.886  15.825   9.672  1.00  0.00     0.170 HD
ENDBRANCH  11  23
ENDBRANCH   1   9
BRANCH   6  28
HETATM   28  C8  UNL     1      12.581  13.269   1.299  1.00  0.00     0.253 C
BRANCH  28  29
HETATM   29  S1  UNL     1      14.121  13.846   0.581  1.00  0.00    -0.069 SA
BRANCH  29  30
HETATM   30  C9  UNL     1      15.384  13.990   1.820  1.00  0.00     0.176 A
HETATM   31  N6  UNL     1      16.434  13.159   1.894  1.00  0.00    -0.170 N
HETATM   32  C10 UNL     1      17.384  13.297   2.855  1.00  0.00     0.692 A
ATOM     33  H6  UNL     1      16.521  12.405   1.213  1.00  0.00     0.186 HD
HETATM   34  N8  UNL     1      17.260  14.295   3.750  1.00  0.00    -0.023 N
HETATM   35  C11 UNL     1      16.227  15.135   3.698  1.00  0.00     0.692 A
ATOM     36  H8  UNL     1      17.966  14.409   4.478  1.00  0.00     0.203 HD
HETATM   37  N10 UNL     1      15.299  14.971   2.730  1.00  0.00    -0.170 N
ATOM     38  H10 UNL     1      14.509  15.615   2.691  1.00  0.00     0.186 HD
BRANCH  32  39
HETATM   39  N7  UNL     1      18.405  12.525   2.966  1.00  0.00    -0.234 N
ATOM     40  H72 UNL     1      19.252  12.792   2.464  1.00  0.00     0.174 HD
ATOM     41  H71 UNL     1      18.413  11.671   3.524  1.00  0.00     0.174 HD
ENDBRANCH  32  39
BRANCH  35  42
HETATM   42  N9  UNL     1      16.118  16.090   4.564  1.00  0.00    -0.234 N
ATOM     43  H92 UNL     1      16.948  16.548   4.942  1.00  0.00     0.174 HD
ATOM     44  H91 UNL     1      15.197  16.398   4.877  1.00  0.00     0.174 HD
ENDBRANCH  35  42
ENDBRANCH  29  30
ENDBRANCH  28  29
ENDBRANCH   6  28
TORSDOF 11
ENDMDL