MODEL 5
REMARK VINA RESULT: -6.922873343      3.663      8.032
REMARK  9 active torsions:
REMARK  status: ('A' for Active; 'I' for Inactive)
REMARK    1  A    between atoms: N1_1  and  C1_4
REMARK    2  A    between atoms: C2_7  and  C3_8
REMARK       I    between atoms: C3_8  and  N3_10
REMARK    3  A    between atoms: N3_10  and  C4_12
REMARK    4  A    between atoms: C4_12  and  O2_13
REMARK    5  A    between atoms: C7_20  and  N5_21
REMARK    6  A    between atoms: C9_23  and  C10_24
REMARK    7  A    between atoms: C10_24  and  O4_25
REMARK    8  A    between atoms: C11_31  and  N8_32
REMARK    9  A    between atoms: N8_32  and  C12_34
ROOT
HETATM    1  C3  UNL     1      15.371  17.805   5.985  1.00  0.00     0.273 C
HETATM    2  O1  UNL     1      16.537  17.860   6.393  1.00  0.00    -0.266 OA
HETATM    3  N3  UNL     1      14.359  18.436   6.715  1.00  0.00    -0.320 N
ATOM      4  H3  UNL     1      13.408  18.373   6.353  1.00  0.00     0.166 HD
ENDROOT
BRANCH   1   5
HETATM    5  C2  UNL     1      15.076  17.068   4.725  1.00  0.00     0.137 A
HETATM    6  N2  UNL     1      14.892  17.684   3.577  1.00  0.00    -0.330 N
HETATM    7  C1  UNL     1      14.631  16.974   2.484  1.00  0.00     0.144 A
ATOM      8  H2  UNL     1      14.949  18.701   3.527  1.00  0.00     0.168 HD
HETATM    9  S1  UNL     1      14.635  15.379   3.038  1.00  0.00    -0.034 SA
HETATM   10  C11 UNL     1      14.982  15.695   4.712  1.00  0.00     0.126 A
BRANCH   7  11
HETATM   11  N1  UNL     1      14.423  17.434   1.261  1.00  0.00    -0.380 N
ATOM     12  H12 UNL     1      13.558  17.461   0.722  1.00  0.00     0.158 HD
ATOM     13  H11 UNL     1      15.109  17.850   0.633  1.00  0.00     0.158 HD
ENDBRANCH   7  11
BRANCH  10  14
HETATM   14  N8  UNL     1      15.118  14.720   5.737  1.00  0.00    -0.182 N
ATOM     15  H8  UNL     1      15.545  13.815   5.543  1.00  0.00     0.185 HD
BRANCH  14  16
HETATM   16  C12 UNL     1      14.643  15.039   7.049  1.00  0.00     0.696 A
HETATM   17  N9  UNL     1      13.385  15.120   7.258  1.00  0.00    -0.207 N
HETATM   18  C13 UNL     1      12.749  15.427   8.502  1.00  0.00     0.280 A
ATOM     19  H9  UNL     1      12.775  14.951   6.459  1.00  0.00     0.179 HD
HETATM   20  N10 UNL     1      13.722  15.640   9.531  1.00  0.00    -0.303 N
HETATM   21  N11 UNL     1      15.074  15.544   9.273  1.00  0.00    -0.231 N
ATOM     22  H10 UNL     1      13.409  15.867  10.475  1.00  0.00     0.183 HD
HETATM   23  N12 UNL     1      15.520  15.267   8.135  1.00  0.00    -0.118 N
ATOM     24  H11 UNL     1      15.733  15.705  10.035  1.00  0.00     0.208 HD
ATOM     25  H12 UNL     1      16.528  15.206   7.990  1.00  0.00     0.207 HD
ENDBRANCH  14  16
ENDBRANCH  10  14
ENDBRANCH   1   5
BRANCH   3  26
HETATM   26  C4  UNL     1      14.557  19.168   7.939  1.00  0.00     0.182 C
HETATM   27  C5  UNL     1      13.243  19.414   8.604  1.00  0.00     0.186 C
HETATM   28  N4  UNL     1      13.335  20.758   9.112  1.00  0.00    -0.354 N
HETATM   29  C6  UNL     1      14.274  21.441   8.311  1.00  0.00     0.247 C
ATOM     30  H4  UNL     1      12.819  21.144   9.902  1.00  0.00     0.162 HD
HETATM   31  O3  UNL     1      14.279  22.689   8.077  1.00  0.00    -0.271 OA
HETATM   32  C7  UNL     1      15.265  20.469   7.777  1.00  0.00     0.257 C
BRANCH  26  33
HETATM   33  O2  UNL     1      15.318  18.341   8.784  1.00  0.00    -0.367 OA
ATOM     34  H2  UNL     1      15.832  18.917   9.339  1.00  0.00     0.212 HD
ENDBRANCH  26  33
BRANCH  32  35
HETATM   35  N5  UNL     1      16.427  20.548   8.653  1.00  0.00    -0.268 N
HETATM   36  C8  UNL     1      16.447  21.346   9.752  1.00  0.00     0.141 A
HETATM   37  C9  UNL     1      17.668  21.213  10.379  1.00  0.00     0.067 A
HETATM   38  N6  UNL     1      18.354  20.331   9.632  1.00  0.00    -0.287 N
HETATM   39  N7  UNL     1      17.581  19.950   8.602  1.00  0.00    -0.240 N
ATOM     40  H6  UNL     1      19.303  20.005   9.815  1.00  0.00     0.188 HD
ATOM     41  H7  UNL     1      17.859  19.284   7.882  1.00  0.00     0.208 HD
BRANCH  37  42
HETATM   42  C10 UNL     1      18.076  21.925  11.620  1.00  0.00     0.224 C
BRANCH  42  43
HETATM   43  O4  UNL     1      19.272  22.594  11.441  1.00  0.00    -0.395 OA
ATOM     44  H4  UNL     1      19.193  23.509  11.681  1.00  0.00     0.209 HD
ENDBRANCH  42  43
ENDBRANCH  37  42
ENDBRANCH  32  35
ENDBRANCH   3  26
TORSDOF 9
ENDMDL