MODEL 3
REMARK VINA RESULT: -6.204885121      3.582      8.031
REMARK  12 active torsions:
REMARK  status: ('A' for Active; 'I' for Inactive)
REMARK    1  A    between atoms: O1_2  and  C2_3
REMARK    2  A    between atoms: C2_3  and  C3_5
REMARK    3  A    between atoms: C4_6  and  O3_7
REMARK    4  A    between atoms: O3_7  and  C5_8
REMARK    5  A    between atoms: C8_12  and  N1_13
REMARK       I    between atoms: N1_13  and  C9_15
REMARK    6  A    between atoms: N4_20  and  N5_21
REMARK    7  A    between atoms: N5_21  and  N6_22
REMARK    8  A    between atoms: C10_26  and  C11_27
REMARK    9  A    between atoms: C11_27  and  O7_28
REMARK   10  A    between atoms: C11_27  and  C12_30
REMARK   11  A    between atoms: C12_30  and  N7_31
REMARK   12  A    between atoms: C13_35  and  O8_36
ROOT
HETATM    1  C3  UNL     1      15.161  16.384   2.327  1.00  0.00     0.151 A
HETATM    2  C4  UNL     1      14.992  15.354   3.262  1.00  0.00     0.213 A
HETATM    3  O6  UNL     1      15.811  14.330   3.131  1.00  0.00    -0.285 OA
HETATM    4  C10 UNL     1      16.734  14.237   2.210  1.00  0.00     0.123 A
HETATM    5  C13 UNL     1      16.934  15.227   1.272  1.00  0.00     0.150 A
HETATM    6  C14 UNL     1      16.120  16.337   1.334  1.00  0.00     0.228 A
HETATM    7  O9  UNL     1      16.248  17.285   0.504  1.00  0.00    -0.284 OA
ENDROOT
BRANCH   2   8
HETATM    8  O3  UNL     1      14.028  15.494   4.187  1.00  0.00    -0.264 OA
BRANCH   8   9
HETATM    9  C5  UNL     1      13.923  15.211   5.502  1.00  0.00     0.216 A
HETATM   10  C6  UNL     1      13.427  14.087   5.979  1.00  0.00     0.107 A
HETATM   11  C7  UNL     1      12.921  12.991   5.074  1.00  0.00     0.081 C
HETATM   12  O4  UNL     1      13.377  13.927   7.364  1.00  0.00    -0.279 OA
HETATM   13  C8  UNL     1      13.814  14.868   8.278  1.00  0.00     0.248 A
HETATM   14  N3  UNL     1      14.293  15.958   7.785  1.00  0.00    -0.242 N
HETATM   15  N4  UNL     1      14.386  16.211   6.429  1.00  0.00    -0.151 N
ATOM     16  H3  UNL     1      14.624  16.674   8.432  1.00  0.00     0.192 HD
BRANCH  13  17
HETATM   17  N1  UNL     1      13.747  14.668   9.681  1.00  0.00    -0.275 N
HETATM   18  C9  UNL     1      14.875  14.249  10.430  1.00  0.00     0.335 C
HETATM   19  N2  UNL     1      14.821  14.046  11.822  1.00  0.00    -0.040 NA
HETATM   20  O5  UNL     1      15.949  14.052   9.825  1.00  0.00    -0.251 OA
ATOM     21  H1  UNL     1      12.864  14.832  10.164  1.00  0.00     0.173 HD
ENDBRANCH  13  17
BRANCH  15  22
HETATM   22  N5  UNL     1      14.923  17.426   6.011  1.00  0.00    -0.004 NA
BRANCH  22  23
HETATM   23  N6  UNL     1      16.282  17.308   5.682  1.00  0.00    -0.327 N
ATOM     24  H62 UNL     1      16.849  16.496   5.927  1.00  0.00     0.174 HD
ATOM     25  H61 UNL     1      16.620  18.125   5.174  1.00  0.00     0.174 HD
ENDBRANCH  22  23
ENDBRANCH  15  22
ENDBRANCH   8   9
ENDBRANCH   2   8
BRANCH   1  26
HETATM   26  C2  UNL     1      14.289  17.531   2.423  1.00  0.00     0.302 C
HETATM   27  O2  UNL     1      13.194  17.526   1.779  1.00  0.00    -0.259 OA
BRANCH  26  28
HETATM   28  O1  UNL     1      14.562  18.653   3.179  1.00  0.00    -0.322 OA
HETATM   29  C1  UNL     1      13.649  19.730   3.272  1.00  0.00     0.213 C
ENDBRANCH  26  28
ENDBRANCH   1  26
BRANCH   4  30
HETATM   30  C11 UNL     1      17.634  13.038   2.121  1.00  0.00     0.203 C
BRANCH  30  31
HETATM   31  O7  UNL     1      18.323  12.826   3.311  1.00  0.00    -0.387 OA
ATOM     32  H7  UNL     1      19.192  13.211   3.286  1.00  0.00     0.210 HD
ENDBRANCH  30  31
BRANCH  30  33
HETATM   33  C12 UNL     1      16.815  11.810   1.743  1.00  0.00     0.268 C
BRANCH  33  34
HETATM   34  N7  UNL     1      16.046  11.405   2.903  1.00  0.00    -0.076 N
ATOM     35  H73 UNL     1      16.406  11.800   3.771  1.00  0.00     0.274 HD
ATOM     36  H72 UNL     1      15.121  11.833   2.930  1.00  0.00     0.274 HD
ATOM     37  H71 UNL     1      16.008  10.385   2.919  1.00  0.00     0.274 HD
ENDBRANCH  33  34
ENDBRANCH  30  33
ENDBRANCH   4  30
BRANCH   5  38
HETATM   38  O8  UNL     1      17.921  15.117   0.295  1.00  0.00    -0.355 OA
ATOM     39  H8  UNL     1      18.653  15.721   0.257  1.00  0.00     0.218 HD
ENDBRANCH   5  38
TORSDOF 12
ENDMDL