MODEL 3
REMARK VINA RESULT: -7.565490007      0.989      1.670
REMARK  9 active torsions:
REMARK  status: ('A' for Active; 'I' for Inactive)
REMARK    1  A    between atoms: C2_3  and  N2_4
REMARK    2  A    between atoms: N3_6  and  C3_8
REMARK    3  A    between atoms: C4_11  and  N5_12
REMARK    4  A    between atoms: N6_14  and  O1_15
REMARK    5  A    between atoms: C6_17  and  O2_18
REMARK    6  A    between atoms: O2_18  and  N7_19
REMARK    7  A    between atoms: C7_24  and  C8_25
REMARK    8  A    between atoms: C8_25  and  C9_26
REMARK       I    between atoms: C9_26  and  N9_28
REMARK       I    between atoms: N9_28  and  C10_30
REMARK    9  A    between atoms: C11_33  and  O5_34
ROOT
HETATM    1  C3  UNL     1      12.101  15.293   6.376  1.00  0.00     0.135 A
HETATM    2  N4  UNL     1      12.379  15.236   7.638  1.00  0.00    -0.320 N
ATOM      3  H4  UNL     1      13.351  15.162   7.938  1.00  0.00     0.169 HD
HETATM    4  C4  UNL     1      11.419  15.274   8.539  1.00  0.00     0.166 A
HETATM    5  S1  UNL     1      10.021  15.399   7.557  1.00  0.00    -0.053 SA
HETATM    6  C7  UNL     1      10.795  15.392   6.009  1.00  0.00     0.040 A
ENDROOT
BRANCH   1   7
HETATM    7  N3  UNL     1      13.186  15.252   5.387  1.00  0.00    -0.283 N
HETATM    8  N2  UNL     1      13.836  14.205   5.252  1.00  0.00    -0.280 N
ATOM      9  H2  UNL     1      13.532  13.453   5.872  1.00  0.00     0.188 HD
ATOM     10  H3  UNL     1      13.401  16.072   4.820  1.00  0.00     0.188 HD
BRANCH   8  11
HETATM   11  C2  UNL     1      14.891  13.850   4.431  1.00  0.00     0.178 A
HETATM   12  N1  UNL     1      15.227  12.575   4.128  1.00  0.00    -0.285 N
HETATM   13  C1  UNL     1      14.563  11.370   4.592  1.00  0.00     0.163 C
HETATM   14  C12 UNL     1      16.287  12.658   3.311  1.00  0.00     0.329 A
HETATM   15  N11 UNL     1      16.613  13.952   3.103  1.00  0.00    -0.286 N
HETATM   16  O6  UNL     1      16.874  11.645   2.824  1.00  0.00    -0.246 OA
HETATM   17  C11 UNL     1      15.753  14.728   3.795  1.00  0.00     0.191 A
ATOM     18  H11 UNL     1      17.380  14.286   2.521  1.00  0.00     0.172 HD
BRANCH  17  19
HETATM   19  O5  UNL     1      15.755  16.123   3.842  1.00  0.00    -0.343 OA
ATOM     20  H5  UNL     1      16.181  16.731   3.248  1.00  0.00     0.219 HD
ENDBRANCH  17  19
ENDBRANCH   8  11
ENDBRANCH   1   7
BRANCH   6  21
HETATM   21  C8  UNL     1      10.140  15.459   4.666  1.00  0.00     0.153 C
BRANCH  21  22
HETATM   22  C9  UNL     1       9.543  14.142   4.312  1.00  0.00     0.230 C
HETATM   23  O3  UNL     1      10.264  13.156   3.980  1.00  0.00    -0.273 OA
HETATM   24  N9  UNL     1       8.142  13.987   4.350  1.00  0.00    -0.281 N
HETATM   25  C10 UNL     1       7.567  12.726   4.037  1.00  0.00     0.335 C
ATOM     26  H9  UNL     1       7.545  14.776   4.600  1.00  0.00     0.173 HD
HETATM   27  N10 UNL     1       6.156  12.531   4.085  1.00  0.00    -0.040 NA
HETATM   28  O4  UNL     1       8.316  11.781   3.718  1.00  0.00    -0.251 OA
ENDBRANCH  21  22
ENDBRANCH   6  21
BRANCH   4  29
HETATM   29  N5  UNL     1      11.520  15.221   9.972  1.00  0.00    -0.255 N
HETATM   30  C5  UNL     1      10.686  15.914  10.897  1.00  0.00     0.272 C
HETATM   31  N6  UNL     1      10.992  15.341  12.202  1.00  0.00    -0.132 NA
HETATM   32  C6  UNL     1      12.382  14.950  12.045  1.00  0.00     0.366 C
HETATM   33  N8  UNL     1      12.475  14.485  10.655  1.00  0.00    -0.083 NA
BRANCH  31  34
HETATM   34  O1  UNL     1      10.207  14.235  12.395  1.00  0.00    -0.308 OA
ATOM     35  H1  UNL     1       9.725  14.338  13.208  1.00  0.00     0.237 HD
ENDBRANCH  31  34
BRANCH  32  36
HETATM   36  O2  UNL     1      13.178  16.087  12.114  1.00  0.00    -0.246 OA
BRANCH  36  37
HETATM   37  N7  UNL     1      14.453  15.808  12.453  1.00  0.00    -0.308 N
ATOM     38  H72 UNL     1      14.737  14.910  12.842  1.00  0.00     0.184 HD
ATOM     39  H71 UNL     1      15.085  16.588  12.276  1.00  0.00     0.184 HD
ENDBRANCH  36  37
ENDBRANCH  32  36
ENDBRANCH   4  29
TORSDOF 9
ENDMDL