MODEL 2
REMARK VINA RESULT: -7.218076809      1.126      1.142
REMARK  12 active torsions:
REMARK  status: ('A' for Active; 'I' for Inactive)
REMARK    1  A    between atoms: O1_2  and  C2_3
REMARK    2  A    between atoms: C2_3  and  C3_5
REMARK    3  A    between atoms: C3_5  and  N1_6
REMARK    4  A    between atoms: C5_9  and  C6_10
REMARK    5  A    between atoms: C6_10  and  N3_11
REMARK    6  A    between atoms: C6_10  and  N4_15
REMARK    7  A    between atoms: N5_19  and  N6_20
REMARK       I    between atoms: N6_20  and  C7_22
REMARK    8  A    between atoms: C7_22  and  C8_24
REMARK    9  A    between atoms: C12_31  and  N8_32
REMARK   10  A    between atoms: N8_32  and  N9_34
REMARK   11  A    between atoms: N9_34  and  C13_36
REMARK   12  A    between atoms: C14_39  and  O5_40
ROOT
HETATM    1  N1  UNL     1      10.413  14.563   7.395  1.00  0.00    -0.156 N
HETATM    2  C4  UNL     1       9.760  14.344   6.234  1.00  0.00     0.164 A
HETATM    3  N2  UNL     1       8.354  14.533   6.055  1.00  0.00    -0.080 NA
HETATM    4  C5  UNL     1      10.673  13.920   5.289  1.00  0.00     0.151 A
HETATM    5  N5  UNL     1      11.909  13.878   5.889  1.00  0.00    -0.079 N
HETATM    6  C12 UNL     1      11.724  14.271   7.158  1.00  0.00     0.723 A
ENDROOT
BRANCH   6   7
HETATM    7  N8  UNL     1      12.601  14.362   8.069  1.00  0.00    -0.116 N
ATOM      8  H8  UNL     1      12.985  13.456   8.337  1.00  0.00     0.206 HD
BRANCH   7   9
HETATM    9  N9  UNL     1      13.138  15.379   8.761  1.00  0.00    -0.116 N
ATOM     10  H9  UNL     1      13.057  16.330   8.402  1.00  0.00     0.206 HD
BRANCH   9  11
HETATM   11  C13 UNL     1      13.767  15.169   9.892  1.00  0.00     0.715 A
HETATM   12  N10 UNL     1      14.540  14.107  10.208  1.00  0.00    -0.151 N
HETATM   13  C14 UNL     1      15.004  14.261  11.461  1.00  0.00     0.251 A
ATOM     14  H10 UNL     1      14.739  13.317   9.595  1.00  0.00     0.188 HD
HETATM   15  N11 UNL     1      14.531  15.407  11.933  1.00  0.00    -0.250 N
HETATM   16  N12 UNL     1      13.781  15.960  10.983  1.00  0.00    -0.128 N
ATOM     17  H11 UNL     1      14.711  15.795  12.859  1.00  0.00     0.191 HD
ATOM     18  H12 UNL     1      13.289  16.849  11.068  1.00  0.00     0.205 HD
BRANCH  13  19
HETATM   19  O5  UNL     1      15.832  13.385  12.150  1.00  0.00    -0.331 OA
ATOM     20  H5  UNL     1      16.525  13.619  12.757  1.00  0.00     0.221 HD
ENDBRANCH  13  19
ENDBRANCH   9  11
ENDBRANCH   7   9
ENDBRANCH   6   7
BRANCH   1  21
HETATM   21  C3  UNL     1       9.810  15.009   8.631  1.00  0.00     0.260 C
BRANCH  21  22
HETATM   22  C2  UNL     1       9.810  13.884   9.624  1.00  0.00     0.277 C
HETATM   23  O2  UNL     1       8.933  12.987   9.539  1.00  0.00    -0.263 OA
BRANCH  22  24
HETATM   24  O1  UNL     1      10.734  13.786  10.634  1.00  0.00    -0.325 OA
HETATM   25  C1  UNL     1      10.645  14.595  11.816  1.00  0.00     0.213 C
ENDBRANCH  22  24
ENDBRANCH  21  22
ENDBRANCH   1  21
BRANCH   5  26
HETATM   26  N6  UNL     1      13.057  13.463   5.243  1.00  0.00    -0.243 N
HETATM   27  C7  UNL     1      13.703  12.241   5.165  1.00  0.00     0.289 C
HETATM   28  O3  UNL     1      13.354  11.182   5.702  1.00  0.00    -0.264 OA
ATOM     29  H6  UNL     1      13.522  14.205   4.720  1.00  0.00     0.191 HD
BRANCH  27  30
HETATM   30  C8  UNL     1      14.960  12.154   4.353  1.00  0.00     0.126 A
HETATM   31  C9  UNL     1      16.115  12.848   4.504  1.00  0.00     0.071 A
HETATM   32  C10 UNL     1      16.972  12.423   3.527  1.00  0.00     0.075 A
HETATM   33  C11 UNL     1      18.358  12.878   3.270  1.00  0.00     0.079 C
HETATM   34  O4  UNL     1      16.343  11.516   2.832  1.00  0.00    -0.242 OA
HETATM   35  N7  UNL     1      15.139  11.337   3.306  1.00  0.00    -0.256 N
ATOM     36  H7  UNL     1      14.449  10.682   2.940  1.00  0.00     0.195 HD
ENDBRANCH  27  30
ENDBRANCH   5  26
BRANCH   4  37
HETATM   37  C6  UNL     1      10.306  13.574   3.883  1.00  0.00     0.433 C
BRANCH  37  38
HETATM   38  N3  UNL     1       9.397  12.482   3.754  1.00  0.00    -0.045 N
ATOM     39  H33 UNL     1       9.868  11.603   3.971  1.00  0.00     0.277 HD
ATOM     40  H32 UNL     1       8.709  12.504   4.506  1.00  0.00     0.277 HD
ATOM     41  H31 UNL     1       8.930  12.419   2.849  1.00  0.00     0.277 HD
ENDBRANCH  37  38
BRANCH  37  42
HETATM   42  N4  UNL     1       9.827  14.771   3.183  1.00  0.00    -0.045 N
ATOM     43  H43 UNL     1       9.006  15.175   3.634  1.00  0.00     0.277 HD
ATOM     44  H42 UNL     1      10.463  15.561   3.296  1.00  0.00     0.277 HD
ATOM     45  H41 UNL     1       9.657  14.554   2.200  1.00  0.00     0.277 HD
ENDBRANCH  37  42
ENDBRANCH   4  37
TORSDOF 12
ENDMDL