MODEL 4
REMARK VINA RESULT: -8.057754743      3.494      9.172
REMARK  12 active torsions:
REMARK  status: ('A' for Active; 'I' for Inactive)
REMARK    1  A    between atoms: N1_1  and  N2_4
REMARK    2  A    between atoms: N2_4  and  C1_6
REMARK    3  A    between atoms: C1_6  and  N3_7
REMARK    4  A    between atoms: C1_6  and  C6_30
REMARK       I    between atoms: N3_7  and  C2_9
REMARK       I    between atoms: C2_9  and  N4_11
REMARK    5  A    between atoms: N4_11  and  N5_13
REMARK    6  A    between atoms: N5_13  and  C3_15
REMARK    7  A    between atoms: C4_21  and  C5_22
REMARK       I    between atoms: C5_22  and  N8_24
REMARK    8  A    between atoms: N8_24  and  N9_26
REMARK    9  A    between atoms: N9_26  and  O4_28
REMARK   10  A    between atoms: N12_35  and  C7_36
REMARK   11  A    between atoms: C10_39  and  O5_40
REMARK   12  A    between atoms: C12_43  and  O6_44
ROOT
HETATM    1  C1  UNL     1      13.979  15.732  12.141  1.00  0.00     0.171 C
ENDROOT
BRANCH   1   2
HETATM    2  N2  UNL     1      14.284  14.896  13.132  1.00  0.00    -0.289 N
ATOM      3  H2  UNL     1      13.906  15.053  14.067  1.00  0.00     0.188 HD
BRANCH   2   4
HETATM    4  N1  UNL     1      15.108  13.820  12.894  1.00  0.00    -0.344 N
ATOM      5  H12 UNL     1      15.814  13.889  12.161  1.00  0.00     0.176 HD
ATOM      6  H11 UNL     1      15.007  12.969  13.447  1.00  0.00     0.176 HD
ENDBRANCH   2   4
ENDBRANCH   1   2
BRANCH   1   7
HETATM    7  N3  UNL     1      14.322  17.058  12.371  1.00  0.00    -0.289 N
HETATM    8  C2  UNL     1      13.880  18.146  11.605  1.00  0.00     0.340 C
HETATM    9  O1  UNL     1      13.108  18.033  10.612  1.00  0.00    -0.245 OA
HETATM   10  N4  UNL     1      14.341  19.468  11.976  1.00  0.00    -0.250 N
ATOM     11  H4  UNL     1      14.967  19.600  12.771  1.00  0.00     0.192 HD
ATOM     12  H3  UNL     1      14.941  17.256  13.158  1.00  0.00     0.172 HD
BRANCH  10  13
HETATM   13  N5  UNL     1      13.915  20.539  11.232  1.00  0.00    -0.278 N
ATOM     14  H5  UNL     1      13.236  21.169  11.659  1.00  0.00     0.189 HD
BRANCH  13  15
HETATM   15  C3  UNL     1      14.308  20.809  10.037  1.00  0.00     0.176 A
HETATM   16  N6  UNL     1      13.527  20.720   8.926  1.00  0.00    -0.222 N
HETATM   17  O2  UNL     1      14.248  21.064   7.921  1.00  0.00    -0.155 OA
ATOM     18  H6  UNL     1      12.549  20.432   8.897  1.00  0.00     0.198 HD
HETATM   19  N7  UNL     1      15.443  21.375   8.269  1.00  0.00    -0.232 N
HETATM   20  C4  UNL     1      15.543  21.228   9.641  1.00  0.00     0.172 A
ATOM     21  H7  UNL     1      16.190  21.678   7.644  1.00  0.00     0.197 HD
BRANCH  20  22
HETATM   22  C5  UNL     1      16.752  21.491  10.398  1.00  0.00     0.293 C
HETATM   23  O3  UNL     1      16.775  21.181  11.617  1.00  0.00    -0.264 OA
HETATM   24  N8  UNL     1      17.884  22.067   9.844  1.00  0.00    -0.245 N
ATOM     25  H8  UNL     1      17.872  22.321   8.856  1.00  0.00     0.192 HD
BRANCH  24  26
HETATM   26  N9  UNL     1      19.055  22.317  10.598  1.00  0.00    -0.207 N
ATOM     27  H9  UNL     1      19.964  22.199  10.149  1.00  0.00     0.215 HD
BRANCH  26  28
HETATM   28  O4  UNL     1      19.019  22.673  11.779  1.00  0.00    -0.274 OA
ATOM     29  H4  UNL     1      19.167  22.069  12.497  1.00  0.00     0.246 HD
ENDBRANCH  26  28
ENDBRANCH  24  26
ENDBRANCH  20  22
ENDBRANCH  13  15
ENDBRANCH  10  13
ENDBRANCH   1   7
BRANCH   1  30
HETATM   30  C6  UNL     1      13.342  15.198  10.975  1.00  0.00     0.184 A
HETATM   31  N10 UNL     1      12.070  14.677  10.902  1.00  0.00    -0.265 N
HETATM   32  N11 UNL     1      11.876  14.243   9.671  1.00  0.00    -0.219 N
ATOM     33  H10 UNL     1      11.396  14.634  11.666  1.00  0.00     0.190 HD
HETATM   34  N12 UNL     1      12.951  14.453   8.942  1.00  0.00    -0.178 N
ATOM     35  H11 UNL     1      11.017  13.808   9.333  1.00  0.00     0.210 HD
HETATM   36  N13 UNL     1      13.818  15.029   9.750  1.00  0.00    -0.258 N
ATOM     37  H13 UNL     1      14.754  15.313   9.464  1.00  0.00     0.191 HD
BRANCH  34  38
HETATM   38  C7  UNL     1      13.214  14.162   7.580  1.00  0.00     0.109 A
HETATM   39  C8  UNL     1      12.169  14.198   6.686  1.00  0.00     0.039 A
HETATM   40  C9  UNL     1      12.438  13.913   5.367  1.00  0.00     0.039 A
HETATM   41  C10 UNL     1      13.711  13.598   4.945  1.00  0.00     0.068 A
HETATM   42  C11 UNL     1      14.744  13.568   5.853  1.00  0.00     0.075 A
HETATM   43  C12 UNL     1      14.491  13.850   7.177  1.00  0.00     0.098 A
BRANCH  41  44
HETATM   44  O5  UNL     1      13.946  13.312   3.582  1.00  0.00    -0.361 OA
ATOM     45  H5  UNL     1      14.512  12.586   3.345  1.00  0.00     0.217 HD
ENDBRANCH  41  44
BRANCH  43  46
HETATM   46  O6  UNL     1      15.539  13.820   8.106  1.00  0.00    -0.358 OA
ATOM     47  H6  UNL     1      16.260  14.435   8.036  1.00  0.00     0.217 HD
ENDBRANCH  43  46
ENDBRANCH  34  38
ENDBRANCH   1  30
TORSDOF 12
ENDMDL