MODEL 5
REMARK VINA RESULT: -6.691732934      1.206      1.544
REMARK  11 active torsions:
REMARK  status: ('A' for Active; 'I' for Inactive)
REMARK    1  A    between atoms: C2_3  and  N2_4
REMARK    2  A    between atoms: C3_5  and  N3_6
REMARK    3  A    between atoms: C5_13  and  N6_14
REMARK    4  A    between atoms: N6_14  and  C6_16
REMARK    5  A    between atoms: C6_16  and  O1_17
REMARK    6  A    between atoms: C6_16  and  C7_19
REMARK    7  A    between atoms: C7_19  and  N7_20
REMARK    8  A    between atoms: C7_19  and  C8_24
REMARK    9  A    between atoms: C8_24  and  O2_25
REMARK   10  A    between atoms: C8_24  and  O3_27
REMARK   11  A    between atoms: C13_37  and  N9_38
ROOT
HETATM    1  N2  UNL     1      12.083  14.118   6.973  1.00  0.00     0.062 N
HETATM    2  C3  UNL     1      11.257  14.518   5.989  1.00  0.00     0.701 A
HETATM    3  N4  UNL     1      11.372  14.079   4.729  1.00  0.00    -0.176 N
ATOM      4  H4  UNL     1      10.724  14.409   4.013  1.00  0.00     0.185 HD
HETATM    5  C4  UNL     1      12.365  13.184   4.398  1.00  0.00     0.164 A
HETATM    6  N5  UNL     1      12.429  12.711   3.069  1.00  0.00    -0.080 NA
HETATM    7  C5  UNL     1      13.218  12.753   5.347  1.00  0.00     0.146 A
HETATM    8  C9  UNL     1      13.050  13.248   6.660  1.00  0.00     0.314 A
HETATM    9  O4  UNL     1      13.818  12.869   7.561  1.00  0.00    -0.264 OA
ENDROOT
BRANCH   1  10
HETATM   10  C2  UNL     1      11.911  14.622   8.300  1.00  0.00     0.713 A
HETATM   11  N1  UNL     1      12.374  15.825   8.627  1.00  0.00    -0.164 N
HETATM   12  C1  UNL     1      13.057  16.637   7.646  1.00  0.00     0.177 C
HETATM   13  C14 UNL     1      12.236  16.350   9.870  1.00  0.00     0.183 A
HETATM   14  C11 UNL     1      11.586  15.595  10.826  1.00  0.00     0.089 A
HETATM   15  O8  UNL     1      12.606  17.492  10.405  1.00  0.00    -0.270 OA
HETATM   16  C10 UNL     1      11.102  14.348  10.500  1.00  0.00     0.274 A
HETATM   17  C12 UNL     1      11.609  16.392  11.966  1.00  0.00     0.084 A
HETATM   18  N8  UNL     1      11.279  13.893   9.235  1.00  0.00    -0.154 N
HETATM   19  O5  UNL     1      10.521  13.675  11.361  1.00  0.00    -0.267 OA
ATOM     20  H8  UNL     1      10.923  12.970   8.987  1.00  0.00     0.187 HD
HETATM   21  C13 UNL     1      12.255  17.563  11.650  1.00  0.00     0.217 A
BRANCH  21  22
HETATM   22  N9  UNL     1      12.481  18.633  12.543  1.00  0.00    -0.090 N
HETATM   23  O6  UNL     1      11.536  19.384  12.832  1.00  0.00    -0.530 OA
HETATM   24  O7  UNL     1      13.700  18.894  13.118  1.00  0.00    -0.530 OA
ENDBRANCH  21  22
ENDBRANCH   1  10
BRANCH   2  25
HETATM   25  N3  UNL     1      10.326  15.367   6.327  1.00  0.00    -0.233 N
ATOM     26  H32 UNL     1      10.543  16.198   6.877  1.00  0.00     0.174 HD
ATOM     27  H31 UNL     1       9.381  15.149   6.011  1.00  0.00     0.174 HD
ENDBRANCH   2  25
BRANCH   7  28
HETATM   28  N6  UNL     1      14.282  11.867   5.125  1.00  0.00    -0.332 N
ATOM     29  H6  UNL     1      14.025  10.880   5.087  1.00  0.00     0.168 HD
BRANCH  28  30
HETATM   30  C6  UNL     1      15.659  12.137   4.944  1.00  0.00     0.152 C
BRANCH  30  31
HETATM   31  O1  UNL     1      16.189  13.071   5.840  1.00  0.00    -0.348 OA
ATOM     32  H1  UNL     1      16.051  13.977   5.592  1.00  0.00     0.219 HD
ENDBRANCH  30  31
BRANCH  30  33
HETATM   33  C7  UNL     1      16.123  12.246   3.551  1.00  0.00     0.311 C
BRANCH  33  34
HETATM   34  N7  UNL     1      15.353  11.448   2.612  1.00  0.00    -0.063 N
ATOM     35  H73 UNL     1      15.070  10.566   3.038  1.00  0.00     0.275 HD
ATOM     36  H72 UNL     1      14.435  11.864   2.454  1.00  0.00     0.275 HD
ATOM     37  H71 UNL     1      15.828  11.282   1.724  1.00  0.00     0.275 HD
ENDBRANCH  33  34
BRANCH  33  38
HETATM   38  C8  UNL     1      16.382  13.621   3.020  1.00  0.00     0.292 C
BRANCH  38  39
HETATM   39  O2  UNL     1      17.481  14.165   3.705  1.00  0.00    -0.369 OA
ATOM     40  H2  UNL     1      18.110  13.472   3.867  1.00  0.00     0.212 HD
ENDBRANCH  38  39
BRANCH  38  41
HETATM   41  O3  UNL     1      15.312  14.492   3.318  1.00  0.00    -0.369 OA
ATOM     42  H3  UNL     1      15.033  14.968   2.545  1.00  0.00     0.212 HD
ENDBRANCH  38  41
ENDBRANCH  33  38
ENDBRANCH  30  33
ENDBRANCH  28  30
ENDBRANCH   7  28
TORSDOF 11
ENDMDL