MODEL 2
REMARK VINA RESULT: -7.059091868      0.867      1.245
REMARK  10 active torsions:
REMARK  status: ('A' for Active; 'I' for Inactive)
REMARK    1  A    between atoms: O1_2  and  C2_3
REMARK       I    between atoms: C2_3  and  N1_5
REMARK    2  A    between atoms: N1_5  and  C4_7
REMARK    3  A    between atoms: C5_8  and  N2_9
REMARK    4  A    between atoms: C5_8  and  C9_19
REMARK       I    between atoms: N2_9  and  C6_11
REMARK    5  A    between atoms: C6_11  and  C7_13
REMARK    6  A    between atoms: C7_13  and  N3_15
REMARK    7  A    between atoms: C10_21  and  S1_22
REMARK    8  A    between atoms: S1_22  and  C11_23
REMARK    9  A    between atoms: C12_30  and  O5_31
REMARK   10  A    between atoms: C12_30  and  C13_33
ROOT
HETATM    1  C9  UNL     1      13.257  15.785   8.633  1.00  0.00     0.242 C
HETATM    2  O4  UNL     1      12.845  15.341   7.383  1.00  0.00    -0.314 OA
HETATM    3  C10 UNL     1      13.995  14.724   6.843  1.00  0.00     0.184 C
HETATM    4  N8  UNL     1      14.692  14.227   7.799  1.00  0.00    -0.327 N
ATOM      5  H8  UNL     1      15.574  13.727   7.689  1.00  0.00     0.165 HD
HETATM    6  C12 UNL     1      14.029  14.490   9.053  1.00  0.00     0.215 C
ENDROOT
BRANCH   1   7
HETATM    7  C5  UNL     1      12.283  16.166   9.612  1.00  0.00     0.062 C
HETATM    8  C4  UNL     1      12.419  17.056  10.540  1.00  0.00     0.123 C
BRANCH   8   9
HETATM    9  N1  UNL     1      13.309  18.009  10.975  1.00  0.00    -0.306 N
HETATM   10  C2  UNL     1      13.833  19.144  10.402  1.00  0.00     0.366 C
HETATM   11  O2  UNL     1      13.464  19.660   9.343  1.00  0.00    -0.238 OA
HETATM   12  C3  UNL     1      13.907  17.714  12.342  1.00  0.00     0.161 C
BRANCH  10  13
HETATM   13  O1  UNL     1      14.909  19.871  11.014  1.00  0.00    -0.309 OA
HETATM   14  C1  UNL     1      15.558  20.925  10.312  1.00  0.00     0.215 C
ENDBRANCH  10  13
ENDBRANCH   8   9
BRANCH   7  15
HETATM   15  N2  UNL     1      11.034  15.429   9.668  1.00  0.00    -0.325 N
HETATM   16  C6  UNL     1      10.824  14.544  10.730  1.00  0.00     0.252 C
HETATM   17  O3  UNL     1      11.673  14.345  11.660  1.00  0.00    -0.271 OA
ATOM     18  H2  UNL     1      10.323  15.554   8.947  1.00  0.00     0.168 HD
BRANCH  16  19
HETATM   19  C7  UNL     1       9.564  13.739  10.869  1.00  0.00     0.271 C
HETATM   20  C8  UNL     1       8.423  14.656  10.496  1.00  0.00     0.050 C
BRANCH  19  21
HETATM   21  N3  UNL     1       9.574  12.622   9.981  1.00  0.00    -0.067 N
ATOM     22  H33 UNL     1      10.230  11.903  10.288  1.00  0.00     0.275 HD
ATOM     23  H32 UNL     1       8.712  12.081  10.046  1.00  0.00     0.275 HD
ATOM     24  H31 UNL     1       9.761  12.920   9.023  1.00  0.00     0.275 HD
ENDBRANCH  19  21
ENDBRANCH  16  19
ENDBRANCH   7  15
ENDBRANCH   1   7
BRANCH   6  25
HETATM   25  O5  UNL     1      13.232  13.431   9.316  1.00  0.00    -0.364 OA
ATOM     26  H5  UNL     1      13.429  12.658   8.799  1.00  0.00     0.213 HD
ENDBRANCH   6  25
BRANCH   6  27
HETATM   27  C13 UNL     1      15.000  14.835  10.154  1.00  0.00     0.327 A
HETATM   28  N9  UNL     1      14.550  14.439  11.439  1.00  0.00    -0.281 N
HETATM   29  N10 UNL     1      15.424  13.552  11.502  1.00  0.00    -0.207 N
ATOM     30  H9  UNL     1      13.806  14.754  12.063  1.00  0.00     0.185 HD
HETATM   31  O6  UNL     1      15.954  13.828  10.286  1.00  0.00    -0.233 OA
ATOM     32  H10 UNL     1      15.658  12.862  12.217  1.00  0.00     0.215 HD
ENDBRANCH   6  27
BRANCH   3  33
HETATM   33  S1  UNL     1      14.442  14.630   5.098  1.00  0.00    -0.046 SA
BRANCH  33  34
HETATM   34  C11 UNL     1      14.390  12.928   4.544  1.00  0.00     0.276 C
HETATM   35  N4  UNL     1      15.679  12.338   4.336  1.00  0.00    -0.094 NA
HETATM   36  N5  UNL     1      15.393  10.968   4.358  1.00  0.00    -0.019 NA
HETATM   37  N6  UNL     1      14.207  10.785   5.039  1.00  0.00    -0.019 NA
HETATM   38  N7  UNL     1      13.760  12.039   5.470  1.00  0.00    -0.094 NA
ENDBRANCH  33  34
ENDBRANCH   3  33
TORSDOF 10
ENDMDL