MODEL 5
REMARK VINA RESULT: -6.743900195      2.084      3.043
REMARK  8 active torsions:
REMARK  status: ('A' for Active; 'I' for Inactive)
REMARK    1  A    between atoms: N2_3  and  C2_4
REMARK    2  A    between atoms: N2_3  and  C7_18
REMARK    3  A    between atoms: C11_28  and  N10_29
REMARK    4  A    between atoms: N10_29  and  C12_31
REMARK    5  A    between atoms: C12_31  and  N11_32
REMARK    6  A    between atoms: C12_31  and  C14_37
REMARK    7  A    between atoms: N11_32  and  O1_33
REMARK    8  A    between atoms: O1_33  and  C13_34
ROOT
HETATM    1  N1  UNL     1      13.404  17.400   5.624  1.00  0.00    -0.172 NA
HETATM    2  C1  UNL     1      12.928  16.353   5.354  1.00  0.00     0.186 C
HETATM    3  N2  UNL     1      12.389  15.115   5.003  1.00  0.00    -0.260 N
ENDROOT
BRANCH   3   4
HETATM    4  C2  UNL     1      13.332  14.178   4.460  1.00  0.00     0.134 A
HETATM    5  C3  UNL     1      13.013  12.908   4.079  1.00  0.00     0.139 A
HETATM    6  N3  UNL     1      13.951  12.062   3.602  1.00  0.00    -0.346 N
HETATM    7  C4  UNL     1      15.226  12.533   3.519  1.00  0.00     0.148 A
ATOM      8  H3  UNL     1      13.714  11.112   3.317  1.00  0.00     0.167 HD
HETATM    9  C5  UNL     1      15.566  13.804   3.896  1.00  0.00     0.163 A
HETATM   10  N7  UNL     1      16.265  11.683   3.025  1.00  0.00    -0.358 N
HETATM   11  N4  UNL     1      14.604  14.634   4.371  1.00  0.00    -0.323 N
HETATM   12  N5  UNL     1      16.917  14.225   3.785  1.00  0.00    -0.285 N
ATOM     13  H4  UNL     1      14.835  15.585   4.657  1.00  0.00     0.169 HD
HETATM   14  N6  UNL     1      17.861  13.464   3.110  1.00  0.00    -0.120 NA
ATOM     15  H5  UNL     1      17.201  15.108   4.210  1.00  0.00     0.184 HD
HETATM   16  C6  UNL     1      17.628  12.039   3.329  1.00  0.00     0.257 C
ATOM     17  H7  UNL     1      16.049  10.852   2.475  1.00  0.00     0.162 HD
ENDBRANCH   3   4
BRANCH   3  18
HETATM   18  C7  UNL     1      11.012  14.825   5.175  1.00  0.00     0.156 C
HETATM   19  C8  UNL     1      10.198  15.914   4.520  1.00  0.00     0.261 C
HETATM   20  N8  UNL     1       8.785  15.693   4.568  1.00  0.00    -0.068 N
HETATM   21  C9  UNL     1       8.374  14.722   5.547  1.00  0.00     0.286 C
ATOM     22  H82 UNL     1       8.290  16.574   4.708  1.00  0.00     0.277 HD
ATOM     23  H81 UNL     1       8.432  15.441   3.645  1.00  0.00     0.277 HD
HETATM   24  C10 UNL     1       9.212  15.038   6.776  1.00  0.00     0.030 C
HETATM   25  N9  UNL     1       8.636  15.562   7.723  1.00  0.00    -0.403 N
HETATM   26  C11 UNL     1      10.593  14.649   6.656  1.00  0.00     0.151 C
ATOM     27  H92 UNL     1       7.658  15.837   7.807  1.00  0.00     0.155 HD
ATOM     28  H91 UNL     1       9.198  15.775   8.547  1.00  0.00     0.155 HD
BRANCH  26  29
HETATM   29  N10 UNL     1      11.615  15.048   7.518  1.00  0.00    -0.385 N
ATOM     30  H10 UNL     1      12.236  15.797   7.212  1.00  0.00     0.156 HD
BRANCH  29  31
HETATM   31  C12 UNL     1      11.840  14.477   8.783  1.00  0.00     0.283 C
BRANCH  31  32
HETATM   32  N11 UNL     1      11.362  15.316   9.883  1.00  0.00    -0.056 NA
BRANCH  32  33
HETATM   33  O1  UNL     1      10.067  15.024  10.235  1.00  0.00    -0.189 OA
BRANCH  33  34
HETATM   34  C13 UNL     1       9.714  13.699  10.575  1.00  0.00     0.391 C
HETATM   35  N12 UNL     1       8.827  12.945   9.771  1.00  0.00    -0.031 NA
HETATM   36  O2  UNL     1      10.246  13.254  11.631  1.00  0.00    -0.241 OA
ENDBRANCH  33  34
ENDBRANCH  32  33
ENDBRANCH  31  32
BRANCH  31  37
HETATM   37  C14 UNL     1      13.169  13.959   9.105  1.00  0.00     0.237 C
HETATM   38  O3  UNL     1      13.537  12.880   8.570  1.00  0.00    -0.281 OA
HETATM   39  S1  UNL     1      14.338  14.735  10.204  1.00  0.00    -0.008 SA
ENDBRANCH  31  37
ENDBRANCH  29  31
ENDBRANCH  26  29
ENDBRANCH   3  18
TORSDOF 8
ENDMDL