MODEL 4
REMARK VINA RESULT: -7.709532268      4.288      7.714
REMARK  10 active torsions:
REMARK  status: ('A' for Active; 'I' for Inactive)
REMARK    1  A    between atoms: C2_2  and  N1_3
REMARK    2  A    between atoms: C2_2  and  C14_42
REMARK    3  A    between atoms: N1_3  and  C3_5
REMARK    4  A    between atoms: C3_5  and  C4_6
REMARK    5  A    between atoms: C3_5  and  C8_20
REMARK       I    between atoms: C4_6  and  N2_8
REMARK    6  A    between atoms: N7_22  and  C10_23
REMARK    7  A    between atoms: C12_28  and  N10_29
REMARK    8  A    between atoms: C13_34  and  N12_35
REMARK    9  A    between atoms: C14_42  and  N15_43
REMARK   10  A    between atoms: C14_42  and  O2_47
ROOT
HETATM    1  C3  UNL     1      11.595  14.583   8.914  1.00  0.00     0.229 C
ENDROOT
BRANCH   1   2
HETATM    2  N1  UNL     1      10.196  14.719   8.760  1.00  0.00    -0.375 N
ATOM      3  H1  UNL     1       9.865  14.809   7.799  1.00  0.00     0.160 HD
BRANCH   2   4
HETATM    4  C2  UNL     1       9.307  14.744   9.645  1.00  0.00     0.035 C
HETATM    5  C1  UNL     1       8.620  16.028   9.934  1.00  0.00     0.067 C
BRANCH   4   6
HETATM    6  C14 UNL     1       8.945  13.525  10.388  1.00  0.00     0.362 C
BRANCH   6   7
HETATM    7  N15 UNL     1       9.845  13.299  11.519  1.00  0.00    -0.048 N
ATOM      8 3H15 UNL     1      10.201  14.178  11.894  1.00  0.00     0.277 HD
ATOM      9 2H15 UNL     1       9.337  12.971  12.340  1.00  0.00     0.277 HD
ATOM     10 1H15 UNL     1      10.604  12.664  11.271  1.00  0.00     0.277 HD
ENDBRANCH   6   7
BRANCH   6  11
HETATM   11  O2  UNL     1       9.080  12.440   9.523  1.00  0.00    -0.366 OA
ATOM     12  H2  UNL     1       9.685  11.824   9.919  1.00  0.00     0.212 HD
ENDBRANCH   6  11
ENDBRANCH   4   6
ENDBRANCH   2   4
ENDBRANCH   1   2
BRANCH   1  13
HETATM   13  C4  UNL     1      12.150  15.848   9.421  1.00  0.00     0.273 C
HETATM   14  O1  UNL     1      11.974  16.903   8.782  1.00  0.00    -0.268 OA
HETATM   15  N2  UNL     1      12.886  15.877  10.635  1.00  0.00    -0.202 N
HETATM   16  N3  UNL     1      13.172  14.873  11.446  1.00  0.00    -0.231 N
HETATM   17  C7  UNL     1      13.444  16.976  11.201  1.00  0.00     0.124 A
HETATM   18  N4  UNL     1      13.875  15.281  12.481  1.00  0.00    -0.267 N
ATOM     19  H3  UNL     1      12.885  13.906  11.290  1.00  0.00     0.209 HD
HETATM   20  C5  UNL     1      14.068  16.599  12.365  1.00  0.00     0.166 A
ATOM     21  H4  UNL     1      14.215  14.692  13.242  1.00  0.00     0.190 HD
HETATM   22  N5  UNL     1      14.637  17.682  12.951  1.00  0.00    -0.283 N
HETATM   23  N6  UNL     1      14.369  18.695  12.172  1.00  0.00    -0.308 N
ATOM     24  H5  UNL     1      15.165  17.701  13.823  1.00  0.00     0.188 HD
HETATM   25  C6  UNL     1      13.654  18.341  11.099  1.00  0.00     0.142 A
ATOM     26  H6  UNL     1      14.672  19.651  12.360  1.00  0.00     0.186 HD
ENDBRANCH   1  13
BRANCH   1  27
HETATM   27  C8  UNL     1      12.184  14.245   7.586  1.00  0.00     0.076 A
HETATM   28  C9  UNL     1      13.455  13.839   7.247  1.00  0.00     0.147 A
HETATM   29  N7  UNL     1      13.515  13.651   5.901  1.00  0.00    -0.244 N
HETATM   30  N13 UNL     1      12.302  13.939   5.463  1.00  0.00    -0.236 N
HETATM   31  N14 UNL     1      11.501  14.293   6.442  1.00  0.00    -0.286 N
ATOM     32  H13 UNL     1      12.021  13.893   4.483  1.00  0.00     0.209 HD
ATOM     33  H14 UNL     1      10.521  14.559   6.343  1.00  0.00     0.188 HD
BRANCH  29  34
HETATM   34  C10 UNL     1      14.655  13.230   5.149  1.00  0.00     0.142 A
HETATM   35  C11 UNL     1      14.799  11.883   4.882  1.00  0.00     0.164 A
HETATM   36  N8  UNL     1      13.834  10.951   5.346  1.00  0.00    -0.080 NA
HETATM   37  N9  UNL     1      15.859  11.411   4.173  1.00  0.00    -0.177 N
HETATM   38  C12 UNL     1      16.790  12.263   3.720  1.00  0.00     0.678 A
ATOM     39  H9  UNL     1      15.946  10.412   3.985  1.00  0.00     0.185 HD
HETATM   40  N11 UNL     1      16.662  13.595   3.975  1.00  0.00    -0.175 N
HETATM   41  C13 UNL     1      15.614  14.075   4.678  1.00  0.00     0.147 A
ATOM     42  H11 UNL     1      17.370  14.241   3.628  1.00  0.00     0.186 HD
BRANCH  38  43
HETATM   43  N10 UNL     1      17.787  11.806   3.050  1.00  0.00    -0.234 N
ATOM     44 2H10 UNL     1      17.682  11.511   2.079  1.00  0.00     0.174 HD
ATOM     45 1H10 UNL     1      18.699  11.736   3.501  1.00  0.00     0.174 HD
ENDBRANCH  38  43
BRANCH  41  46
HETATM   46  N12 UNL     1      15.494  15.334   4.919  1.00  0.00    -0.383 N
ATOM     47 2H12 UNL     1      15.901  15.752   5.756  1.00  0.00     0.157 HD
ATOM     48 1H12 UNL     1      14.982  15.911   4.253  1.00  0.00     0.157 HD
ENDBRANCH  41  46
ENDBRANCH  29  34
ENDBRANCH   1  27
TORSDOF 10
ENDMDL