MODEL 1
REMARK VINA RESULT: -7.681183552      0.000      0.000
REMARK  10 active torsions:
REMARK  status: ('A' for Active; 'I' for Inactive)
REMARK    1  A    between atoms: N1_1  and  C1_4
REMARK    2  A    between atoms: C2_10  and  N4_11
REMARK    3  A    between atoms: C4_17  and  C5_18
REMARK    4  A    between atoms: C5_18  and  N7_19
REMARK    5  A    between atoms: N7_19  and  N8_21
REMARK    6  A    between atoms: N8_21  and  N9_23
REMARK       I    between atoms: N9_23  and  C6_25
REMARK    7  A    between atoms: C6_25  and  C7_27
REMARK    8  A    between atoms: C7_27  and  O3_28
REMARK    9  A    between atoms: N11_36  and  N12_38
REMARK   10  A    between atoms: N13_40  and  N14_42
ROOT
HETATM    1  C5  UNL     1      15.021  20.197  12.729  1.00  0.00     0.169 C
HETATM    2  N11 UNL     1      13.961  20.948  12.775  1.00  0.00    -0.267 N
ATOM      3  H11 UNL     1      14.063  21.902  13.120  1.00  0.00     0.190 HD
ENDROOT
BRANCH   1   4
HETATM    4  C4  UNL     1      16.321  20.670  13.149  1.00  0.00     0.138 A
HETATM    5  N4  UNL     1      17.253  21.192  12.317  1.00  0.00    -0.212 N
HETATM    6  N5  UNL     1      18.282  21.495  13.087  1.00  0.00    -0.012 NA
HETATM    7  N6  UNL     1      18.041  21.191  14.351  1.00  0.00    -0.275 N
HETATM    8  C3  UNL     1      16.796  20.659  14.443  1.00  0.00     0.126 A
ATOM      9  H6  UNL     1      18.685  21.332  15.129  1.00  0.00     0.185 HD
HETATM   10  S1  UNL     1      15.971  20.076  15.925  1.00  0.00    -0.029 SA
BRANCH   5  11
HETATM   11  C2  UNL     1      17.123  21.365  10.910  1.00  0.00     0.194 A
HETATM   12  C1  UNL     1      18.065  21.959  10.074  1.00  0.00     0.169 A
HETATM   13  N2  UNL     1      17.587  21.940   8.813  1.00  0.00    -0.222 N
HETATM   14  O1  UNL     1      16.419  21.373   8.851  1.00  0.00    -0.153 OA
ATOM     15  H2  UNL     1      18.056  22.304   7.983  1.00  0.00     0.198 HD
HETATM   16  N3  UNL     1      16.121  21.022  10.080  1.00  0.00    -0.221 N
ATOM     17  H3  UNL     1      15.258  20.559  10.364  1.00  0.00     0.198 HD
BRANCH  12  18
HETATM   18  N1  UNL     1      19.187  22.433  10.466  1.00  0.00    -0.381 N
ATOM     19  H12 UNL     1      19.797  23.020   9.898  1.00  0.00     0.157 HD
ATOM     20  H11 UNL     1      19.626  22.299  11.377  1.00  0.00     0.157 HD
ENDBRANCH  12  18
ENDBRANCH   5  11
ENDBRANCH   1   4
BRANCH   1  21
HETATM   21  N7  UNL     1      14.839  18.873  12.242  1.00  0.00    -0.268 N
ATOM     22  H7  UNL     1      14.688  18.708  11.246  1.00  0.00     0.190 HD
BRANCH  21  23
HETATM   23  N8  UNL     1      14.865  17.884  13.062  1.00  0.00    -0.238 N
ATOM     24  H8  UNL     1      15.250  17.998  14.001  1.00  0.00     0.208 HD
BRANCH  23  25
HETATM   25  N9  UNL     1      14.358  16.651  12.646  1.00  0.00    -0.252 N
HETATM   26  C6  UNL     1      13.061  16.522  12.085  1.00  0.00     0.284 C
HETATM   27  O2  UNL     1      12.364  17.557  11.967  1.00  0.00    -0.267 OA
ATOM     28  H9  UNL     1      14.938  15.818  12.748  1.00  0.00     0.191 HD
BRANCH  26  29
HETATM   29  C7  UNL     1      12.517  15.239  11.646  1.00  0.00     0.216 C
HETATM   30  C8  UNL     1      11.033  15.098  12.018  1.00  0.00     0.165 C
HETATM   31  C9  UNL     1      10.460  14.076  11.113  1.00  0.00     0.231 C
HETATM   32  O4  UNL     1       9.753  13.075  11.489  1.00  0.00    -0.273 OA
HETATM   33  N10 UNL     1      10.784  14.326   9.753  1.00  0.00    -0.298 N
HETATM   34  S2  UNL     1      12.352  15.159   9.816  1.00  0.00    -0.003 SA
ATOM     35  H10 UNL     1      10.239  14.083   8.926  1.00  0.00     0.177 HD
BRANCH  29  36
HETATM   36  O3  UNL     1      13.253  14.183  12.125  1.00  0.00    -0.369 OA
ATOM     37  H3  UNL     1      13.562  14.342  13.009  1.00  0.00     0.212 HD
ENDBRANCH  29  36
ENDBRANCH  26  29
ENDBRANCH  23  25
ENDBRANCH  21  23
ENDBRANCH   1  21
BRANCH   2  38
HETATM   38  N12 UNL     1      12.711  20.528  12.383  1.00  0.00    -0.227 N
HETATM   39  N13 UNL     1      11.874  20.185  13.276  1.00  0.00    -0.235 N
ATOM     40  H13 UNL     1      12.146  20.228  14.258  1.00  0.00     0.209 HD
ATOM     41  H12 UNL     1      12.460  20.492  11.395  1.00  0.00     0.210 HD
BRANCH  39  42
HETATM   42  N14 UNL     1      10.572  19.744  12.935  1.00  0.00    -0.330 N
ATOM     43 2H14 UNL     1      10.157  18.989  13.481  1.00  0.00     0.178 HD
ATOM     44 1H14 UNL     1      10.055  20.166  12.164  1.00  0.00     0.178 HD
ENDBRANCH  39  42
ENDBRANCH   2  38
TORSDOF 10
ENDMDL