MODEL 1
REMARK VINA RESULT: -8.126962160      0.000      0.000
REMARK  10 active torsions:
REMARK  status: ('A' for Active; 'I' for Inactive)
REMARK    1  A    between atoms: N1_1  and  C1_4
REMARK    2  A    between atoms: C2_10  and  C3_11
REMARK    3  A    between atoms: C4_14  and  N5_15
REMARK    4  A    between atoms: C5_19  and  C6_20
REMARK    5  A    between atoms: C6_20  and  C7_22
REMARK    6  A    between atoms: C7_22  and  S1_23
REMARK    7  A    between atoms: S1_23  and  C8_24
REMARK    8  A    between atoms: C9_29  and  N10_30
REMARK    9  A    between atoms: N11_33  and  N12_34
REMARK   10  A    between atoms: C10_41  and  N15_42
ROOT
HETATM    1  N5  UNL     1      14.520  14.477   8.643  1.00  0.00    -0.003 N
HETATM    2  N6  UNL     1      15.607  14.087   9.286  1.00  0.00     0.018 NA
HETATM    3  N7  UNL     1      15.460  14.288  10.583  1.00  0.00    -0.263 N
ATOM      4  H7  UNL     1      16.149  14.074  11.304  1.00  0.00     0.186 HD
HETATM    5  C5  UNL     1      14.249  14.823  10.785  1.00  0.00     0.182 A
HETATM    6  N13 UNL     1      13.695  14.924   9.548  1.00  0.00    -0.247 N
ATOM      7  H13 UNL     1      12.765  15.296   9.354  1.00  0.00     0.191 HD
ENDROOT
BRANCH   1   8
HETATM    8  C4  UNL     1      14.249  14.439   7.227  1.00  0.00     0.719 A
HETATM    9  N4  UNL     1      15.114  13.901   6.390  1.00  0.00    -0.184 N
HETATM   10  C3  UNL     1      14.910  13.835   5.014  1.00  0.00     0.109 A
ATOM     11  H4  UNL     1      15.978  13.514   6.770  1.00  0.00     0.184 HD
HETATM   12  C11 UNL     1      13.768  14.346   4.499  1.00  0.00     0.120 A
HETATM   13  C10 UNL     1      12.845  14.921   5.410  1.00  0.00     0.141 A
HETATM   14  N16 UNL     1      13.351  14.388   3.153  1.00  0.00    -0.096 NA
HETATM   15  N14 UNL     1      13.122  14.943   6.716  1.00  0.00    -0.172 N
ATOM     16  H14 UNL     1      12.443  15.362   7.352  1.00  0.00     0.186 HD
BRANCH  10  17
HETATM   17  C2  UNL     1      15.977  13.207   4.271  1.00  0.00     0.131 A
HETATM   18  C1  UNL     1      16.159  12.055   3.606  1.00  0.00     0.152 A
HETATM   19  N2  UNL     1      17.443  12.022   3.083  1.00  0.00    -0.224 N
HETATM   20  O1  UNL     1      17.994  13.118   3.429  1.00  0.00    -0.155 OA
ATOM     21  H2  UNL     1      17.862  11.272   2.533  1.00  0.00     0.198 HD
HETATM   22  N3  UNL     1      17.201  13.853   4.120  1.00  0.00    -0.236 N
ATOM     23  H3  UNL     1      17.432  14.770   4.501  1.00  0.00     0.197 HD
BRANCH  18  24
HETATM   24  N1  UNL     1      15.342  11.113   3.445  1.00  0.00    -0.382 N
ATOM     25  H12 UNL     1      15.438  10.292   2.849  1.00  0.00     0.157 HD
ATOM     26  H11 UNL     1      14.444  11.081   3.928  1.00  0.00     0.157 HD
ENDBRANCH  18  24
ENDBRANCH  10  17
BRANCH  13  27
HETATM   27  N15 UNL     1      11.752  15.413   4.933  1.00  0.00    -0.383 N
ATOM     28 2H15 UNL     1      11.330  16.202   5.422  1.00  0.00     0.157 HD
ATOM     29 1H15 UNL     1      11.309  15.037   4.094  1.00  0.00     0.157 HD
ENDBRANCH  13  27
ENDBRANCH   1   8
BRANCH   5  30
HETATM   30  C6  UNL     1      13.601  15.230  12.012  1.00  0.00     0.205 C
HETATM   31  O2  UNL     1      13.985  14.728  13.093  1.00  0.00    -0.288 OA
BRANCH  30  32
HETATM   32  C7  UNL     1      12.501  16.220  12.024  1.00  0.00     0.169 C
BRANCH  32  33
HETATM   33  S1  UNL     1      10.892  15.427  12.290  1.00  0.00    -0.082 SA
BRANCH  33  34
HETATM   34  C8  UNL     1      10.328  14.584  10.829  1.00  0.00     0.198 A
HETATM   35  N8  UNL     1       9.939  13.297  10.806  1.00  0.00    -0.263 N
HETATM   36  N9  UNL     1       9.579  12.972   9.582  1.00  0.00    -0.129 N
ATOM     37  H8  UNL     1       9.925  12.671  11.611  1.00  0.00     0.189 HD
HETATM   38  C9  UNL     1       9.746  14.078   8.819  1.00  0.00     0.713 A
ATOM     39  H9  UNL     1       9.240  12.063   9.268  1.00  0.00     0.205 HD
HETATM   40  N11 UNL     1      10.209  15.078   9.585  1.00  0.00    -0.068 N
BRANCH  38  41
HETATM   41  N10 UNL     1       9.507  14.187   7.555  1.00  0.00    -0.231 N
ATOM     42 2H10 UNL     1      10.103  13.795   6.826  1.00  0.00     0.174 HD
ATOM     43 1H10 UNL     1       8.716  14.664   7.124  1.00  0.00     0.174 HD
ENDBRANCH  38  41
BRANCH  40  44
HETATM   44  N12 UNL     1      10.514  16.398   9.176  1.00  0.00    -0.322 N
ATOM     45 2H12 UNL     1      11.254  17.000   9.538  1.00  0.00     0.178 HD
ATOM     46 1H12 UNL     1      10.030  16.933   8.454  1.00  0.00     0.178 HD
ENDBRANCH  40  44
ENDBRANCH  33  34
ENDBRANCH  32  33
ENDBRANCH  30  32
ENDBRANCH   5  30
TORSDOF 10
ENDMDL