MODEL 1
REMARK VINA RESULT: -6.410280780      0.000      0.000
REMARK  14 active torsions:
REMARK  status: ('A' for Active; 'I' for Inactive)
REMARK    1  A    between atoms: S1_2  and  O3_5
REMARK    2  A    between atoms: O3_5  and  C2_6
REMARK    3  A    between atoms: C2_6  and  C3_7
REMARK    4  A    between atoms: C3_7  and  N1_8
REMARK    5  A    between atoms: C4_9  and  O4_10
REMARK    6  A    between atoms: C5_12  and  C6_13
REMARK    7  A    between atoms: C6_13  and  N2_14
REMARK    8  A    between atoms: C6_13  and  O5_18
REMARK    9  A    between atoms: N3_20  and  N4_21
REMARK   10  A    between atoms: C7_22  and  O6_23
REMARK   11  A    between atoms: C8_25  and  O7_26
REMARK   12  A    between atoms: C10_32  and  N6_33
REMARK   13  A    between atoms: C11_36  and  N7_37
REMARK   14  A    between atoms: N7_37  and  N8_39
ROOT
HETATM    1  N1  UNL     1      13.136  18.850  11.924  1.00  0.00    -0.306 N
HETATM    2  C4  UNL     1      13.780  17.674  11.929  1.00  0.00     0.174 A
HETATM    3  C5  UNL     1      13.132  16.470  11.576  1.00  0.00     0.143 A
HETATM    4  N3  UNL     1      11.857  16.469  11.228  1.00  0.00    -0.221 N
HETATM    5  C10 UNL     1      11.196  17.662  11.221  1.00  0.00     0.168 A
HETATM    6  C11 UNL     1      11.840  18.865  11.571  1.00  0.00     0.170 A
ENDROOT
BRANCH   4   7
HETATM    7  N4  UNL     1      11.155  15.317  10.877  1.00  0.00    -0.194 N
HETATM    8  C7  UNL     1      10.464  14.535  11.752  1.00  0.00     0.217 A
HETATM    9  C8  UNL     1       9.932  13.444  11.060  1.00  0.00     0.196 A
HETATM   10  N5  UNL     1      10.325  13.604   9.761  1.00  0.00    -0.309 N
HETATM   11  C9  UNL     1      11.055  14.730   9.672  1.00  0.00     0.202 A
ATOM     12  H5  UNL     1      10.102  12.976   8.990  1.00  0.00     0.170 HD
HETATM   13  S2  UNL     1      11.711  15.272   8.282  1.00  0.00    -0.038 SA
BRANCH   8  14
HETATM   14  O6  UNL     1      10.293  14.747  13.103  1.00  0.00    -0.342 OA
ATOM     15  H6  UNL     1       9.846  15.475  13.518  1.00  0.00     0.219 HD
ENDBRANCH   8  14
BRANCH   9  16
HETATM   16  O7  UNL     1       9.170  12.401  11.527  1.00  0.00    -0.343 OA
ATOM     17  H7  UNL     1       8.443  11.952  11.113  1.00  0.00     0.219 HD
ENDBRANCH   9  16
ENDBRANCH   4   7
BRANCH   3  18
HETATM   18  C6  UNL     1      13.957  15.254  11.609  1.00  0.00     0.373 C
BRANCH  18  19
HETATM   19  N2  UNL     1      14.412  15.031  12.987  1.00  0.00    -0.047 N
ATOM     20  H23 UNL     1      15.332  15.433  13.165  1.00  0.00     0.277 HD
ATOM     21  H22 UNL     1      13.884  15.579  13.666  1.00  0.00     0.277 HD
ATOM     22  H21 UNL     1      14.379  14.030  13.184  1.00  0.00     0.277 HD
ENDBRANCH  18  19
BRANCH  18  23
HETATM   23  O5  UNL     1      14.991  15.163  10.728  1.00  0.00    -0.365 OA
ATOM     24  H5  UNL     1      15.080  14.360  10.229  1.00  0.00     0.212 HD
ENDBRANCH  18  23
ENDBRANCH   3  18
BRANCH   5  25
HETATM   25  N6  UNL     1       9.957  17.639  10.879  1.00  0.00    -0.381 N
ATOM     26  H62 UNL     1       9.359  16.843  11.100  1.00  0.00     0.157 HD
ATOM     27  H61 UNL     1       9.601  18.452  10.377  1.00  0.00     0.157 HD
ENDBRANCH   5  25
BRANCH   2  28
HETATM   28  O4  UNL     1      15.120  17.650  12.294  1.00  0.00    -0.344 OA
ATOM     29  H4  UNL     1      15.450  16.896  12.768  1.00  0.00     0.219 HD
ENDBRANCH   2  28
BRANCH   6  30
HETATM   30  N7  UNL     1      11.109  19.875  11.525  1.00  0.00    -0.289 N
ATOM     31  H7  UNL     1      10.950  20.213  10.576  1.00  0.00     0.188 HD
BRANCH  30  32
HETATM   32  N8  UNL     1      10.488  20.609  12.460  1.00  0.00    -0.344 N
ATOM     33  H82 UNL     1      10.783  20.354  13.403  1.00  0.00     0.176 HD
ATOM     34  H81 UNL     1       9.795  21.356  12.420  1.00  0.00     0.176 HD
ENDBRANCH  30  32
ENDBRANCH   6  30
BRANCH   1  35
HETATM   35  C3  UNL     1      13.892  20.025  12.297  1.00  0.00     0.160 C
BRANCH  35  36
HETATM   36  C2  UNL     1      14.248  20.932  11.174  1.00  0.00     0.210 C
BRANCH  36  37
HETATM   37  O3  UNL     1      15.429  20.418  10.597  1.00  0.00    -0.274 OA
BRANCH  37  38
HETATM   38  S1  UNL     1      16.205  21.571   9.687  1.00  0.00     0.261 S
HETATM   39  C1  UNL     1      17.884  21.839  10.270  1.00  0.00     0.194 C
HETATM   40  O1  UNL     1      15.484  22.887   9.895  1.00  0.00    -0.199 OA
HETATM   41  O2  UNL     1      16.241  21.201   8.246  1.00  0.00    -0.199 OA
ENDBRANCH  37  38
ENDBRANCH  36  37
ENDBRANCH  35  36
ENDBRANCH   1  35
TORSDOF 14
ENDMDL