MODEL 2
REMARK VINA RESULT: -7.592426553      1.256      1.526
REMARK  11 active torsions:
REMARK  status: ('A' for Active; 'I' for Inactive)
REMARK    1  A    between atoms: O1_2  and  C2_3
REMARK    2  A    between atoms: C2_3  and  C3_5
REMARK    3  A    between atoms: N1_7  and  N2_8
REMARK       I    between atoms: N2_8  and  C5_10
REMARK    4  A    between atoms: C5_10  and  C6_12
REMARK    5  A    between atoms: C6_12  and  N3_13
REMARK    6  A    between atoms: C7_16  and  C8_17
REMARK    7  A    between atoms: C9_19  and  O5_20
REMARK    8  A    between atoms: C10_22  and  O6_23
REMARK    9  A    between atoms: C11_25  and  O7_26
REMARK   10  A    between atoms: N5_28  and  N6_29
REMARK   11  A    between atoms: C12_32  and  N7_33
ROOT
HETATM    1  N3  UNL     1      13.836  16.638   7.701  1.00  0.00    -0.112 N
HETATM    2  N4  UNL     1      12.668  16.115   8.041  1.00  0.00    -0.264 N
ATOM      3  H4  UNL     1      11.776  16.340   7.600  1.00  0.00     0.189 HD
HETATM    4  C7  UNL     1      12.832  15.225   9.073  1.00  0.00     0.197 A
HETATM    5  N5  UNL     1      14.146  15.260   9.312  1.00  0.00    -0.071 N
HETATM    6  C12 UNL     1      14.773  16.127   8.476  1.00  0.00     0.715 A
ENDROOT
BRANCH   1   7
HETATM    7  C6  UNL     1      13.964  17.619   6.612  1.00  0.00     0.272 C
BRANCH   7   8
HETATM    8  C5  UNL     1      14.596  16.816   5.469  1.00  0.00     0.257 C
HETATM    9  N2  UNL     1      13.890  15.847   4.791  1.00  0.00    -0.258 N
ATOM     10  H2  UNL     1      12.935  15.739   5.132  1.00  0.00     0.190 HD
HETATM   11  O3  UNL     1      15.788  17.128   5.230  1.00  0.00    -0.270 OA
BRANCH   9  12
HETATM   12  N1  UNL     1      14.186  15.000   3.763  1.00  0.00    -0.213 N
HETATM   13  C4  UNL     1      14.912  13.867   4.088  1.00  0.00     0.143 A
HETATM   14  C3  UNL     1      15.262  12.923   3.132  1.00  0.00     0.100 A
HETATM   15  C14 UNL     1      14.859  13.162   1.856  1.00  0.00     0.120 A
HETATM   16  N8  UNL     1      14.137  14.300   1.560  1.00  0.00    -0.292 N
HETATM   17  N9  UNL     1      15.104  12.382   0.900  1.00  0.00    -0.384 N
HETATM   18  C13 UNL     1      13.810  15.199   2.504  1.00  0.00     0.346 A
ATOM     19  H8  UNL     1      13.844  14.463   0.597  1.00  0.00     0.172 HD
HETATM   20  O8  UNL     1      13.141  16.207   2.097  1.00  0.00    -0.245 OA
ATOM     21  H92 UNL     1      15.637  11.541   1.119  1.00  0.00     0.157 HD
ATOM     22  H91 UNL     1      14.801  12.561  -0.057  1.00  0.00     0.157 HD
BRANCH  14  23
HETATM   23  C2  UNL     1      16.034  11.751   3.520  1.00  0.00     0.298 C
HETATM   24  O2  UNL     1      15.454  10.844   4.160  1.00  0.00    -0.259 OA
BRANCH  23  25
HETATM   25  O1  UNL     1      17.360  11.567   3.236  1.00  0.00    -0.322 OA
HETATM   26  C1  UNL     1      18.342  12.567   3.144  1.00  0.00     0.213 C
ENDBRANCH  23  25
ENDBRANCH  14  23
ENDBRANCH   9  12
ENDBRANCH   7   8
ENDBRANCH   1   7
BRANCH   6  27
HETATM   27  N7  UNL     1      16.029  16.390   8.450  1.00  0.00    -0.231 N
ATOM     28  H72 UNL     1      16.755  15.844   7.986  1.00  0.00     0.174 HD
ATOM     29  H71 UNL     1      16.502  17.183   8.885  1.00  0.00     0.174 HD
ENDBRANCH   6  27
BRANCH   4  30
HETATM   30  C8  UNL     1      11.739  14.456   9.641  1.00  0.00     0.162 A
HETATM   31  O4  UNL     1      10.709  14.060   8.905  1.00  0.00    -0.279 OA
HETATM   32  C9  UNL     1       9.857  13.379   9.629  1.00  0.00     0.221 A
HETATM   33  C10 UNL     1      10.309  13.301  10.912  1.00  0.00     0.161 A
HETATM   34  C11 UNL     1      11.523  13.999  10.908  1.00  0.00     0.142 A
BRANCH  32  35
HETATM   35  O5  UNL     1       8.668  12.828   9.131  1.00  0.00    -0.339 OA
ATOM     36  H5  UNL     1       8.125  12.214   9.610  1.00  0.00     0.220 HD
ENDBRANCH  32  35
BRANCH  33  37
HETATM   37  O6  UNL     1       9.714  12.670  12.003  1.00  0.00    -0.354 OA
ATOM     38  H6  UNL     1      10.031  12.613  12.897  1.00  0.00     0.218 HD
ENDBRANCH  33  37
BRANCH  34  39
HETATM   39  O7  UNL     1      12.287  14.145  12.026  1.00  0.00    -0.355 OA
ATOM     40  H7  UNL     1      12.038  14.089  12.941  1.00  0.00     0.218 HD
ENDBRANCH  34  39
ENDBRANCH   4  30
BRANCH   5  41
HETATM   41  N6  UNL     1      14.821  14.532  10.266  1.00  0.00    -0.322 N
ATOM     42  H62 UNL     1      15.781  14.741  10.538  1.00  0.00     0.178 HD
ATOM     43  H61 UNL     1      14.456  13.735  10.788  1.00  0.00     0.178 HD
ENDBRANCH   5  41
TORSDOF 11
ENDMDL