MODEL 4
REMARK VINA RESULT: -7.597653052      1.414      2.180
REMARK  9 active torsions:
REMARK  status: ('A' for Active; 'I' for Inactive)
REMARK    1  A    between atoms: N2_3  and  N3_5
REMARK    2  A    between atoms: N4_7  and  O1_8
REMARK       I    between atoms: N4_7  and  C2_10
REMARK       I    between atoms: C2_10  and  N5_11
REMARK    3  A    between atoms: N5_11  and  N6_13
REMARK    4  A    between atoms: N6_13  and  C3_15
REMARK    5  A    between atoms: N11_24  and  N12_26
REMARK       I    between atoms: N12_26  and  C4_28
REMARK    6  A    between atoms: C4_28  and  C5_30
REMARK    7  A    between atoms: C6_32  and  N13_33
REMARK    8  A    between atoms: N13_33  and  C7_35
REMARK    9  A    between atoms: C10_44  and  O3_45
ROOT
HETATM    1  N1  UNL     1      16.063  12.905  12.431  1.00  0.00    -0.170 NA
HETATM    2  C1  UNL     1      15.472  13.612  11.733  1.00  0.00     0.199 C
HETATM    3  N2  UNL     1      14.738  14.454  10.881  1.00  0.00    -0.219 N
ATOM      4  H2  UNL     1      13.923  14.958  11.229  1.00  0.00     0.201 HD
ENDROOT
BRANCH   3   5
HETATM    5  N3  UNL     1      15.138  14.589   9.559  1.00  0.00    -0.192 N
HETATM    6  N4  UNL     1      14.659  13.859   8.659  1.00  0.00     0.034 N
HETATM    7  C2  UNL     1      15.085  14.021   7.329  1.00  0.00     0.755 C
HETATM    8  N5  UNL     1      15.218  15.279   6.715  1.00  0.00    -0.113 N
HETATM    9  N11 UNL     1      15.364  12.964   6.648  1.00  0.00    -0.124 N
ATOM     10  H5  UNL     1      15.723  15.307   5.828  1.00  0.00     0.206 HD
ATOM     11  H11 UNL     1      15.267  12.052   7.095  1.00  0.00     0.206 HD
ATOM     12  H3  UNL     1      15.832  15.295   9.315  1.00  0.00     0.212 HD
BRANCH   6  13
HETATM   13  O1  UNL     1      13.732  12.912   8.961  1.00  0.00    -0.253 OA
ATOM     14  H1  UNL     1      13.989  12.107   9.395  1.00  0.00     0.247 HD
ENDBRANCH   6  13
BRANCH   8  15
HETATM   15  N6  UNL     1      14.733  16.476   7.192  1.00  0.00    -0.115 N
ATOM     16  H6  UNL     1      13.741  16.533   7.422  1.00  0.00     0.206 HD
BRANCH  15  17
HETATM   17  C3  UNL     1      15.456  17.530   7.366  1.00  0.00     0.728 A
HETATM   18  N7  UNL     1      15.240  18.718   6.796  1.00  0.00    -0.114 N
HETATM   19  N8  UNL     1      16.197  19.539   7.222  1.00  0.00    -0.213 N
ATOM     20  H7  UNL     1      14.483  18.954   6.155  1.00  0.00     0.207 HD
HETATM   21  N9  UNL     1      17.002  18.897   8.038  1.00  0.00    -0.213 N
ATOM     22  H8  UNL     1      16.292  20.518   6.954  1.00  0.00     0.210 HD
HETATM   23  N10 UNL     1      16.551  17.652   8.133  1.00  0.00    -0.114 N
ATOM     24  H9  UNL     1      17.819  19.283   8.511  1.00  0.00     0.210 HD
ATOM     25  H10 UNL     1      16.968  16.911   8.696  1.00  0.00     0.207 HD
ENDBRANCH  15  17
ENDBRANCH   8  15
BRANCH   9  26
HETATM   26  N12 UNL     1      15.800  13.019   5.305  1.00  0.00    -0.251 N
HETATM   27  C4  UNL     1      15.114  12.256   4.355  1.00  0.00     0.281 C
HETATM   28  O2  UNL     1      14.126  11.539   4.720  1.00  0.00    -0.265 OA
ATOM     29  H12 UNL     1      16.595  13.599   5.035  1.00  0.00     0.191 HD
BRANCH  27  30
HETATM   30  C5  UNL     1      15.432  12.195   2.920  1.00  0.00     0.128 A
HETATM   31  S1  UNL     1      14.344  12.356   1.583  1.00  0.00    -0.044 SA
HETATM   32  C6  UNL     1      15.470  12.169   0.315  1.00  0.00     0.154 A
HETATM   33  N16 UNL     1      16.607  11.996   0.970  1.00  0.00    -0.316 N
HETATM   34  C10 UNL     1      16.621  12.003   2.265  1.00  0.00     0.165 A
ATOM     35  H16 UNL     1      17.474  11.856   0.452  1.00  0.00     0.170 HD
BRANCH  32  36
HETATM   36  N13 UNL     1      15.255  12.193  -1.113  1.00  0.00    -0.308 N
ATOM     37  H13 UNL     1      15.584  11.419  -1.690  1.00  0.00     0.171 HD
BRANCH  36  38
HETATM   38  C7  UNL     1      14.586  13.295  -1.719  1.00  0.00     0.177 C
HETATM   39  N14 UNL     1      15.113  14.444  -1.852  1.00  0.00    -0.361 N
HETATM   40  C8  UNL     1      14.237  15.387  -2.493  1.00  0.00     0.142 C
ATOM     41  H14 UNL     1      16.056  14.673  -1.537  1.00  0.00     0.162 HD
HETATM   42  C9  UNL     1      12.889  14.691  -2.443  1.00  0.00     0.142 C
HETATM   43  N15 UNL     1      13.280  13.311  -2.256  1.00  0.00    -0.361 N
ATOM     44  H15 UNL     1      12.712  12.493  -2.474  1.00  0.00     0.162 HD
ENDBRANCH  36  38
ENDBRANCH  32  36
BRANCH  34  45
HETATM   45  O3  UNL     1      17.817  11.820   3.022  1.00  0.00    -0.345 OA
ATOM     46  H3  UNL     1      18.523  11.294   2.662  1.00  0.00     0.219 HD
ENDBRANCH  34  45
ENDBRANCH  27  30
ENDBRANCH   9  26
ENDBRANCH   3   5
TORSDOF 9
ENDMDL