MODEL 4
REMARK VINA RESULT: -7.532252710      1.247      1.730
REMARK  11 active torsions:
REMARK  status: ('A' for Active; 'I' for Inactive)
REMARK    1  A    between atoms: C2_4  and  C3_5
REMARK    2  A    between atoms: C4_10  and  C5_11
REMARK    3  A    between atoms: C5_11  and  O1_12
REMARK    4  A    between atoms: C5_11  and  C6_14
REMARK    5  A    between atoms: C6_14  and  O2_15
REMARK    6  A    between atoms: C6_14  and  C7_17
REMARK    7  A    between atoms: C7_17  and  O3_18
REMARK    8  A    between atoms: C9_25  and  C10_26
REMARK    9  A    between atoms: N9_31  and  C11_32
REMARK   10  A    between atoms: C12_37  and  N12_38
REMARK   11  A    between atoms: C13_43  and  N14_44
ROOT
HETATM    1  N1  UNL     1      15.413  15.614   3.611  1.00  0.00    -0.171 NA
HETATM    2  C1  UNL     1      15.161  14.503   3.848  1.00  0.00     0.191 C
HETATM    3  N2  UNL     1      14.839  13.162   4.152  1.00  0.00    -0.225 N
HETATM    4  C2  UNL     1      14.555  12.706   5.372  1.00  0.00     0.112 A
HETATM    5  C8  UNL     1      14.300  11.363   5.246  1.00  0.00     0.124 A
HETATM    6  N6  UNL     1      14.444  11.061   3.930  1.00  0.00    -0.346 N
ATOM      7  H6  UNL     1      14.317  10.134   3.523  1.00  0.00     0.167 HD
HETATM    8  C9  UNL     1      14.777  12.164   3.246  1.00  0.00     0.169 A
ENDROOT
BRANCH   4   9
HETATM    9  C3  UNL     1      14.514  13.457   6.620  1.00  0.00     0.151 A
HETATM   10  N3  UNL     1      15.551  13.649   7.450  1.00  0.00    -0.282 N
HETATM   11  N4  UNL     1      15.179  14.373   8.490  1.00  0.00    -0.285 N
ATOM     12  H3  UNL     1      16.493  13.288   7.299  1.00  0.00     0.188 HD
HETATM   13  C4  UNL     1      13.884  14.651   8.328  1.00  0.00     0.129 A
ATOM     14  H4  UNL     1      15.770  14.664   9.269  1.00  0.00     0.188 HD
HETATM   15  N5  UNL     1      13.479  14.089   7.182  1.00  0.00    -0.326 N
ATOM     16  H5  UNL     1      12.534  14.136   6.800  1.00  0.00     0.169 HD
BRANCH  13  17
HETATM   17  C5  UNL     1      13.069  15.458   9.291  1.00  0.00     0.217 C
BRANCH  17  18
HETATM   18  O1  UNL     1      12.107  16.203   8.612  1.00  0.00    -0.385 OA
ATOM     19  H1  UNL     1      11.404  16.453   9.199  1.00  0.00     0.210 HD
ENDBRANCH  17  18
BRANCH  17  20
HETATM   20  C6  UNL     1      12.340  14.551  10.266  1.00  0.00     0.177 C
BRANCH  20  21
HETATM   21  O2  UNL     1      12.480  13.212   9.916  1.00  0.00    -0.390 OA
ATOM     22  H2  UNL     1      12.695  13.115   8.995  1.00  0.00     0.210 HD
ENDBRANCH  20  21
BRANCH  20  23
HETATM   23  C7  UNL     1      12.884  14.700  11.670  1.00  0.00     0.198 C
BRANCH  23  24
HETATM   24  O3  UNL     1      14.217  14.312  11.647  1.00  0.00    -0.398 OA
ATOM     25  H3  UNL     1      14.716  15.024  11.264  1.00  0.00     0.209 HD
ENDBRANCH  23  24
ENDBRANCH  20  23
ENDBRANCH  17  20
ENDBRANCH  13  17
ENDBRANCH   4   9
BRANCH   8  26
HETATM   26  C10 UNL     1      15.025  12.285   1.815  1.00  0.00     0.183 A
HETATM   27  N7  UNL     1      14.138  12.349   0.823  1.00  0.00    -0.265 N
HETATM   28  N8  UNL     1      14.815  12.454  -0.325  1.00  0.00    -0.218 N
ATOM     29  H7  UNL     1      13.124  12.322   0.922  1.00  0.00     0.190 HD
HETATM   30  N9  UNL     1      16.109  12.458  -0.073  1.00  0.00    -0.158 N
ATOM     31  H8  UNL     1      14.396  12.521  -1.252  1.00  0.00     0.210 HD
HETATM   32  N15 UNL     1      16.243  12.354   1.233  1.00  0.00    -0.257 N
ATOM     33  H15 UNL     1      17.134  12.329   1.731  1.00  0.00     0.191 HD
BRANCH  30  34
HETATM   34  C11 UNL     1      17.191  12.552  -0.982  1.00  0.00     0.206 A
HETATM   35  N10 UNL     1      17.482  11.557  -1.858  1.00  0.00    -0.265 N
HETATM   36  N11 UNL     1      18.499  11.670  -2.697  1.00  0.00    -0.131 N
ATOM     37  H10 UNL     1      16.911  10.713  -1.870  1.00  0.00     0.189 HD
HETATM   38  C12 UNL     1      19.300  12.750  -2.746  1.00  0.00     0.692 A
ATOM     39  H11 UNL     1      18.685  10.900  -3.339  1.00  0.00     0.205 HD
HETATM   40  N13 UNL     1      19.027  13.744  -1.886  1.00  0.00    -0.172 N
HETATM   41  C13 UNL     1      18.007  13.678  -1.015  1.00  0.00     0.164 A
ATOM     42  H13 UNL     1      19.614  14.577  -1.894  1.00  0.00     0.186 HD
BRANCH  38  43
HETATM   43  N12 UNL     1      20.297  12.838  -3.583  1.00  0.00    -0.233 N
ATOM     44 2H12 UNL     1      20.209  13.359  -4.455  1.00  0.00     0.174 HD
ATOM     45 1H12 UNL     1      21.198  12.395  -3.403  1.00  0.00     0.174 HD
ENDBRANCH  38  43
BRANCH  41  46
HETATM   46  N14 UNL     1      17.722  14.617  -0.178  1.00  0.00    -0.382 N
ATOM     47 2H14 UNL     1      17.588  15.592  -0.449  1.00  0.00     0.157 HD
ATOM     48 1H14 UNL     1      17.632  14.342   0.799  1.00  0.00     0.157 HD
ENDBRANCH  41  46
ENDBRANCH  30  34
ENDBRANCH   8  26
TORSDOF 11
ENDMDL