MODEL 3
REMARK VINA RESULT: -6.656528193      2.891      8.922
REMARK  13 active torsions:
REMARK  status: ('A' for Active; 'I' for Inactive)
REMARK    1  A    between atoms: C2_5  and  C3_6
REMARK    2  A    between atoms: C3_6  and  N3_7
REMARK    3  A    between atoms: C4_12  and  C5_13
REMARK    4  A    between atoms: C6_16  and  C7_17
REMARK    5  A    between atoms: C8_21  and  C9_22
REMARK    6  A    between atoms: C10_25  and  C11_26
REMARK    7  A    between atoms: C11_26  and  O2_27
REMARK    8  A    between atoms: C11_26  and  C12_29
REMARK    9  A    between atoms: C12_29  and  C13_30
REMARK   10  A    between atoms: C13_30  and  N9_31
REMARK   11  A    between atoms: N9_31  and  N10_33
REMARK   12  A    between atoms: N10_33  and  N11_34
REMARK   13  A    between atoms: C14_38  and  O4_39
ROOT
HETATM    1  C1  UNL     1      11.996  13.614   2.848  1.00  0.00     0.179 C
HETATM    2  N1  UNL     1      12.116  13.775   4.291  1.00  0.00    -0.278 N
HETATM    3  N2  UNL     1      11.178  14.340   5.005  1.00  0.00    -0.284 N
ATOM      4  H2  UNL     1      10.332  14.760   4.619  1.00  0.00     0.188 HD
HETATM    5  C2  UNL     1      11.485  14.294   6.350  1.00  0.00     0.117 A
HETATM    6  N7  UNL     1      12.653  13.693   6.370  1.00  0.00    -0.326 N
ATOM      7  H7  UNL     1      13.177  13.501   7.224  1.00  0.00     0.169 HD
HETATM    8  C8  UNL     1      13.077  13.362   5.152  1.00  0.00     0.155 A
ENDROOT
BRANCH   8   9
HETATM    9  C9  UNL     1      14.332  12.753   4.758  1.00  0.00     0.139 A
HETATM   10  N8  UNL     1      15.338  13.299   4.095  1.00  0.00    -0.330 N
HETATM   11  C10 UNL     1      16.415  12.498   4.034  1.00  0.00     0.168 A
ATOM     12  H8  UNL     1      15.301  14.229   3.676  1.00  0.00     0.168 HD
HETATM   13  O3  UNL     1      16.034  11.397   4.680  1.00  0.00    -0.269 OA
HETATM   14  C14 UNL     1      14.802  11.436   5.154  1.00  0.00     0.216 A
BRANCH  11  15
HETATM   15  C11 UNL     1      17.693  12.846   3.413  1.00  0.00     0.273 C
BRANCH  15  16
HETATM   16  O2  UNL     1      18.277  11.539   3.037  1.00  0.00    -0.375 OA
ATOM     17  H2  UNL     1      18.762  11.272   3.809  1.00  0.00     0.211 HD
ENDBRANCH  15  16
BRANCH  15  18
HETATM   18  C12 UNL     1      17.779  13.586   2.261  1.00  0.00    -0.042 C
BRANCH  18  19
HETATM   19  C13 UNL     1      17.777  14.299   1.248  1.00  0.00     0.027 C
BRANCH  19  20
HETATM   20  N9  UNL     1      17.672  15.145   0.149  1.00  0.00    -0.242 N
ATOM     21  H9  UNL     1      18.155  14.947  -0.727  1.00  0.00     0.195 HD
BRANCH  20  22
HETATM   22  N10 UNL     1      16.866  16.287   0.305  1.00  0.00    -0.022 NA
BRANCH  22  23
HETATM   23  N11 UNL     1      16.780  16.753   1.601  1.00  0.00    -0.328 N
ATOM     24 2H11 UNL     1      16.345  16.205   2.343  1.00  0.00     0.174 HD
ATOM     25 1H11 UNL     1      17.184  17.678   1.745  1.00  0.00     0.174 HD
ENDBRANCH  22  23
ENDBRANCH  20  22
ENDBRANCH  19  20
ENDBRANCH  18  19
ENDBRANCH  15  18
ENDBRANCH  11  15
BRANCH  14  26
HETATM   26  O4  UNL     1      13.937  10.654   5.854  1.00  0.00    -0.339 OA
ATOM     27  H4  UNL     1      14.186   9.747   5.988  1.00  0.00     0.220 HD
ENDBRANCH  14  26
ENDBRANCH   8   9
BRANCH   5  28
HETATM   28  C3  UNL     1      10.535  14.938   7.265  1.00  0.00     0.228 C
BRANCH  28  29
HETATM   29  N3  UNL     1      10.501  14.483   8.603  1.00  0.00    -0.272 N
HETATM   30  N4  UNL     1       9.635  13.601   9.124  1.00  0.00    -0.239 N
HETATM   31  N5  UNL     1       9.873  13.441  10.409  1.00  0.00    -0.280 N
ATOM     32  H4  UNL     1       8.901  13.124   8.601  1.00  0.00     0.208 HD
HETATM   33  C4  UNL     1      10.929  14.256  10.726  1.00  0.00     0.139 A
ATOM     34  H5  UNL     1       9.368  12.827  11.047  1.00  0.00     0.189 HD
HETATM   35  C6  UNL     1      11.318  14.915   9.578  1.00  0.00     0.073 A
BRANCH  33  36
HETATM   36  C5  UNL     1      11.585  14.442  12.023  1.00  0.00     0.284 C
HETATM   37  N6  UNL     1      10.806  15.056  13.071  1.00  0.00    -0.056 NA
HETATM   38  O1  UNL     1      12.748  14.109  12.280  1.00  0.00    -0.269 OA
ENDBRANCH  33  36
BRANCH  35  39
HETATM   39  C7  UNL     1      12.257  16.061   9.498  1.00  0.00     0.147 C
HETATM   40  S1  UNL     1      13.988  15.575   9.192  1.00  0.00    -0.091 SA
ENDBRANCH  35  39
ENDBRANCH  28  29
ENDBRANCH   5  28
TORSDOF 13
ENDMDL