MODEL 3
REMARK VINA RESULT: -7.806634614      1.638      2.403
REMARK  11 active torsions:
REMARK  status: ('A' for Active; 'I' for Inactive)
REMARK    1  A    between atoms: N1_1  and  N2_4
REMARK    2  A    between atoms: N2_4  and  C1_6
REMARK    3  A    between atoms: C1_6  and  O1_7
REMARK    4  A    between atoms: C1_6  and  C2_9
REMARK    5  A    between atoms: C3_10  and  S1_11
REMARK    6  A    between atoms: S1_11  and  S2_12
REMARK    7  A    between atoms: S2_12  and  C4_13
REMARK    8  A    between atoms: N5_22  and  N6_23
REMARK    9  A    between atoms: C9_31  and  C10_32
REMARK   10  A    between atoms: C11_35  and  O6_36
REMARK   11  A    between atoms: C12_38  and  O7_39
ROOT
HETATM    1  C2  UNL     1      12.995  15.422   9.082  1.00  0.00     0.086 A
HETATM    2  C3  UNL     1      11.953  15.656   8.222  1.00  0.00     0.099 A
HETATM    3  N8  UNL     1      10.714  15.130   8.378  1.00  0.00    -0.342 N
ATOM      4  H8  UNL     1       9.996  15.357   7.690  1.00  0.00     0.167 HD
HETATM    5  C9  UNL     1      10.393  14.318   9.406  1.00  0.00     0.147 A
HETATM    6  C11 UNL     1      11.391  14.053  10.288  1.00  0.00     0.134 A
HETATM    7  C12 UNL     1      12.712  14.579  10.175  1.00  0.00     0.118 A
ENDROOT
BRANCH   2   8
HETATM    8  S1  UNL     1      12.215  16.701   6.769  1.00  0.00    -0.032 SA
BRANCH   8   9
HETATM    9  S2  UNL     1      12.572  15.414   5.109  1.00  0.00    -0.030 SA
BRANCH   9  10
HETATM   10  C4  UNL     1      14.309  15.387   4.721  1.00  0.00     0.125 A
HETATM   11  C5  UNL     1      15.178  16.441   4.742  1.00  0.00     0.145 A
HETATM   12  N3  UNL     1      16.416  16.026   4.386  1.00  0.00    -0.198 N
HETATM   13  C6  UNL     1      16.315  14.710   4.143  1.00  0.00     0.697 A
ATOM     14  H3  UNL     1      17.258  16.599   4.316  1.00  0.00     0.183 HD
HETATM   15  N4  UNL     1      17.225  13.803   3.760  1.00  0.00    -0.139 N
HETATM   16  N7  UNL     1      15.025  14.317   4.348  1.00  0.00    -0.086 N
HETATM   17  C7  UNL     1      16.884  12.514   3.576  1.00  0.00     0.363 A
ATOM     18  H4  UNL     1      18.191  14.094   3.606  1.00  0.00     0.189 HD
HETATM   19  O2  UNL     1      17.690  11.624   3.219  1.00  0.00    -0.244 OA
HETATM   20  N5  UNL     1      15.594  12.146   3.786  1.00  0.00    -0.158 N
HETATM   21  C8  UNL     1      14.658  13.035   4.171  1.00  0.00     0.371 A
HETATM   22  O3  UNL     1      13.459  12.714   4.370  1.00  0.00    -0.243 OA
BRANCH  20  23
HETATM   23  N6  UNL     1      15.174  10.819   3.611  1.00  0.00    -0.330 N
ATOM     24  H62 UNL     1      15.871  10.155   3.273  1.00  0.00     0.177 HD
ATOM     25  H61 UNL     1      14.216  10.533   3.812  1.00  0.00     0.177 HD
ENDBRANCH  20  23
ENDBRANCH   9  10
ENDBRANCH   8   9
ENDBRANCH   2   8
BRANCH   1  26
HETATM   26  C1  UNL     1      14.322  15.971   8.946  1.00  0.00     0.170 C
BRANCH  26  27
HETATM   27  N2  UNL     1      15.510  15.398   8.474  1.00  0.00    -0.286 N
ATOM     28  H2  UNL     1      16.404  15.883   8.558  1.00  0.00     0.188 HD
BRANCH  27  29
HETATM   29  N1  UNL     1      15.416  14.094   7.865  1.00  0.00    -0.343 N
ATOM     30  H12 UNL     1      16.114  13.788   7.186  1.00  0.00     0.176 HD
ATOM     31  H11 UNL     1      14.630  13.506   8.142  1.00  0.00     0.176 HD
ENDBRANCH  27  29
ENDBRANCH  26  27
BRANCH  26  32
HETATM   32  O1  UNL     1      14.459  17.213   9.320  1.00  0.00    -0.344 OA
ATOM     33  H1  UNL     1      14.237  17.359  10.233  1.00  0.00     0.219 HD
ENDBRANCH  26  32
ENDBRANCH   1  26
BRANCH   7  34
HETATM   34  O7  UNL     1      13.611  14.247  11.104  1.00  0.00    -0.357 OA
ATOM     35  H7  UNL     1      13.504  13.517  11.702  1.00  0.00     0.217 HD
ENDBRANCH   7  34
BRANCH   5  36
HETATM   36  C10 UNL     1       9.030  13.805   9.481  1.00  0.00     0.229 C
HETATM   37  O4  UNL     1       8.791  12.595   9.485  1.00  0.00    -0.643 OA
HETATM   38  O5  UNL     1       7.967  14.713   9.549  1.00  0.00    -0.643 OA
ENDBRANCH   5  36
BRANCH   6  39
HETATM   39  O6  UNL     1      11.183  13.249  11.360  1.00  0.00    -0.356 OA
ATOM     40  H6  UNL     1      10.327  13.187  11.768  1.00  0.00     0.218 HD
ENDBRANCH   6  39
TORSDOF 11
ENDMDL