MODEL 3
REMARK VINA RESULT: -7.691239524      1.133      1.505
REMARK  10 active torsions:
REMARK  status: ('A' for Active; 'I' for Inactive)
REMARK    1  A    between atoms: C3_4  and  S1_5
REMARK    2  A    between atoms: S1_5  and  S2_6
REMARK    3  A    between atoms: S2_6  and  C4_7
REMARK       I    between atoms: N3_11  and  C6_12
REMARK    4  A    between atoms: C6_12  and  O3_14
REMARK    5  A    between atoms: O3_14  and  S3_15
REMARK    6  A    between atoms: C7_19  and  O7_20
REMARK    7  A    between atoms: C7_19  and  N4_22
REMARK    8  A    between atoms: N4_22  and  O8_23
REMARK    9  A    between atoms: O8_23  and  C8_24
REMARK       I    between atoms: C8_24  and  N5_26
REMARK   10  A    between atoms: N5_26  and  N6_28
ROOT
HETATM    1  C1  UNL     1      11.389  15.604  10.840  1.00  0.00     0.071 C
HETATM    2  C2  UNL     1      12.553  14.893  10.180  1.00  0.00     0.263 C
HETATM    3  O1  UNL     1      12.414  14.811   8.821  1.00  0.00    -0.338 OA
HETATM    4  C3  UNL     1      13.676  14.863   8.270  1.00  0.00     0.279 C
HETATM    5  C7  UNL     1      14.574  14.827   9.480  1.00  0.00     0.305 C
HETATM    6  O10 UNL     1      13.753  15.536  10.402  1.00  0.00    -0.307 OA
ENDROOT
BRANCH   4   7
HETATM    7  S1  UNL     1      13.924  13.630   7.041  1.00  0.00    -0.056 SA
BRANCH   7   8
HETATM    8  S2  UNL     1      14.388  14.260   5.115  1.00  0.00    -0.066 SA
BRANCH   8   9
HETATM    9  C4  UNL     1      15.631  13.311   4.274  1.00  0.00     0.199 C
HETATM   10  C5  UNL     1      16.083  12.131   5.062  1.00  0.00     0.171 C
HETATM   11  N1  UNL     1      15.675  10.954   4.354  1.00  0.00    -0.123 NA
HETATM   12  N2  UNL     1      14.959  11.334   3.220  1.00  0.00    -0.023 NA
HETATM   13  N3  UNL     1      15.169  12.702   3.050  1.00  0.00    -0.206 N
HETATM   14  C6  UNL     1      14.956  13.388   1.837  1.00  0.00     0.397 C
HETATM   15  O2  UNL     1      14.551  12.809   0.791  1.00  0.00    -0.236 OA
BRANCH  14  16
HETATM   16  O3  UNL     1      15.190  14.747   1.759  1.00  0.00    -0.157 OA
BRANCH  16  17
HETATM   17  S3  UNL     1      16.569  15.381   0.967  1.00  0.00     0.260 S
HETATM   18  O4  UNL     1      17.820  14.704   1.445  1.00  0.00    -0.572 OA
HETATM   19  O5  UNL     1      16.379  15.164  -0.522  1.00  0.00    -0.572 OA
HETATM   20  O6  UNL     1      16.683  17.019   1.312  1.00  0.00    -0.572 OA
ENDBRANCH  16  17
ENDBRANCH  14  16
ENDBRANCH   8   9
ENDBRANCH   7   8
ENDBRANCH   4   7
BRANCH   5  21
HETATM   21  O7  UNL     1      15.722  15.526   9.204  1.00  0.00    -0.348 OA
ATOM     22  H7  UNL     1      16.472  14.982   9.411  1.00  0.00     0.214 HD
ENDBRANCH   5  21
BRANCH   5  23
HETATM   23  N4  UNL     1      14.793  13.536  10.040  1.00  0.00    -0.017 NA
BRANCH  23  24
HETATM   24  O8  UNL     1      15.844  13.582  10.962  1.00  0.00    -0.182 OA
BRANCH  24  25
HETATM   25  C8  UNL     1      15.699  13.155  12.269  1.00  0.00     0.397 C
HETATM   26  O9  UNL     1      15.972  11.962  12.521  1.00  0.00    -0.235 OA
HETATM   27  N5  UNL     1      15.250  14.041  13.309  1.00  0.00    -0.251 N
ATOM     28  H5  UNL     1      15.032  15.012  13.085  1.00  0.00     0.191 HD
BRANCH  27  29
HETATM   29  N6  UNL     1      15.112  13.594  14.605  1.00  0.00    -0.341 N
ATOM     30  H62 UNL     1      14.184  13.602  15.029  1.00  0.00     0.177 HD
ATOM     31  H61 UNL     1      15.921  13.261  15.131  1.00  0.00     0.177 HD
ENDBRANCH  27  29
ENDBRANCH  24  25
ENDBRANCH  23  24
ENDBRANCH   5  23
TORSDOF 10
ENDMDL