MODEL 5
REMARK VINA RESULT: -7.661116702      2.231      2.714
REMARK  7 active torsions:
REMARK  status: ('A' for Active; 'I' for Inactive)
REMARK       I    between atoms: C2_2  and  N1_4
REMARK    1  A    between atoms: N1_4  and  C3_6
REMARK    2  A    between atoms: C3_6  and  C4_7
REMARK    3  A    between atoms: C3_6  and  C8_29
REMARK    4  A    between atoms: N4_12  and  C5_13
REMARK    5  A    between atoms: C10_36  and  C11_37
REMARK    6  A    between atoms: C11_37  and  O3_38
REMARK    7  A    between atoms: C11_37  and  O4_40
ROOT
HETATM    1  C8  UNL     1      11.352  15.063   7.590  1.00  0.00     0.131 A
HETATM    2  N10 UNL     1      12.408  15.040   8.398  1.00  0.00    -0.329 N
ATOM      3  H10 UNL     1      13.316  15.352   8.053  1.00  0.00     0.168 HD
HETATM    4  C9  UNL     1      12.285  14.602   9.684  1.00  0.00     0.114 A
HETATM    5  N11 UNL     1      13.351  14.596  10.393  1.00  0.00    -0.385 N
ATOM      6 1H11 UNL     1      13.260  14.268  11.355  1.00  0.00     0.157 HD
ATOM      7 2H11 UNL     1      14.280  14.896  10.096  1.00  0.00     0.157 HD
HETATM    8  C10 UNL     1      11.047  14.202  10.080  1.00  0.00     0.082 A
HETATM    9  C12 UNL     1       9.974  14.238   9.217  1.00  0.00     0.148 A
HETATM   10  N12 UNL     1       8.682  13.819   9.634  1.00  0.00    -0.081 NA
HETATM   11  N13 UNL     1      10.110  14.679   7.933  1.00  0.00    -0.221 N
HETATM   12  C13 UNL     1       9.024  14.717   7.057  1.00  0.00     0.192 C
HETATM   13  N14 UNL     1       8.111  14.748   6.345  1.00  0.00    -0.171 NA
ENDROOT
BRANCH   1  14
HETATM   14  C3  UNL     1      11.555  15.553   6.200  1.00  0.00     0.223 C
BRANCH  14  15
HETATM   15  N1  UNL     1      11.961  16.951   6.275  1.00  0.00    -0.343 N
HETATM   16  C2  UNL     1      11.092  17.997   5.894  1.00  0.00     0.214 C
HETATM   17  C1  UNL     1      11.556  19.401   5.992  1.00  0.00     0.117 C
HETATM   18  O1  UNL     1       9.929  17.770   5.473  1.00  0.00    -0.274 OA
ATOM     19  H1  UNL     1      12.897  17.180   6.611  1.00  0.00     0.163 HD
ENDBRANCH  14  15
BRANCH  14  20
HETATM   20  C4  UNL     1      12.620  14.726   5.563  1.00  0.00     0.143 A
HETATM   21  N2  UNL     1      13.529  15.372   4.811  1.00  0.00    -0.271 N
HETATM   22  N3  UNL     1      14.474  14.670   4.241  1.00  0.00    -0.218 N
ATOM     23  H2  UNL     1      13.483  16.383   4.688  1.00  0.00     0.190 HD
HETATM   24  N4  UNL     1      14.583  13.352   4.364  1.00  0.00    -0.050 N
ATOM     25  H3  UNL     1      15.164  15.161   3.673  1.00  0.00     0.209 HD
HETATM   26  C7  UNL     1      13.683  12.686   5.113  1.00  0.00     0.701 A
HETATM   27  N8  UNL     1      13.770  11.391   5.249  1.00  0.00    -0.233 N
HETATM   28  N9  UNL     1      12.707  13.398   5.703  1.00  0.00    -0.175 N
ATOM     29  H82 UNL     1      14.509  10.850   4.800  1.00  0.00     0.174 HD
ATOM     30  H81 UNL     1      13.088  10.886   5.816  1.00  0.00     0.174 HD
ATOM     31  H9  UNL     1      12.015  12.913   6.274  1.00  0.00     0.185 HD
BRANCH  24  32
HETATM   32  C5  UNL     1      15.640  12.659   3.712  1.00  0.00     0.214 A
HETATM   33  N5  UNL     1      16.876  12.373   4.163  1.00  0.00    -0.220 N
HETATM   34  O2  UNL     1      17.540  11.717   3.245  1.00  0.00    -0.153 OA
ATOM     35  H5  UNL     1      17.240  12.629   5.080  1.00  0.00     0.198 HD
HETATM   36  N6  UNL     1      16.772  11.560   2.190  1.00  0.00    -0.222 N
HETATM   37  C6  UNL     1      15.578  12.132   2.437  1.00  0.00     0.170 A
ATOM     38  H6  UNL     1      17.037  11.084   1.328  1.00  0.00     0.198 HD
HETATM   39  N7  UNL     1      14.535  12.209   1.678  1.00  0.00    -0.381 N
ATOM     40  H72 UNL     1      13.631  12.641   1.866  1.00  0.00     0.157 HD
ATOM     41  H71 UNL     1      14.489  11.820   0.737  1.00  0.00     0.157 HD
ENDBRANCH  24  32
ENDBRANCH  14  20
ENDBRANCH   1  14
BRANCH   8  42
HETATM   42  C11 UNL     1      10.802  13.740  11.452  1.00  0.00     0.295 C
BRANCH  42  43
HETATM   43  O3  UNL     1      10.208  14.702  12.240  1.00  0.00    -0.367 OA
ATOM     44  H3  UNL     1      10.830  15.334  12.581  1.00  0.00     0.213 HD
ENDBRANCH  42  43
BRANCH  42  45
HETATM   45  O4  UNL     1      10.130  12.522  11.495  1.00  0.00    -0.367 OA
ATOM     46  H4  UNL     1      10.687  11.790  11.259  1.00  0.00     0.213 HD
ENDBRANCH  42  45
ENDBRANCH   8  42
TORSDOF 7
ENDMDL