MODEL 3
REMARK VINA RESULT: -7.832577482      1.024      1.075
REMARK  8 active torsions:
REMARK  status: ('A' for Active; 'I' for Inactive)
REMARK       I    between atoms: C1_4  and  N3_6
REMARK    1  A    between atoms: C4_11  and  N5_12
REMARK    2  A    between atoms: C5_13  and  C6_14
REMARK    3  A    between atoms: N8_19  and  N9_20
REMARK    4  A    between atoms: N9_20  and  C7_22
REMARK    5  A    between atoms: C7_22  and  C8_23
REMARK    6  A    between atoms: C9_30  and  C10_31
REMARK    7  A    between atoms: C10_31  and  N13_32
REMARK    8  A    between atoms: N13_32  and  O2_34
ROOT
HETATM    1  N5  UNL     1      14.044  15.335   6.999  1.00  0.00    -0.224 N
HETATM    2  C5  UNL     1      14.097  14.125   7.533  1.00  0.00     0.200 A
HETATM    3  N7  UNL     1      13.655  13.224   6.569  1.00  0.00    -0.255 N
ATOM      4  H7  UNL     1      13.591  12.213   6.692  1.00  0.00     0.191 HD
HETATM    5  N8  UNL     1      13.341  13.866   5.495  1.00  0.00    -0.140 N
HETATM    6  C11 UNL     1      13.579  15.200   5.738  1.00  0.00     0.370 A
HETATM    7  O3  UNL     1      13.391  16.093   4.891  1.00  0.00    -0.242 OA
ENDROOT
BRANCH   1   8
HETATM    8  C4  UNL     1      14.383  16.551   7.673  1.00  0.00     0.149 A
HETATM    9  C3  UNL     1      13.460  17.327   8.297  1.00  0.00     0.073 A
HETATM   10  C2  UNL     1      12.098  17.244   8.564  1.00  0.00     0.127 A
HETATM   11  C13 UNL     1      13.852  18.541   8.860  1.00  0.00     0.161 A
HETATM   12  N4  UNL     1      11.752  18.377   9.248  1.00  0.00    -0.300 N
HETATM   13  N3  UNL     1      12.761  19.150   9.426  1.00  0.00    -0.210 N
ATOM     14  H4  UNL     1      10.808  18.582   9.576  1.00  0.00     0.186 HD
HETATM   15  C1  UNL     1      12.959  20.433  10.019  1.00  0.00     0.209 C
HETATM   16  N1  UNL     1      12.605  21.472   9.377  1.00  0.00    -0.372 N
HETATM   17  N2  UNL     1      13.574  20.550  11.285  1.00  0.00    -0.062 NA
ATOM     18  H12 UNL     1      12.747  22.390   9.800  1.00  0.00     0.158 HD
ATOM     19  H11 UNL     1      12.161  21.388   8.463  1.00  0.00     0.158 HD
HETATM   20  N16 UNL     1      15.138  18.890   8.764  1.00  0.00    -0.174 N
HETATM   21  C12 UNL     1      16.073  18.101   8.136  1.00  0.00     0.679 A
ATOM     22  H16 UNL     1      15.438  19.775   9.173  1.00  0.00     0.186 HD
HETATM   23  N14 UNL     1      15.700  16.954   7.602  1.00  0.00    -0.175 N
HETATM   24  N15 UNL     1      17.273  18.460   8.096  1.00  0.00    -0.234 N
ATOM     25  H14 UNL     1      16.387  16.363   7.135  1.00  0.00     0.186 HD
ATOM     26 2H15 UNL     1      17.966  17.875   7.631  1.00  0.00     0.174 HD
ATOM     27 1H15 UNL     1      17.562  19.346   8.509  1.00  0.00     0.174 HD
ENDBRANCH   1   8
BRANCH   2  28
HETATM   28  C6  UNL     1      14.501  13.639   8.852  1.00  0.00     0.300 C
HETATM   29  N6  UNL     1      15.757  14.042   9.403  1.00  0.00    -0.054 NA
HETATM   30  O1  UNL     1      13.790  12.877   9.513  1.00  0.00    -0.268 OA
ENDBRANCH   2  28
BRANCH   5  31
HETATM   31  N9  UNL     1      12.981  13.330   4.303  1.00  0.00    -0.284 N
ATOM     32  H9  UNL     1      11.982  13.133   4.240  1.00  0.00     0.188 HD
BRANCH  31  33
HETATM   33  C7  UNL     1      13.670  12.992   3.154  1.00  0.00     0.142 C
BRANCH  33  34
HETATM   34  C8  UNL     1      15.065  12.554   3.145  1.00  0.00     0.096 A
HETATM   35  N10 UNL     1      15.707  11.436   3.399  1.00  0.00    -0.283 N
HETATM   36  N11 UNL     1      17.034  11.622   3.495  1.00  0.00    -0.242 N
ATOM     37  H10 UNL     1      15.250  10.531   3.512  1.00  0.00     0.188 HD
HETATM   38  N12 UNL     1      17.215  12.903   3.290  1.00  0.00    -0.283 N
ATOM     39  H11 UNL     1      17.746  10.918   3.687  1.00  0.00     0.208 HD
HETATM   40  C9  UNL     1      16.118  13.554   3.070  1.00  0.00     0.096 A
ATOM     41  H12 UNL     1      18.133  13.346   3.301  1.00  0.00     0.188 HD
BRANCH  40  42
HETATM   42  C10 UNL     1      15.824  14.894   2.659  1.00  0.00     0.147 C
BRANCH  42  43
HETATM   43  N13 UNL     1      16.123  15.929   3.330  1.00  0.00    -0.278 N
ATOM     44  H13 UNL     1      16.099  16.842   2.876  1.00  0.00     0.193 HD
BRANCH  43  45
HETATM   45  O2  UNL     1      16.481  15.846   4.670  1.00  0.00    -0.290 OA
ATOM     46  H2  UNL     1      17.009  16.519   5.085  1.00  0.00     0.244 HD
ENDBRANCH  43  45
ENDBRANCH  42  43
ENDBRANCH  40  42
ENDBRANCH  33  34
ENDBRANCH  31  33
ENDBRANCH   5  31
TORSDOF 8
ENDMDL