MODEL 2
REMARK VINA RESULT: -7.241001578      2.344      6.245
REMARK  11 active torsions:
REMARK  status: ('A' for Active; 'I' for Inactive)
REMARK       I    between atoms: C2_2  and  N1_4
REMARK    1  A    between atoms: N1_4  and  C3_6
REMARK    2  A    between atoms: C4_7  and  O2_8
REMARK    3  A    between atoms: C7_14  and  O3_15
REMARK    4  A    between atoms: C8_17  and  N3_18
REMARK    5  A    between atoms: N3_18  and  N4_20
REMARK    6  A    between atoms: N4_20  and  C9_21
REMARK    7  A    between atoms: C9_21  and  C10_22
REMARK    8  A    between atoms: C10_22  and  S1_23
REMARK    9  A    between atoms: S1_23  and  N5_26
REMARK   10  A    between atoms: N6_28  and  C11_30
REMARK   11  A    between atoms: N10_37  and  N11_38
ROOT
HETATM    1  C3  UNL     1      14.868  14.206   1.410  1.00  0.00     0.120 A
HETATM    2  C4  UNL     1      14.153  13.110   1.007  1.00  0.00     0.172 A
HETATM    3  N2  UNL     1      13.143  12.652   1.749  1.00  0.00    -0.319 N
ATOM      4  H2  UNL     1      12.612  11.836   1.443  1.00  0.00     0.169 HD
HETATM    5  C5  UNL     1      12.829  13.265   2.893  1.00  0.00     0.140 A
HETATM    6  C6  UNL     1      13.519  14.370   3.340  1.00  0.00     0.091 A
HETATM    7  C7  UNL     1      14.564  14.853   2.580  1.00  0.00     0.114 A
HETATM    8  C8  UNL     1      13.190  15.057   4.592  1.00  0.00     0.149 A
HETATM    9  N12 UNL     1      12.211  14.585   5.280  1.00  0.00    -0.269 N
ATOM     10  H12 UNL     1      11.965  15.049   6.154  1.00  0.00     0.190 HD
HETATM   11  N13 UNL     1      11.475  13.479   4.891  1.00  0.00    -0.239 N
ATOM     12  H13 UNL     1      10.712  13.159   5.487  1.00  0.00     0.208 HD
HETATM   13  N14 UNL     1      11.743  12.795   3.721  1.00  0.00    -0.270 N
ATOM     14  H14 UNL     1      11.190  11.982   3.450  1.00  0.00     0.190 HD
ENDROOT
BRANCH   8  15
HETATM   15  N3  UNL     1      13.937  16.193   5.002  1.00  0.00    -0.287 N
ATOM     16  H3  UNL     1      13.803  17.096   4.545  1.00  0.00     0.184 HD
BRANCH  15  17
HETATM   17  N4  UNL     1      14.855  16.053   6.039  1.00  0.00    -0.139 NA
BRANCH  17  18
HETATM   18  C9  UNL     1      14.277  16.391   7.322  1.00  0.00     0.151 C
BRANCH  18  19
HETATM   19  C10 UNL     1      14.862  15.592   8.446  1.00  0.00     0.182 C
BRANCH  19  20
HETATM   20  S1  UNL     1      14.066  14.003   8.516  1.00  0.00     0.245 S
HETATM   21  O4  UNL     1      12.566  14.232   8.458  1.00  0.00    -0.204 OA
HETATM   22  O5  UNL     1      14.387  13.282   9.790  1.00  0.00    -0.204 OA
BRANCH  20  23
HETATM   23  N5  UNL     1      14.502  13.131   7.118  1.00  0.00    -0.212 N
HETATM   24  N6  UNL     1      15.586  13.200   6.500  1.00  0.00    -0.118 N
ATOM     25  H6  UNL     1      16.332  13.824   6.808  1.00  0.00     0.206 HD
ATOM     26  H5  UNL     1      13.805  12.485   6.747  1.00  0.00     0.200 HD
BRANCH  24  27
HETATM   27  C11 UNL     1      15.741  12.374   5.343  1.00  0.00     0.750 A
HETATM   28  N7  UNL     1      15.079  11.255   5.087  1.00  0.00    -0.112 N
HETATM   29  N8  UNL     1      15.482  10.764   3.935  1.00  0.00    -0.212 N
ATOM     30  H7  UNL     1      14.368  10.840   5.689  1.00  0.00     0.207 HD
HETATM   31  N9  UNL     1      16.407  11.572   3.451  1.00  0.00    -0.192 N
ATOM     32  H8  UNL     1      15.141   9.910   3.494  1.00  0.00     0.210 HD
HETATM   33  N10 UNL     1      16.577  12.564   4.303  1.00  0.00    -0.008 N
ATOM     34  H9  UNL     1      16.905  11.450   2.569  1.00  0.00     0.212 HD
BRANCH  33  35
HETATM   35  N11 UNL     1      17.462  13.663   4.203  1.00  0.00    -0.308 N
ATOM     36 2H11 UNL     1      17.599  14.426   4.866  1.00  0.00     0.179 HD
ATOM     37 1H11 UNL     1      18.088  13.812   3.411  1.00  0.00     0.179 HD
ENDBRANCH  33  35
ENDBRANCH  24  27
ENDBRANCH  20  23
ENDBRANCH  19  20
ENDBRANCH  18  19
ENDBRANCH  17  18
ENDBRANCH  15  17
ENDBRANCH   8  15
BRANCH   7  38
HETATM   38  O3  UNL     1      15.285  15.977   3.011  1.00  0.00    -0.357 OA
ATOM     39  H3  UNL     1      15.255  16.275   3.913  1.00  0.00     0.217 HD
ENDBRANCH   7  38
BRANCH   1  40
HETATM   40  N1  UNL     1      15.949  14.693   0.610  1.00  0.00    -0.322 N
HETATM   41  C2  UNL     1      17.180  13.983   0.512  1.00  0.00     0.218 C
HETATM   42  C1  UNL     1      18.313  14.438  -0.291  1.00  0.00     0.117 C
HETATM   43  O1  UNL     1      17.314  12.893   1.154  1.00  0.00    -0.274 OA
ATOM     44  H1  UNL     1      15.835  15.568   0.099  1.00  0.00     0.169 HD
ENDBRANCH   1  40
BRANCH   2  45
HETATM   45  O2  UNL     1      14.500  12.470  -0.212  1.00  0.00    -0.344 OA
ATOM     46  H2  UNL     1      14.087  11.643  -0.433  1.00  0.00     0.219 HD
ENDBRANCH   2  45
TORSDOF 11
ENDMDL