MODEL 2
REMARK VINA RESULT: -7.748933283      1.299      1.806
REMARK  10 active torsions:
REMARK  status: ('A' for Active; 'I' for Inactive)
REMARK    1  A    between atoms: N1_1  and  N2_4
REMARK    2  A    between atoms: N2_4  and  C1_6
REMARK    3  A    between atoms: C2_12  and  C3_13
REMARK       I    between atoms: C3_13  and  N5_15
REMARK    4  A    between atoms: N5_15  and  C4_17
REMARK    5  A    between atoms: C4_17  and  C5_18
REMARK    6  A    between atoms: C6_24  and  C7_25
REMARK    7  A    between atoms: C7_25  and  N8_26
REMARK    8  A    between atoms: C7_25  and  C8_30
REMARK    9  A    between atoms: N8_26  and  N9_27
REMARK   10  A    between atoms: C13_41  and  O5_42
ROOT
HETATM    1  C5  UNL     1      15.720  14.857   3.920  1.00  0.00     0.078 A
HETATM    2  N6  UNL     1      17.038  14.914   3.673  1.00  0.00    -0.242 N
ATOM      3  H6  UNL     1      17.508  15.699   3.221  1.00  0.00     0.196 HD
HETATM    4  O3  UNL     1      17.635  13.842   4.083  1.00  0.00    -0.157 OA
HETATM    5  N7  UNL     1      16.750  13.073   4.597  1.00  0.00    -0.242 N
ATOM      6  H7  UNL     1      16.943  12.157   5.001  1.00  0.00     0.196 HD
HETATM    7  C6  UNL     1      15.535  13.638   4.531  1.00  0.00     0.089 A
ENDROOT
BRANCH   7   8
HETATM    8  C7  UNL     1      14.253  13.077   5.018  1.00  0.00     0.220 C
BRANCH   8   9
HETATM    9  N8  UNL     1      14.298  11.640   4.917  1.00  0.00    -0.129 NA
BRANCH   9  10
HETATM   10  N9  UNL     1      14.130  11.229   3.589  1.00  0.00    -0.347 N
ATOM     11  H92 UNL     1      14.064  11.873   2.800  1.00  0.00     0.172 HD
ATOM     12  H91 UNL     1      14.083  10.212   3.526  1.00  0.00     0.172 HD
ENDBRANCH   9  10
ENDBRANCH   8   9
BRANCH   8  13
HETATM   13  C8  UNL     1      14.057  13.518   6.442  1.00  0.00     0.113 A
HETATM   14  N10 UNL     1      15.097  13.565   7.287  1.00  0.00    -0.310 N
HETATM   15  C9  UNL     1      14.908  13.956   8.557  1.00  0.00     0.264 A
ATOM     16  H10 UNL     1      16.030  13.304   6.967  1.00  0.00     0.170 HD
HETATM   17  O4  UNL     1      15.898  13.990   9.321  1.00  0.00    -0.267 OA
HETATM   18  C10 UNL     1      13.664  14.316   9.029  1.00  0.00     0.121 A
HETATM   19  C11 UNL     1      12.605  14.266   8.159  1.00  0.00     0.134 A
HETATM   20  C14 UNL     1      12.722  14.774  10.046  1.00  0.00     0.135 A
HETATM   21  N11 UNL     1      12.842  13.868   6.895  1.00  0.00    -0.329 N
HETATM   22  N12 UNL     1      11.688  14.716   9.172  1.00  0.00    -0.288 N
ATOM     23  H11 UNL     1      12.057  13.829   6.246  1.00  0.00     0.168 HD
HETATM   24  C12 UNL     1      10.557  15.096   9.786  1.00  0.00     0.156 A
HETATM   25  C13 UNL     1      10.894  15.399  11.083  1.00  0.00     0.158 A
HETATM   26  N13 UNL     1      12.228  15.197  11.233  1.00  0.00    -0.321 N
ATOM     27  H13 UNL     1      12.763  15.339  12.089  1.00  0.00     0.169 HD
BRANCH  25  28
HETATM   28  O5  UNL     1      10.041  15.836  12.087  1.00  0.00    -0.345 OA
ATOM     29  H5  UNL     1       9.329  15.349  12.486  1.00  0.00     0.219 HD
ENDBRANCH  25  28
ENDBRANCH   8  13
ENDBRANCH   7   8
BRANCH   1  30
HETATM   30  C4  UNL     1      14.654  15.853   3.637  1.00  0.00     0.184 C
BRANCH  30  31
HETATM   31  N5  UNL     1      15.019  17.118   4.203  1.00  0.00    -0.350 N
HETATM   32  C3  UNL     1      14.738  17.457   5.549  1.00  0.00     0.274 C
HETATM   33  O2  UNL     1      14.154  16.635   6.285  1.00  0.00    -0.266 OA
ATOM     34  H5  UNL     1      15.500  17.800   3.616  1.00  0.00     0.163 HD
BRANCH  32  35
HETATM   35  C2  UNL     1      15.120  18.768   6.098  1.00  0.00     0.171 A
HETATM   36  C1  UNL     1      16.094  19.015   7.042  1.00  0.00     0.176 A
HETATM   37  N3  UNL     1      16.119  20.342   7.258  1.00  0.00    -0.222 N
HETATM   38  O1  UNL     1      15.225  20.866   6.500  1.00  0.00    -0.155 OA
ATOM     39  H3  UNL     1      16.734  20.838   7.903  1.00  0.00     0.198 HD
HETATM   40  N4  UNL     1      14.599  19.973   5.787  1.00  0.00    -0.232 N
ATOM     41  H4  UNL     1      13.851  20.152   5.117  1.00  0.00     0.197 HD
BRANCH  36  42
HETATM   42  N2  UNL     1      16.831  18.099   7.598  1.00  0.00    -0.289 N
ATOM     43  H2  UNL     1      17.832  18.096   7.399  1.00  0.00     0.188 HD
BRANCH  42  44
HETATM   44  N1  UNL     1      16.328  17.129   8.444  1.00  0.00    -0.344 N
ATOM     45  H12 UNL     1      16.003  17.433   9.362  1.00  0.00     0.176 HD
ATOM     46  H11 UNL     1      16.271  16.142   8.194  1.00  0.00     0.176 HD
ENDBRANCH  42  44
ENDBRANCH  36  42
ENDBRANCH  32  35
ENDBRANCH  30  31
ENDBRANCH   1  30
TORSDOF 10
ENDMDL