MODEL 1
REMARK VINA RESULT: -8.414697225      0.000      0.000
REMARK  17 active torsions:
REMARK  status: ('A' for Active; 'I' for Inactive)
REMARK       I    between atoms: C1_2  and  N6_42
REMARK    1  A    between atoms: N2_3  and  C2_5
REMARK    2  A    between atoms: C2_5  and  C3_6
REMARK    3  A    between atoms: C3_6  and  C4_7
REMARK    4  A    between atoms: C4_7  and  C5_8
REMARK       I    between atoms: C5_8  and  N3_10
REMARK       I    between atoms: N3_10  and  C6_12
REMARK    5  A    between atoms: C6_12  and  C7_14
REMARK    6  A    between atoms: C10_17  and  C11_18
REMARK    7  A    between atoms: C11_18  and  C12_19
REMARK    8  A    between atoms: C12_19  and  C13_20
REMARK    9  A    between atoms: C16_23  and  C17_24
REMARK   10  A    between atoms: C17_24  and  N4_25
REMARK   11  A    between atoms: N5_28  and  C20_29
REMARK   12  A    between atoms: C20_29  and  C21_30
REMARK   13  A    between atoms: C21_30  and  C22_31
REMARK   14  A    between atoms: C22_31  and  O3_32
REMARK   15  A    between atoms: N6_42  and  C31_44
REMARK   16  A    between atoms: C31_44  and  C32_45
REMARK   17  A    between atoms: C32_45  and  O4_46
ROOT
HETATM    1  C7  UNL     1       3.462  -1.471  12.823  1.00  0.00     0.032 A
HETATM    2  C8  UNL     1       2.406  -1.200  13.672  1.00  0.00     0.017 A
HETATM    3  C9  UNL     1       1.336  -0.474  13.199  1.00  0.00     0.008 A
HETATM    4  C10 UNL     1       1.332  -0.026  11.880  1.00  0.00    -0.058 A
HETATM    5  C29 UNL     1       2.370  -0.294  11.045  1.00  0.00     0.008 A
HETATM    6  C30 UNL     1       3.455  -1.031  11.527  1.00  0.00     0.017 A
ENDROOT
BRANCH   4   7
HETATM    7  C11 UNL     1       0.179   0.754  11.395  1.00  0.00     0.043 C
BRANCH   7   8
HETATM    8  C12 UNL     1       0.324   2.244  11.713  1.00  0.00     0.043 C
BRANCH   8   9
HETATM    9  C13 UNL     1       1.025   2.876  10.556  1.00  0.00    -0.058 A
HETATM   10  C14 UNL     1       2.247   3.487  10.751  1.00  0.00     0.007 A
HETATM   11  C15 UNL     1       2.917   4.081   9.697  1.00  0.00     0.009 A
HETATM   12  C16 UNL     1       2.408   4.093   8.417  1.00  0.00    -0.032 A
HETATM   13  C27 UNL     1       1.188   3.481   8.232  1.00  0.00     0.009 A
HETATM   14  C28 UNL     1       0.505   2.880   9.288  1.00  0.00     0.007 A
BRANCH  12  15
HETATM   15  C17 UNL     1       3.179   4.743   7.347  1.00  0.00     0.276 C
BRANCH  15  16
HETATM   16  N4  UNL     1       4.193   3.924   6.766  1.00  0.00    -0.058 N
HETATM   17  C18 UNL     1       3.614   3.223   5.607  1.00  0.00     0.266 C
HETATM   18  C19 UNL     1       4.533   2.144   5.122  1.00  0.00     0.265 C
HETATM   19  N5  UNL     1       5.879   2.498   5.527  1.00  0.00    -0.062 N
HETATM   20  C23 UNL     1       5.943   2.294   6.973  1.00  0.00     0.265 C
HETATM   21  C25 UNL     1       6.148   3.904   5.301  1.00  0.00     0.265 C
HETATM   22  C24 UNL     1       4.796   2.978   7.682  1.00  0.00     0.266 C
HETATM   23  C26 UNL     1       5.275   4.733   6.234  1.00  0.00     0.266 C
BRANCH  19  24
HETATM   24  C20 UNL     1       6.875   1.659   4.925  1.00  0.00     0.239 C
BRANCH  24  25
HETATM   25  C21 UNL     1       6.939   0.283   5.547  1.00  0.00     0.054 C
BRANCH  25  26
HETATM   26  C22 UNL     1       6.805  -0.731   4.432  1.00  0.00     0.165 C
BRANCH  26  27
HETATM   27  O3  UNL     1       5.741  -1.612   4.731  1.00  0.00    -0.401 OA
ATOM     28  H3  UNL     1       6.095  -2.466   4.949  1.00  0.00     0.209 HD
ENDBRANCH  26  27
ENDBRANCH  25  26
ENDBRANCH  24  25
ENDBRANCH  19  24
ENDBRANCH  15  16
ENDBRANCH  12  15
ENDBRANCH   8   9
ENDBRANCH   7   8
ENDBRANCH   4   7
BRANCH   1  29
HETATM   29  C6  UNL     1       4.577  -2.245  13.333  1.00  0.00     0.258 C
HETATM   30  N3  UNL     1       5.678  -1.607  13.925  1.00  0.00    -0.293 N
HETATM   31  C5  UNL     1       6.818  -2.280  14.449  1.00  0.00     0.224 C
ATOM     32  H3  UNL     1       5.660  -0.589  13.986  1.00  0.00     0.172 HD
HETATM   33  O1  UNL     1       7.713  -1.534  14.924  1.00  0.00    -0.273 OA
HETATM   34  O2  UNL     1       4.534  -3.484  13.233  1.00  0.00    -0.267 OA
BRANCH  31  35
HETATM   35  C4  UNL     1       6.967  -3.716  14.449  1.00  0.00     0.105 C
BRANCH  35  36
HETATM   36  C3  UNL     1       7.376  -4.426  15.670  1.00  0.00     0.029 C
BRANCH  36  37
HETATM   37  C2  UNL     1       6.365  -4.985  16.585  1.00  0.00     0.122 C
BRANCH  37  38
HETATM   38  N2  UNL     1       5.597  -6.104  16.199  1.00  0.00    -0.365 N
HETATM   39  C1  UNL     1       4.363  -6.052  15.844  1.00  0.00     0.184 C
HETATM   40  N1  UNL     1       3.684  -7.231  15.479  1.00  0.00    -0.064 NA
HETATM   41  N6  UNL     1       3.717  -4.793  15.832  1.00  0.00    -0.363 N
ATOM     42  H6  UNL     1       3.973  -4.123  15.108  1.00  0.00     0.162 HD
ATOM     43  H2  UNL     1       6.052  -7.016  16.203  1.00  0.00     0.162 HD
BRANCH  41  44
HETATM   44  C31 UNL     1       2.713  -4.414  16.800  1.00  0.00     0.148 C
BRANCH  44  45
HETATM   45  C32 UNL     1       2.733  -2.896  16.981  1.00  0.00     0.183 C
BRANCH  45  46
HETATM   46  O4  UNL     1       3.973  -2.374  16.649  1.00  0.00    -0.399 OA
ATOM     47  H4  UNL     1       4.449  -2.105  17.426  1.00  0.00     0.209 HD
ENDBRANCH  45  46
ENDBRANCH  44  45
ENDBRANCH  41  44
ENDBRANCH  37  38
ENDBRANCH  36  37
ENDBRANCH  35  36
ENDBRANCH  31  35
ENDBRANCH   1  29
TORSDOF 17
ENDMDL