MODEL 5
REMARK VINA RESULT: -8.250820198      2.400      9.881
REMARK  18 active torsions:
REMARK  status: ('A' for Active; 'I' for Inactive)
REMARK    1  A    between atoms: N1_2  and  C2_4
REMARK    2  A    between atoms: N2_6  and  C4_7
REMARK    3  A    between atoms: C4_7  and  C5_8
REMARK    4  A    between atoms: C5_8  and  C6_9
REMARK    5  A    between atoms: C6_9  and  C7_10
REMARK    6  A    between atoms: C7_10  and  C8_11
REMARK    7  A    between atoms: C8_11  and  C9_12
REMARK    8  A    between atoms: C9_12  and  C10_13
REMARK    9  A    between atoms: C10_13  and  C11_14
REMARK   10  A    between atoms: C11_14  and  N3_15
REMARK   11  A    between atoms: C22_28  and  C23_29
REMARK   12  A    between atoms: C23_29  and  C24_30
REMARK   13  A    between atoms: C24_30  and  N6_31
REMARK   14  A    between atoms: N7_34  and  C27_35
REMARK   15  A    between atoms: C27_35  and  C28_36
REMARK   16  A    between atoms: C28_36  and  O1_37
REMARK   17  A    between atoms: C28_36  and  C29_39
REMARK   18  A    between atoms: C29_39  and  O2_40
ROOT
HETATM    1  C2  UNL     1       7.829  -1.653  15.089  1.00  0.00     0.116 A
HETATM    2  C3  UNL     1       7.956  -1.050  13.864  1.00  0.00     0.138 A
HETATM    3  N2  UNL     1       6.874  -0.797  13.119  1.00  0.00    -0.361 N
HETATM    4  C21 UNL     1       5.648  -1.152  13.602  1.00  0.00     0.115 A
HETATM    5  C22 UNL     1       5.521  -1.756  14.831  1.00  0.00     0.028 A
HETATM    6  N8  UNL     1       6.608  -2.009  15.578  1.00  0.00    -0.344 N
ATOM      7  H8  UNL     1       6.521  -2.458  16.490  1.00  0.00     0.167 HD
ENDROOT
BRANCH   3   8
HETATM    8  C4  UNL     1       7.025  -0.169  11.836  1.00  0.00     0.128 C
BRANCH   8   9
HETATM    9  C5  UNL     1       8.265   0.693  11.712  1.00  0.00     0.020 C
BRANCH   9  10
HETATM   10  C6  UNL     1       9.070   0.371  10.503  1.00  0.00     0.002 C
BRANCH  10  11
HETATM   11  C7  UNL     1       8.648   1.212   9.276  1.00  0.00     0.000 C
BRANCH  11  12
HETATM   12  C8  UNL     1       8.706   2.662   9.551  1.00  0.00     0.000 C
BRANCH  12  13
HETATM   13  C9  UNL     1       7.525   3.508   9.403  1.00  0.00     0.002 C
BRANCH  13  14
HETATM   14  C10 UNL     1       6.155   3.058   9.616  1.00  0.00     0.020 C
BRANCH  14  15
HETATM   15  C11 UNL     1       5.558   3.180  10.972  1.00  0.00     0.128 C
BRANCH  15  16
HETATM   16  N3  UNL     1       4.091   2.998  10.816  1.00  0.00    -0.364 N
HETATM   17  C12 UNL     1       3.434   3.775   9.954  1.00  0.00     0.117 A
HETATM   18  C13 UNL     1       2.075   3.622   9.795  1.00  0.00     0.073 A
HETATM   19  N4  UNL     1       1.417   4.477   8.859  1.00  0.00    -0.100 NA
HETATM   20  C14 UNL     1       1.376   2.664  10.524  1.00  0.00     0.003 A
HETATM   21  C15 UNL     1       0.026   2.508  10.368  1.00  0.00     0.014 A
HETATM   22  C19 UNL     1       2.098   1.876  11.411  1.00  0.00     0.016 A
HETATM   23  C16 UNL     1      -0.601   1.550  11.113  1.00  0.00     0.003 A
HETATM   24  C17 UNL     1       0.059   0.747  12.000  1.00  0.00     0.027 A
HETATM   25  C18 UNL     1       1.436   0.915  12.150  1.00  0.00     0.058 A
HETATM   26  N5  UNL     1       2.155   0.097  13.066  1.00  0.00    -0.102 NA
HETATM   27  C20 UNL     1       3.460   2.075  11.529  1.00  0.00     0.104 A
ENDBRANCH  15  16
ENDBRANCH  14  15
ENDBRANCH  13  14
ENDBRANCH  12  13
ENDBRANCH  11  12
ENDBRANCH  10  11
ENDBRANCH   9  10
ENDBRANCH   8   9
ENDBRANCH   3   8
BRANCH   1  28
HETATM   28  N1  UNL     1       8.858  -1.915  15.842  1.00  0.00    -0.380 N
HETATM   29  C1  UNL     1       9.741  -3.015  15.459  1.00  0.00     0.147 C
ATOM     30  H1  UNL     1       9.044  -1.364  16.680  1.00  0.00     0.160 HD
ENDBRANCH   1  28
BRANCH   5  31
HETATM   31  C23 UNL     1       4.178  -2.142  15.352  1.00  0.00     0.086 C
BRANCH  31  32
HETATM   32  C24 UNL     1       3.632  -3.343  14.648  1.00  0.00     0.245 C
BRANCH  32  33
HETATM   33  N6  UNL     1       3.377  -4.387  15.561  1.00  0.00    -0.039 N
HETATM   34  C25 UNL     1       2.770  -5.577  15.049  1.00  0.00     0.267 C
HETATM   35  C26 UNL     1       3.127  -6.651  16.090  1.00  0.00     0.267 C
HETATM   36  N7  UNL     1       3.979  -5.942  16.984  1.00  0.00    -0.037 N
HETATM   37  C30 UNL     1       3.145  -5.038  17.765  1.00  0.00     0.267 C
HETATM   38  C32 UNL     1       4.621  -4.971  16.110  1.00  0.00     0.473 C
HETATM   39  C31 UNL     1       2.713  -3.980  16.773  1.00  0.00     0.267 C
BRANCH  36  40
HETATM   40  C27 UNL     1       4.899  -6.711  17.744  1.00  0.00     0.273 C
BRANCH  40  41
HETATM   41  C28 UNL     1       6.052  -5.947  18.294  1.00  0.00     0.168 C
BRANCH  41  42
HETATM   42  O1  UNL     1       5.947  -5.741  19.670  1.00  0.00    -0.392 OA
ATOM     43  H1  UNL     1       6.664  -5.222  20.015  1.00  0.00     0.210 HD
ENDBRANCH  41  42
BRANCH  41  44
HETATM   44  C29 UNL     1       7.315  -6.761  18.074  1.00  0.00     0.197 C
BRANCH  44  45
HETATM   45  O2  UNL     1       8.434  -6.177  18.644  1.00  0.00    -0.398 OA
ATOM     46  H2  UNL     1       9.140  -6.797  18.784  1.00  0.00     0.209 HD
ENDBRANCH  44  45
ENDBRANCH  41  44
ENDBRANCH  40  41
ENDBRANCH  36  40
ENDBRANCH  32  33
ENDBRANCH  31  32
ENDBRANCH   5  31
TORSDOF 18
ENDMDL