MODEL 2
REMARK VINA RESULT: -9.543280608      1.478      3.987
REMARK  16 active torsions:
REMARK  status: ('A' for Active; 'I' for Inactive)
REMARK       I    between atoms: C1_2  and  N7_41
REMARK    1  A    between atoms: N2_3  and  C2_5
REMARK    2  A    between atoms: C2_5  and  C3_6
REMARK    3  A    between atoms: C3_6  and  N3_7
REMARK    4  A    between atoms: N3_7  and  C4_9
REMARK    5  A    between atoms: N4_11  and  C6_12
REMARK    6  A    between atoms: C6_12  and  C7_13
REMARK    7  A    between atoms: C7_13  and  C8_14
REMARK    8  A    between atoms: C8_14  and  C9_15
REMARK    9  A    between atoms: C9_15  and  C10_16
REMARK   10  A    between atoms: C10_16  and  C11_17
REMARK   11  A    between atoms: C11_17  and  C12_18
REMARK   12  A    between atoms: C12_18  and  C13_19
REMARK       I    between atoms: C13_19  and  N5_21
REMARK   13  A    between atoms: N5_21  and  C14_23
REMARK   14  A    between atoms: C14_23  and  C15_24
REMARK   15  A    between atoms: C15_24  and  C16_25
REMARK   16  A    between atoms: C23_32  and  C24_33
ROOT
HETATM    1  C4  UNL     1       5.858  -0.043  14.383  1.00  0.00     0.117 A
HETATM    2  C5  UNL     1       6.194  -1.356  14.681  1.00  0.00     0.138 A
HETATM    3  N4  UNL     1       5.351  -2.349  14.354  1.00  0.00    -0.361 N
HETATM    4  C22 UNL     1       4.206  -2.001  13.741  1.00  0.00     0.120 A
HETATM    5  C23 UNL     1       3.826  -0.725  13.422  1.00  0.00     0.059 A
HETATM    6  N6  UNL     1       4.679   0.255  13.757  1.00  0.00    -0.340 N
ATOM      7  H6  UNL     1       4.448   1.225  13.543  1.00  0.00     0.167 HD
ENDROOT
BRANCH   3   8
HETATM    8  C6  UNL     1       5.741  -3.695  14.684  1.00  0.00     0.128 C
BRANCH   8   9
HETATM    9  C7  UNL     1       6.954  -3.852  15.467  1.00  0.00     0.020 C
BRANCH   9  10
HETATM   10  C8  UNL     1       8.063  -4.517  14.627  1.00  0.00     0.002 C
BRANCH  10  11
HETATM   11  C9  UNL     1       9.398  -3.999  15.019  1.00  0.00     0.000 C
BRANCH  11  12
HETATM   12  C10 UNL     1       9.920  -4.293  16.374  1.00  0.00     0.000 C
BRANCH  12  13
HETATM   13  C11 UNL     1      10.567  -5.574  16.597  1.00  0.00     0.009 C
BRANCH  13  14
HETATM   14  C12 UNL     1       9.794  -6.809  16.768  1.00  0.00     0.103 C
BRANCH  14  15
HETATM   15  C13 UNL     1       8.605  -6.701  17.650  1.00  0.00     0.217 C
HETATM   16  O1  UNL     1       8.648  -6.352  18.852  1.00  0.00    -0.274 OA
HETATM   17  N5  UNL     1       7.333  -7.012  17.107  1.00  0.00    -0.361 N
ATOM     18  H5  UNL     1       7.292  -7.296  16.128  1.00  0.00     0.162 HD
BRANCH  17  19
HETATM   19  C14 UNL     1       6.102  -6.954  17.836  1.00  0.00     0.127 C
BRANCH  19  20
HETATM   20  C15 UNL     1       4.925  -7.522  17.095  1.00  0.00     0.058 C
BRANCH  20  21
HETATM   21  C16 UNL     1       4.014  -6.448  16.627  1.00  0.00    -0.057 A
HETATM   22  C17 UNL     1       3.797  -5.343  17.445  1.00  0.00     0.007 A
HETATM   23  C18 UNL     1       2.948  -4.354  17.036  1.00  0.00     0.001 A
HETATM   24  C19 UNL     1       2.295  -4.422  15.823  1.00  0.00     0.000 A
HETATM   25  C20 UNL     1       2.501  -5.511  15.001  1.00  0.00     0.001 A
HETATM   26  C21 UNL     1       3.373  -6.510  15.440  1.00  0.00     0.007 A
ENDBRANCH  20  21
ENDBRANCH  19  20
ENDBRANCH  17  19
ENDBRANCH  14  15
ENDBRANCH  13  14
ENDBRANCH  12  13
ENDBRANCH  11  12
ENDBRANCH  10  11
ENDBRANCH   9  10
ENDBRANCH   8   9
ENDBRANCH   3   8
BRANCH   1  27
HETATM   27  N3  UNL     1       6.685   0.907  14.708  1.00  0.00    -0.374 N
ATOM     28  H3  UNL     1       6.397   1.582  15.416  1.00  0.00     0.161 HD
BRANCH  27  29
HETATM   29  C3  UNL     1       7.985   1.048  14.112  1.00  0.00     0.141 C
BRANCH  29  30
HETATM   30  C2  UNL     1       7.958   0.945  12.614  1.00  0.00     0.142 C
BRANCH  30  31
HETATM   31  N2  UNL     1       8.352   2.207  12.039  1.00  0.00    -0.363 N
HETATM   32  C1  UNL     1       7.573   3.142  11.666  1.00  0.00     0.189 C
HETATM   33  N1  UNL     1       8.093   4.340  11.114  1.00  0.00    -0.064 NA
HETATM   34  N7  UNL     1       6.177   2.987  11.803  1.00  0.00    -0.319 N
HETATM   35  C30 UNL     1       5.421   3.099  10.740  1.00  0.00     0.103 A
ATOM     36  H7  UNL     1       5.764   2.791  12.715  1.00  0.00     0.169 HD
HETATM   37  C31 UNL     1       3.947   2.964  10.726  1.00  0.00     0.198 A
HETATM   38  N10 UNL     1       5.801   3.365   9.401  1.00  0.00    -0.319 N
HETATM   39  N8  UNL     1       3.582   3.174   9.370  1.00  0.00    -0.357 N
HETATM   40  C32 UNL     1       4.603   3.390   8.641  1.00  0.00     0.190 A
ATOM     41  H8  UNL     1       2.623   3.153   9.024  1.00  0.00     0.162 HD
HETATM   42  N9  UNL     1       4.592   3.641   7.226  1.00  0.00    -0.063 NA
ATOM     43  H10 UNL     1       6.749   3.510   9.052  1.00  0.00     0.169 HD
ATOM     44  H2  UNL     1       9.352   2.367  11.920  1.00  0.00     0.162 HD
ENDBRANCH  30  31
ENDBRANCH  29  30
ENDBRANCH  27  29
ENDBRANCH   1  27
BRANCH   5  45
HETATM   45  C24 UNL     1       2.536  -0.470  12.743  1.00  0.00    -0.008 A
HETATM   46  C25 UNL     1       1.390  -0.281  13.496  1.00  0.00     0.014 A
HETATM   47  C26 UNL     1       0.142  -0.038  12.953  1.00  0.00     0.001 A
HETATM   48  C27 UNL     1       0.036   0.020  11.586  1.00  0.00     0.000 A
HETATM   49  C28 UNL     1       1.149  -0.161  10.797  1.00  0.00     0.001 A
HETATM   50  C29 UNL     1       2.387  -0.405  11.393  1.00  0.00     0.014 A
ENDBRANCH   5  45
TORSDOF 16
ENDMDL