MODEL 5
REMARK VINA RESULT: -7.905127400      1.494      4.945
REMARK  21 active torsions:
REMARK  status: ('A' for Active; 'I' for Inactive)
REMARK    1  A    between atoms: C2_2  and  C3_3
REMARK    2  A    between atoms: C2_2  and  C18_25
REMARK    3  A    between atoms: C3_3  and  C4_4
REMARK    4  A    between atoms: C10_12  and  C11_13
REMARK    5  A    between atoms: C11_13  and  C12_14
REMARK    6  A    between atoms: C12_14  and  N2_15
REMARK    7  A    between atoms: C12_14  and  C13_19
REMARK    8  A    between atoms: C13_19  and  N3_20
REMARK    9  A    between atoms: N3_20  and  C14_21
REMARK   10  A    between atoms: C14_21  and  C15_22
REMARK       I    between atoms: C18_25  and  N4_27
REMARK   11  A    between atoms: N4_27  and  C19_29
REMARK   12  A    between atoms: C19_29  and  C20_30
REMARK   13  A    between atoms: C19_29  and  C24_38
REMARK   14  A    between atoms: C20_30  and  C21_31
REMARK   15  A    between atoms: C21_31  and  C22_32
REMARK   16  A    between atoms: C22_32  and  N5_33
REMARK   17  A    between atoms: C24_38  and  O2_39
REMARK   18  A    between atoms: C24_38  and  N8_41
REMARK   19  A    between atoms: N8_41  and  C26_43
REMARK   20  A    between atoms: C26_43  and  C27_44
REMARK   21  A    between atoms: C27_44  and  C28_45
ROOT
HETATM    1  C18 UNL     1       4.879  -0.960  13.992  1.00  0.00     0.247 C
HETATM    2  O1  UNL     1       4.951  -0.202  15.000  1.00  0.00    -0.268 OA
HETATM    3  N4  UNL     1       5.439  -2.225  13.976  1.00  0.00    -0.345 N
ATOM      4  H4  UNL     1       5.324  -2.745  13.106  1.00  0.00     0.163 HD
ENDROOT
BRANCH   1   5
HETATM    5  C2  UNL     1       4.168  -0.421  12.829  1.00  0.00     0.004 C
HETATM    6  C1  UNL     1       3.909  -1.119  11.761  1.00  0.00     0.025 C
BRANCH   5   7
HETATM    7  C3  UNL     1       3.735   1.041  12.841  1.00  0.00     0.083 C
BRANCH   7   8
HETATM    8  C4  UNL     1       2.317   1.027  12.408  1.00  0.00    -0.041 A
HETATM    9  C5  UNL     1       1.448   0.030  12.875  1.00  0.00     0.008 A
HETATM   10  C6  UNL     1       0.118  -0.022  12.521  1.00  0.00     0.003 A
HETATM   11  C7  UNL     1      -0.394   0.937  11.677  1.00  0.00     0.030 A
HETATM   12  C8  UNL     1       0.416   1.912  11.211  1.00  0.00     0.043 A
HETATM   13  N1  UNL     1       0.146   2.952  10.369  1.00  0.00    -0.365 N
HETATM   14  C17 UNL     1       1.763   1.968  11.567  1.00  0.00     0.005 A
HETATM   15  C9  UNL     1       1.255   3.663  10.173  1.00  0.00     0.096 A
ATOM     16  H1  UNL     1      -0.764   3.153   9.955  1.00  0.00     0.165 HD
HETATM   17  C10 UNL     1       2.266   3.072  10.903  1.00  0.00    -0.027 A
BRANCH  17  18
HETATM   18  C11 UNL     1       3.653   3.550  10.967  1.00  0.00     0.080 C
BRANCH  18  19
HETATM   19  C12 UNL     1       4.523   2.833   9.919  1.00  0.00     0.240 C
BRANCH  19  20
HETATM   20  N2  UNL     1       4.182   3.309   8.589  1.00  0.00    -0.069 N
ATOM     21  H23 UNL     1       3.630   2.628   8.068  1.00  0.00     0.275 HD
ATOM     22  H22 UNL     1       3.498   4.065   8.615  1.00  0.00     0.275 HD
ATOM     23  H21 UNL     1       5.031   3.577   8.091  1.00  0.00     0.275 HD
ENDBRANCH  19  20
BRANCH  19  24
HETATM   24  C13 UNL     1       5.959   3.149  10.145  1.00  0.00     0.199 C
BRANCH  24  25
HETATM   25  N3  UNL     1       6.566   2.788  11.175  1.00  0.00    -0.381 NA
BRANCH  25  26
HETATM   26  C14 UNL     1       7.179   2.168  12.066  1.00  0.00     0.015 C
BRANCH  26  27
HETATM   27  C15 UNL     1       7.709   1.236  12.804  1.00  0.00     0.116 C
HETATM   28  C16 UNL     1       7.952  -0.151  12.340  1.00  0.00     0.020 C
ENDBRANCH  26  27
ENDBRANCH  25  26
ENDBRANCH  24  25
ENDBRANCH  19  24
ENDBRANCH  18  19
ENDBRANCH  17  18
ENDBRANCH   7   8
ENDBRANCH   5   7
ENDBRANCH   1   5
BRANCH   3  29
HETATM   29  C19 UNL     1       6.172  -2.921  15.032  1.00  0.00     0.159 C
BRANCH  29  30
HETATM   30  C20 UNL     1       7.370  -3.599  14.510  1.00  0.00     0.035 C
BRANCH  30  31
HETATM   31  C21 UNL     1       8.681  -3.200  15.159  1.00  0.00     0.022 C
BRANCH  31  32
HETATM   32  C22 UNL     1       9.449  -4.390  15.705  1.00  0.00     0.122 C
BRANCH  32  33
HETATM   33  N5  UNL     1       8.509  -5.142  16.548  1.00  0.00    -0.367 N
HETATM   34  C23 UNL     1       8.832  -5.571  17.726  1.00  0.00     0.196 C
HETATM   35  N6  UNL     1      10.133  -5.325  18.261  1.00  0.00    -0.067 NA
HETATM   36  N7  UNL     1       7.869  -6.285  18.464  1.00  0.00    -0.067 NA
ATOM     37  H5  UNL     1       7.572  -5.332  16.193  1.00  0.00     0.161 HD
ENDBRANCH  32  33
ENDBRANCH  31  32
ENDBRANCH  30  31
ENDBRANCH  29  30
BRANCH  29  38
HETATM   38  C24 UNL     1       5.207  -3.656  15.834  1.00  0.00     0.136 C
BRANCH  38  39
HETATM   39  O2  UNL     1       5.775  -4.350  16.798  1.00  0.00    -0.348 OA
ATOM     40  H2  UNL     1       5.697  -5.288  16.667  1.00  0.00     0.219 HD
ENDBRANCH  38  39
BRANCH  38  41
HETATM   41  N8  UNL     1       3.820  -3.777  15.806  1.00  0.00    -0.368 N
HETATM   42  C25 UNL     1       2.923  -3.013  16.630  1.00  0.00     0.151 C
BRANCH  41  43
HETATM   43  C26 UNL     1       3.171  -4.767  14.912  1.00  0.00     0.130 C
BRANCH  43  44
HETATM   44  C27 UNL     1       2.523  -5.896  15.614  1.00  0.00     0.078 C
BRANCH  44  45
HETATM   45  C28 UNL     1       3.482  -6.935  16.045  1.00  0.00     0.027 A
HETATM   46  C29 UNL     1       3.750  -8.127  15.356  1.00  0.00     0.114 A
HETATM   47  N9  UNL     1       4.648  -8.794  16.061  1.00  0.00    -0.360 N
HETATM   48  C30 UNL     1       4.979  -8.099  17.176  1.00  0.00     0.180 A
ATOM     49  H9  UNL     1       5.037  -9.701  15.803  1.00  0.00     0.166 HD
HETATM   50  N10 UNL     1       4.261  -6.967  17.153  1.00  0.00    -0.355 N
ATOM     51  H10 UNL     1       4.296  -6.238  17.866  1.00  0.00     0.166 HD
ENDBRANCH  44  45
ENDBRANCH  43  44
ENDBRANCH  41  43
ENDBRANCH  38  41
ENDBRANCH  29  38
ENDBRANCH   3  29
TORSDOF 21
ENDMDL