MODEL 3
REMARK VINA RESULT: -8.966362831      0.901      1.087
REMARK  17 active torsions:
REMARK  status: ('A' for Active; 'I' for Inactive)
REMARK    1  A    between atoms: C2_2  and  C3_3
REMARK       I    between atoms: C3_3  and  N1_5
REMARK    2  A    between atoms: N1_5  and  C4_7
REMARK    3  A    between atoms: C4_7  and  C5_8
REMARK    4  A    between atoms: C5_8  and  C6_9
REMARK    5  A    between atoms: N2_12  and  C9_13
REMARK    6  A    between atoms: C9_13  and  O2_14
REMARK    7  A    between atoms: C9_13  and  C10_16
REMARK    8  A    between atoms: C10_16  and  C11_17
REMARK    9  A    between atoms: C10_16  and  N6_25
REMARK   10  A    between atoms: C11_17  and  C12_18
REMARK   11  A    between atoms: C12_18  and  C13_19
REMARK   12  A    between atoms: C13_19  and  N3_20
REMARK       I    between atoms: N6_25  and  C15_27
REMARK   13  A    between atoms: C15_27  and  C16_29
REMARK   14  A    between atoms: C16_29  and  C17_30
REMARK   15  A    between atoms: C17_30  and  C18_31
REMARK   16  A    between atoms: C18_31  and  C19_32
REMARK   17  A    between atoms: C19_32  and  N7_33
ROOT
HETATM    1  C10 UNL     1       3.468  -0.716  13.945  1.00  0.00     0.082 C
ENDROOT
BRANCH   1   2
HETATM    2  C9  UNL     1       3.594  -1.504  15.138  1.00  0.00     0.165 C
BRANCH   2   3
HETATM    3  N2  UNL     1       3.152  -2.734  15.595  1.00  0.00    -0.360 N
HETATM    4  C8  UNL     1       2.999  -3.033  17.007  1.00  0.00     0.125 C
HETATM    5  C7  UNL     1       2.669  -4.516  17.242  1.00  0.00     0.024 C
HETATM    6  C6  UNL     1       3.605  -5.271  16.348  1.00  0.00    -0.010 C
HETATM    7  C30 UNL     1       3.218  -5.115  14.890  1.00  0.00     0.024 C
HETATM    8  C29 UNL     1       2.748  -3.735  14.594  1.00  0.00     0.125 C
BRANCH   6   9
HETATM    9  C5  UNL     1       3.716  -6.694  16.733  1.00  0.00     0.024 C
BRANCH   9  10
HETATM   10  C4  UNL     1       4.971  -7.006  17.513  1.00  0.00     0.123 C
BRANCH  10  11
HETATM   11  N1  UNL     1       6.091  -6.355  16.823  1.00  0.00    -0.358 N
HETATM   12  C3  UNL     1       7.097  -5.834  17.674  1.00  0.00     0.240 C
HETATM   13  O1  UNL     1       7.021  -5.921  18.941  1.00  0.00    -0.269 OA
ATOM     14  H1  UNL     1       6.143  -6.285  15.806  1.00  0.00     0.162 HD
BRANCH  12  15
HETATM   15  C2  UNL     1       8.272  -5.170  17.147  1.00  0.00     0.064 C
HETATM   16  C1  UNL     1       9.476  -5.387  17.623  1.00  0.00     0.017 C
ENDBRANCH  12  15
ENDBRANCH  10  11
ENDBRANCH   9  10
ENDBRANCH   6   9
ENDBRANCH   2   3
BRANCH   2  17
HETATM   17  O2  UNL     1       4.353  -0.880  16.056  1.00  0.00    -0.344 OA
ATOM     18  H2  UNL     1       5.232  -1.239  16.084  1.00  0.00     0.219 HD
ENDBRANCH   2  17
ENDBRANCH   1   2
BRANCH   1  19
HETATM   19  C11 UNL     1       2.292  -0.005  13.496  1.00  0.00     0.009 C
BRANCH  19  20
HETATM   20  C12 UNL     1       1.349  -0.441  12.482  1.00  0.00     0.049 C
BRANCH  20  21
HETATM   21  C13 UNL     1       1.386   0.180  11.108  1.00  0.00     0.126 C
BRANCH  21  22
HETATM   22  N3  UNL     1       2.287   1.339  11.138  1.00  0.00    -0.367 N
HETATM   23  C14 UNL     1       1.860   2.549  11.306  1.00  0.00     0.196 C
HETATM   24  N4  UNL     1       2.889   3.562  11.309  1.00  0.00    -0.067 NA
HETATM   25  N5  UNL     1       0.524   2.936  11.480  1.00  0.00    -0.067 NA
ATOM     26  H3  UNL     1       3.288   1.184  11.020  1.00  0.00     0.161 HD
ENDBRANCH  21  22
ENDBRANCH  20  21
ENDBRANCH  19  20
ENDBRANCH   1  19
BRANCH   1  27
HETATM   27  N6  UNL     1       4.679   0.048  13.625  1.00  0.00    -0.322 N
HETATM   28  C15 UNL     1       5.649  -0.347  12.682  1.00  0.00     0.250 C
HETATM   29  O3  UNL     1       5.454  -1.417  12.075  1.00  0.00    -0.270 OA
ATOM     30  H6  UNL     1       4.830   0.928  14.120  1.00  0.00     0.169 HD
BRANCH  28  31
HETATM   31  C16 UNL     1       6.877   0.455  12.396  1.00  0.00     0.108 C
HETATM   32  C20 UNL     1       7.501  -0.208  11.189  1.00  0.00     0.041 C
HETATM   33  C21 UNL     1       8.726   0.434  10.651  1.00  0.00     0.008 C
HETATM   34  C22 UNL     1       8.536   1.559   9.708  1.00  0.00    -0.010 A
HETATM   35  C23 UNL     1       7.156   1.878   9.222  1.00  0.00     0.010 A
HETATM   36  C28 UNL     1       8.691   2.932  10.234  1.00  0.00    -0.004 A
HETATM   37  C24 UNL     1       7.325   3.299   9.690  1.00  0.00    -0.008 A
HETATM   38  C25 UNL     1       6.477   3.680  10.898  1.00  0.00     0.029 C
HETATM   39  C26 UNL     1       7.131   2.916  12.078  1.00  0.00     0.078 C
HETATM   40  C27 UNL     1       8.539   3.085  11.719  1.00  0.00     0.030 C
HETATM   41  N8  UNL     1       6.471   1.760  12.245  1.00  0.00    -0.401 N
ATOM     42  H8  UNL     1       5.457   1.872  12.263  1.00  0.00     0.154 HD
BRANCH  31  43
HETATM   43  C17 UNL     1       7.777   0.171  13.592  1.00  0.00     0.042 C
BRANCH  43  44
HETATM   44  C18 UNL     1       7.942  -1.312  13.825  1.00  0.00     0.030 C
BRANCH  44  45
HETATM   45  C19 UNL     1       8.317  -1.607  15.258  1.00  0.00     0.230 C
BRANCH  45  46
HETATM   46  N7  UNL     1       7.101  -1.970  16.004  1.00  0.00    -0.079 N
ATOM     47  H73 UNL     1       6.936  -1.356  16.802  1.00  0.00     0.274 HD
ATOM     48  H72 UNL     1       6.249  -1.759  15.484  1.00  0.00     0.274 HD
ATOM     49  H71 UNL     1       7.160  -2.951  16.273  1.00  0.00     0.274 HD
ENDBRANCH  45  46
ENDBRANCH  44  45
ENDBRANCH  43  44
ENDBRANCH  31  43
ENDBRANCH  28  31
ENDBRANCH   1  27
TORSDOF 17
ENDMDL