MODEL 2
REMARK VINA RESULT: -9.006911863      1.112      1.580
REMARK  18 active torsions:
REMARK  status: ('A' for Active; 'I' for Inactive)
REMARK    1  A    between atoms: N1_2  and  C2_3
REMARK       I    between atoms: N1_2  and  C23_42
REMARK    2  A    between atoms: C2_3  and  C3_4
REMARK    3  A    between atoms: C3_4  and  C4_5
REMARK    4  A    between atoms: C4_5  and  C5_6
REMARK    5  A    between atoms: N4_12  and  C7_14
REMARK    6  A    between atoms: C7_14  and  C8_15
REMARK    7  A    between atoms: C8_15  and  N5_16
REMARK       I    between atoms: N5_16  and  C9_18
REMARK       I    between atoms: C9_18  and  N8_23
REMARK    8  A    between atoms: N8_23  and  N9_25
REMARK    9  A    between atoms: N9_25  and  C11_26
REMARK   10  A    between atoms: C11_26  and  C12_27
REMARK   11  A    between atoms: C12_27  and  C13_28
REMARK   12  A    between atoms: C13_28  and  C14_29
REMARK   13  A    between atoms: C14_29  and  N10_30
REMARK   14  A    between atoms: C15_34  and  C16_35
REMARK   15  A    between atoms: C16_35  and  C17_36
REMARK   16  A    between atoms: C23_42  and  C24_44
REMARK   17  A    between atoms: C24_44  and  C25_45
REMARK   18  A    between atoms: C26_46  and  C27_47
ROOT
HETATM    1  N5  UNL     1       4.327  -5.140  16.195  1.00  0.00    -0.223 N
ATOM      2  H5  UNL     1       4.199  -5.227  15.187  1.00  0.00     0.177 HD
HETATM    3  C9  UNL     1       5.628  -5.177  16.736  1.00  0.00     0.698 C
HETATM    4  N6  UNL     1       5.966  -6.134  17.513  1.00  0.00    -0.125 N
ATOM      5  H6  UNL     1       5.280  -6.858  17.726  1.00  0.00     0.197 HD
HETATM    6  C10 UNL     1       7.235  -6.228  18.079  1.00  0.00     0.196 C
HETATM    7  N7  UNL     1       8.299  -6.304  18.533  1.00  0.00    -0.171 NA
HETATM    8  N8  UNL     1       6.550  -4.157  16.419  1.00  0.00    -0.136 N
ATOM      9  H8  UNL     1       6.879  -3.500  17.125  1.00  0.00     0.201 HD
ENDROOT
BRANCH   1  10
HETATM   10  C8  UNL     1       3.182  -4.981  17.042  1.00  0.00     0.157 C
BRANCH  10  11
HETATM   11  C7  UNL     1       2.660  -3.560  16.983  1.00  0.00     0.141 C
BRANCH  11  12
HETATM   12  N4  UNL     1       3.036  -2.893  15.776  1.00  0.00    -0.373 N
HETATM   13  C6  UNL     1       3.883  -1.928  15.711  1.00  0.00     0.128 A
HETATM   14  N3  UNL     1       4.581  -1.340  16.691  1.00  0.00    -0.285 N
HETATM   15  C15 UNL     1       4.265  -1.261  14.541  1.00  0.00     0.037 A
HETATM   16  N2  UNL     1       5.345  -0.381  16.210  1.00  0.00    -0.299 N
ATOM     17  H3  UNL     1       4.527  -1.599  17.676  1.00  0.00     0.188 HD
HETATM   18  C5  UNL     1       5.188  -0.289  14.878  1.00  0.00     0.058 A
ATOM     19  H2  UNL     1       5.966   0.206  16.767  1.00  0.00     0.187 HD
ATOM     20  H4  UNL     1       2.603  -3.205  14.906  1.00  0.00     0.161 HD
BRANCH  18  21
HETATM   21  C4  UNL     1       5.780   0.534  14.031  1.00  0.00     0.007 C
BRANCH  21  22
HETATM   22  C3  UNL     1       7.236   0.645  13.911  1.00  0.00     0.049 C
BRANCH  22  23
HETATM   23  C2  UNL     1       7.743   1.569  12.858  1.00  0.00     0.129 C
BRANCH  23  24
HETATM   24  N1  UNL     1       7.234   1.329  11.536  1.00  0.00    -0.356 N
HETATM   25  C1  UNL     1       7.672   0.132  10.849  1.00  0.00     0.152 C
HETATM   26  C23 UNL     1       6.334   2.190  10.889  1.00  0.00     0.222 C
HETATM   27  O1  UNL     1       5.945   3.222  11.472  1.00  0.00    -0.273 OA
BRANCH  26  28
HETATM   28  C24 UNL     1       5.850   1.881   9.528  1.00  0.00     0.130 C
BRANCH  28  29
HETATM   29  C25 UNL     1       5.599   3.105   8.778  1.00  0.00    -0.017 C
HETATM   30  C26 UNL     1       4.574   3.808   8.504  1.00  0.00     0.008 C
BRANCH  30  31
HETATM   31  C27 UNL     1       3.196   3.662   8.859  1.00  0.00    -0.036 A
HETATM   32  C28 UNL     1       2.718   3.599  10.137  1.00  0.00     0.011 A
HETATM   33  C29 UNL     1       1.388   3.400  10.446  1.00  0.00     0.001 A
HETATM   34  C30 UNL     1       0.456   3.252   9.443  1.00  0.00     0.000 A
HETATM   35  C31 UNL     1       0.923   3.315   8.143  1.00  0.00     0.001 A
HETATM   36  C32 UNL     1       2.226   3.510   7.853  1.00  0.00     0.011 A
ENDBRANCH  30  31
ENDBRANCH  28  29
ENDBRANCH  26  28
ENDBRANCH  23  24
ENDBRANCH  22  23
ENDBRANCH  21  22
ENDBRANCH  18  21
BRANCH  15  37
HETATM   37  C16 UNL     1       3.816  -1.524  13.340  1.00  0.00     0.029 C
BRANCH  37  38
HETATM   38  C17 UNL     1       2.637  -0.948  12.762  1.00  0.00    -0.035 A
HETATM   39  C18 UNL     1       2.586  -0.740  11.405  1.00  0.00     0.011 A
HETATM   40  C19 UNL     1       1.463  -0.197  10.826  1.00  0.00     0.001 A
HETATM   41  C20 UNL     1       0.367   0.146  11.591  1.00  0.00     0.000 A
HETATM   42  C21 UNL     1       0.415  -0.061  12.950  1.00  0.00     0.001 A
HETATM   43  C22 UNL     1       1.538  -0.601  13.521  1.00  0.00     0.011 A
ENDBRANCH  37  38
ENDBRANCH  15  37
ENDBRANCH  11  12
ENDBRANCH  10  11
ENDBRANCH   1  10
BRANCH   8  44
HETATM   44  N9  UNL     1       6.993  -4.088  15.090  1.00  0.00    -0.126 NA
BRANCH  44  45
HETATM   45  C11 UNL     1       7.739  -2.860  14.853  1.00  0.00     0.135 C
BRANCH  45  46
HETATM   46  C12 UNL     1       9.063  -2.888  15.577  1.00  0.00     0.019 C
BRANCH  46  47
HETATM   47  C13 UNL     1       9.953  -3.900  14.908  1.00  0.00     0.028 C
BRANCH  47  48
HETATM   48  C14 UNL     1      10.177  -5.115  15.788  1.00  0.00     0.229 C
BRANCH  48  49
HETATM   49  N10 UNL     1       9.377  -6.201  15.265  1.00  0.00    -0.079 N
ATOM     50 3H10 UNL     1       9.068  -6.037  14.306  1.00  0.00     0.274 HD
ATOM     51 2H10 UNL     1       9.923  -7.045  15.090  1.00  0.00     0.274 HD
ATOM     52 1H10 UNL     1       8.600  -6.359  15.908  1.00  0.00     0.274 HD
ENDBRANCH  48  49
ENDBRANCH  47  48
ENDBRANCH  46  47
ENDBRANCH  45  46
ENDBRANCH  44  45
ENDBRANCH   8  44
TORSDOF 18
ENDMDL