MODEL 1
REMARK VINA RESULT: -8.756912880      0.000      0.000
REMARK  17 active torsions:
REMARK  status: ('A' for Active; 'I' for Inactive)
REMARK    1  A    between atoms: C2_2  and  C3_3
REMARK    2  A    between atoms: C5_7  and  N2_8
REMARK    3  A    between atoms: C7_11  and  N3_12
REMARK       I    between atoms: N3_12  and  C8_14
REMARK    4  A    between atoms: C8_14  and  C9_16
REMARK    5  A    between atoms: C9_16  and  C10_17
REMARK    6  A    between atoms: C10_17  and  C11_18
REMARK    7  A    between atoms: C11_18  and  C12_19
REMARK    8  A    between atoms: C11_18  and  S1_31
REMARK    9  A    between atoms: C12_19  and  N4_20
REMARK       I    between atoms: N4_20  and  C13_22
REMARK   10  A    between atoms: C13_22  and  C14_24
REMARK   11  A    between atoms: C14_24  and  C15_25
REMARK   12  A    between atoms: C15_25  and  N5_26
REMARK   13  A    between atoms: N5_26  and  C18_29
REMARK   14  A    between atoms: S1_31  and  C20_33
REMARK   15  A    between atoms: C20_33  and  C21_34
REMARK   16  A    between atoms: C21_34  and  C22_35
REMARK   17  A    between atoms: C25_38  and  C26_39
ROOT
HETATM    1  C11 UNL     1       4.720  -4.620  15.054  1.00  0.00     0.097 C
ENDROOT
BRANCH   1   2
HETATM    2  C10 UNL     1       4.716  -5.871  15.865  1.00  0.00     0.028 C
BRANCH   2   3
HETATM    3  C9  UNL     1       4.747  -5.625  17.343  1.00  0.00     0.104 C
BRANCH   3   4
HETATM    4  C8  UNL     1       5.766  -6.556  17.981  1.00  0.00     0.223 C
HETATM    5  N3  UNL     1       6.913  -5.994  18.482  1.00  0.00    -0.310 N
ATOM      6  H3  UNL     1       6.825  -5.563  19.403  1.00  0.00     0.170 HD
HETATM    7  O1  UNL     1       5.471  -7.790  18.004  1.00  0.00    -0.273 OA
BRANCH   5   8
HETATM    8  C7  UNL     1       8.067  -5.935  17.962  1.00  0.00     0.152 A
HETATM    9  C5  UNL     1       8.981  -6.947  18.102  1.00  0.00     0.145 A
HETATM   10  N1  UNL     1      10.195  -6.783  17.509  1.00  0.00    -0.348 N
HETATM   11  C4  UNL     1      10.518  -5.676  16.803  1.00  0.00     0.114 A
ATOM     12  H1  UNL     1      10.889  -7.524  17.601  1.00  0.00     0.167 HD
HETATM   13  C3  UNL     1       9.597  -4.655  16.661  1.00  0.00     0.026 A
HETATM   14  N8  UNL     1       8.409  -4.810  17.237  1.00  0.00    -0.342 N
ATOM     15  H8  UNL     1       7.719  -4.065  17.140  1.00  0.00     0.167 HD
BRANCH   9  16
HETATM   16  N2  UNL     1       8.743  -8.031  18.758  1.00  0.00    -0.378 N
HETATM   17  C6  UNL     1       8.645  -9.330  18.128  1.00  0.00     0.148 C
ATOM     18  H2  UNL     1       8.618  -7.969  19.768  1.00  0.00     0.160 HD
ENDBRANCH   9  16
BRANCH  13  19
HETATM   19  C2  UNL     1       9.945  -3.418  15.879  1.00  0.00     0.054 C
HETATM   20  C1  UNL     1      10.272  -3.786  14.450  1.00  0.00     0.011 C
ENDBRANCH  13  19
ENDBRANCH   5   8
ENDBRANCH   3   4
ENDBRANCH   2   3
ENDBRANCH   1   2
BRANCH   1  21
HETATM   21  C12 UNL     1       5.522  -3.559  15.751  1.00  0.00     0.140 C
BRANCH  21  22
HETATM   22  N4  UNL     1       6.482  -2.911  14.864  1.00  0.00    -0.360 N
HETATM   23  C13 UNL     1       6.502  -1.496  14.759  1.00  0.00     0.219 C
HETATM   24  O2  UNL     1       5.706  -0.804  15.418  1.00  0.00    -0.274 OA
ATOM     25  H4  UNL     1       7.137  -3.474  14.320  1.00  0.00     0.162 HD
BRANCH  23  26
HETATM   26  C14 UNL     1       7.471  -0.841  13.860  1.00  0.00     0.130 C
BRANCH  26  27
HETATM   27  C15 UNL     1       6.891  -0.753  12.469  1.00  0.00     0.245 C
BRANCH  27  28
HETATM   28  N5  UNL     1       7.333   0.467  11.846  1.00  0.00    -0.075 N
HETATM   29  C16 UNL     1       7.977   1.388  12.746  1.00  0.00     0.272 C
HETATM   30  C17 UNL     1       6.204   1.120  11.221  1.00  0.00     0.272 C
BRANCH  28  31
HETATM   31  C18 UNL     1       8.222   0.074  10.752  1.00  0.00     0.232 C
HETATM   32  C19 UNL     1       9.405   1.007  10.609  1.00  0.00     0.034 C
ENDBRANCH  28  31
ENDBRANCH  27  28
ENDBRANCH  26  27
ENDBRANCH  23  26
ENDBRANCH  21  22
ENDBRANCH   1  21
BRANCH   1  33
HETATM   33  S1  UNL     1       3.096  -4.040  14.740  1.00  0.00     0.021 S
HETATM   34  O3  UNL     1       1.976  -5.187  14.363  1.00  0.00    -0.258 OA
BRANCH  33  35
HETATM   35  C20 UNL     1       3.042  -2.645  13.682  1.00  0.00     0.114 C
BRANCH  35  36
HETATM   36  C21 UNL     1       2.682  -1.351  14.318  1.00  0.00     0.051 C
BRANCH  36  37
HETATM   37  C22 UNL     1       2.061  -0.366  13.413  1.00  0.00    -0.057 A
HETATM   38  C23 UNL     1       2.815   0.568  12.765  1.00  0.00     0.008 A
HETATM   39  C24 UNL     1       2.262   1.508  11.913  1.00  0.00     0.015 A
HETATM   40  C25 UNL     1       0.887   1.522  11.693  1.00  0.00     0.004 A
HETATM   41  C27 UNL     1       0.145   0.574  12.355  1.00  0.00     0.015 A
HETATM   42  C28 UNL     1       0.716  -0.373  13.215  1.00  0.00     0.008 A
BRANCH  40  43
HETATM   43  C26 UNL     1       0.338   2.523  10.802  1.00  0.00     0.120 C
HETATM   44  N6  UNL     1      -0.715   2.280  10.125  1.00  0.00    -0.387 N
ATOM     45  H62 UNL     1      -1.165   1.369  10.218  1.00  0.00     0.157 HD
ATOM     46  H61 UNL     1      -1.101   2.984   9.497  1.00  0.00     0.157 HD
HETATM   47  N7  UNL     1       0.967   3.797  10.673  1.00  0.00    -0.082 NA
ENDBRANCH  40  43
ENDBRANCH  36  37
ENDBRANCH  35  36
ENDBRANCH  33  35
ENDBRANCH   1  33
TORSDOF 17
ENDMDL