MODEL 4
REMARK VINA RESULT: -8.690931176      1.791      5.300
REMARK  16 active torsions:
REMARK  status: ('A' for Active; 'I' for Inactive)
REMARK    1  A    between atoms: C2_2  and  C3_3
REMARK    2  A    between atoms: C3_3  and  C4_4
REMARK    3  A    between atoms: C4_4  and  N1_5
REMARK       I    between atoms: N1_5  and  C5_7
REMARK    4  A    between atoms: C5_7  and  C6_9
REMARK    5  A    between atoms: C6_9  and  C7_10
REMARK    6  A    between atoms: C7_10  and  C8_11
REMARK    7  A    between atoms: C8_11  and  C9_12
REMARK    8  A    between atoms: C9_12  and  C10_13
REMARK    9  A    between atoms: C10_13  and  C11_14
REMARK   10  A    between atoms: C12_18  and  C13_19
REMARK   11  A    between atoms: C13_19  and  C14_20
REMARK   12  A    between atoms: C14_20  and  C15_21
REMARK   13  A    between atoms: C15_21  and  N3_22
REMARK       I    between atoms: N3_22  and  C16_23
REMARK   14  A    between atoms: N6_28  and  C18_29
REMARK   15  A    between atoms: C18_29  and  O3_30
REMARK   16  A    between atoms: C19_32  and  C20_33
ROOT
HETATM    1  C11 UNL     1       4.731  -2.098  15.121  1.00  0.00     0.278 C
HETATM    2  N2  UNL     1       3.811  -2.197  13.929  1.00  0.00    -0.050 N
ATOM      3  H21 UNL     1       2.958  -1.645  14.013  1.00  0.00     0.279 HD
ATOM      4  H22 UNL     1       3.350  -3.101  13.831  1.00  0.00     0.279 HD
HETATM    5  C12 UNL     1       4.666  -1.822  12.780  1.00  0.00     0.279 C
HETATM    6  C17 UNL     1       5.634  -0.752  13.112  1.00  0.00     0.258 C
HETATM    7  O2  UNL     1       5.214   0.401  12.992  1.00  0.00    -0.271 OA
HETATM    8  N6  UNL     1       7.053  -0.748  13.569  1.00  0.00    -0.275 N
HETATM    9  C28 UNL     1       7.902  -1.874  13.880  1.00  0.00     0.192 C
HETATM   10  C29 UNL     1       8.752  -1.806  15.112  1.00  0.00     0.056 C
HETATM   11  N8  UNL     1       7.037  -3.039  14.126  1.00  0.00    -0.338 N
ATOM     12  H8  UNL     1       7.386  -3.926  13.761  1.00  0.00     0.164 HD
HETATM   13  C30 UNL     1       5.772  -3.110  14.805  1.00  0.00     0.250 C
HETATM   14  O4  UNL     1       5.554  -4.281  15.177  1.00  0.00    -0.271 OA
ENDROOT
BRANCH   8  15
HETATM   15  C18 UNL     1       7.543   0.536  13.629  1.00  0.00     0.147 C
HETATM   16  C19 UNL     1       8.516   1.324  12.967  1.00  0.00     0.070 C
BRANCH  15  17
HETATM   17  O3  UNL     1       6.926   1.325  14.600  1.00  0.00    -0.346 OA
ATOM     18  H3  UNL     1       7.521   1.633  15.274  1.00  0.00     0.219 HD
ENDBRANCH  15  17
BRANCH  16  19
HETATM   19  C20 UNL     1       7.970   2.291  11.929  1.00  0.00    -0.004 A
HETATM   20  C21 UNL     1       7.338   3.479  12.275  1.00  0.00     0.101 A
HETATM   21  N7  UNL     1       6.935   4.068  11.101  1.00  0.00    -0.364 N
HETATM   22  C22 UNL     1       7.279   3.325  10.048  1.00  0.00     0.043 A
ATOM     23  H7  UNL     1       6.437   4.957  11.043  1.00  0.00     0.165 HD
HETATM   24  C23 UNL     1       7.125   3.474   8.672  1.00  0.00     0.030 A
HETATM   25  C27 UNL     1       7.930   2.206  10.578  1.00  0.00     0.002 A
HETATM   26  C24 UNL     1       7.626   2.506   7.845  1.00  0.00     0.002 A
HETATM   27  C25 UNL     1       8.277   1.398   8.379  1.00  0.00     0.001 A
HETATM   28  C26 UNL     1       8.429   1.244   9.713  1.00  0.00     0.014 A
ENDBRANCH  16  19
ENDBRANCH   8  15
BRANCH   5  29
HETATM   29  C13 UNL     1       3.658  -1.336  11.742  1.00  0.00     0.049 C
BRANCH  29  30
HETATM   30  C14 UNL     1       2.356  -0.977  12.449  1.00  0.00     0.062 C
BRANCH  30  31
HETATM   31  C15 UNL     1       1.508  -0.148  11.463  1.00  0.00     0.158 C
BRANCH  31  32
HETATM   32  N3  UNL     1       1.557   1.158  11.448  1.00  0.00    -0.393 NA
HETATM   33  C16 UNL     1       1.623   2.344  11.435  1.00  0.00     0.274 C
HETATM   34  N4  UNL     1       2.839   3.065  11.464  1.00  0.00    -0.052 NA
HETATM   35  N5  UNL     1       0.411   3.174  11.460  1.00  0.00    -0.052 NA
ENDBRANCH  31  32
ENDBRANCH  30  31
ENDBRANCH  29  30
ENDBRANCH   5  29
BRANCH   1  36
HETATM   36  C10 UNL     1       3.995  -2.237  16.389  1.00  0.00     0.043 C
BRANCH  36  37
HETATM   37  C9  UNL     1       2.770  -3.035  16.424  1.00  0.00     0.002 C
BRANCH  37  38
HETATM   38  C8  UNL     1       2.448  -4.084  17.386  1.00  0.00     0.001 C
BRANCH  38  39
HETATM   39  C7  UNL     1       3.200  -5.374  17.204  1.00  0.00     0.009 C
BRANCH  39  40
HETATM   40  C6  UNL     1       3.904  -5.765  18.516  1.00  0.00     0.103 C
BRANCH  40  41
HETATM   41  C5  UNL     1       5.247  -6.263  18.140  1.00  0.00     0.217 C
HETATM   42  N1  UNL     1       6.331  -5.391  17.990  1.00  0.00    -0.361 N
ATOM     43  H1  UNL     1       6.227  -4.389  18.149  1.00  0.00     0.162 HD
HETATM   44  O1  UNL     1       5.437  -7.500  17.949  1.00  0.00    -0.274 OA
BRANCH  42  45
HETATM   45  C4  UNL     1       7.626  -5.966  17.596  1.00  0.00     0.122 C
BRANCH  45  46
HETATM   46  C3  UNL     1       8.510  -4.963  16.925  1.00  0.00     0.019 C
BRANCH  46  47
HETATM   47  C2  UNL     1       9.689  -5.643  16.232  1.00  0.00    -0.003 C
HETATM   48  C1  UNL     1       9.585  -5.475  14.728  1.00  0.00     0.005 C
ENDBRANCH  46  47
ENDBRANCH  45  46
ENDBRANCH  42  45
ENDBRANCH  40  41
ENDBRANCH  39  40
ENDBRANCH  38  39
ENDBRANCH  37  38
ENDBRANCH  36  37
ENDBRANCH   1  36
TORSDOF 16
ENDMDL