MODEL 1
REMARK VINA RESULT: -8.652251811      0.000      0.000
REMARK  18 active torsions:
REMARK  status: ('A' for Active; 'I' for Inactive)
REMARK    1  A    between atoms: C2_2  and  N1_3
REMARK    2  A    between atoms: C4_5  and  N2_6
REMARK       I    between atoms: N2_6  and  C5_8
REMARK    3  A    between atoms: N4_13  and  C7_14
REMARK    4  A    between atoms: C7_14  and  C8_15
REMARK    5  A    between atoms: C8_15  and  C9_16
REMARK    6  A    between atoms: C9_16  and  C10_17
REMARK    7  A    between atoms: C10_17  and  C11_18
REMARK    8  A    between atoms: C11_18  and  C12_19
REMARK    9  A    between atoms: C12_19  and  C13_20
REMARK   10  A    between atoms: C13_20  and  C14_21
REMARK   11  A    between atoms: C14_21  and  C15_22
REMARK   12  A    between atoms: C15_22  and  C16_23
REMARK   13  A    between atoms: C16_23  and  N5_24
REMARK   14  A    between atoms: N5_24  and  C17_26
REMARK   15  A    between atoms: C17_26  and  N6_28
REMARK       I    between atoms: C18_30  and  N8_32
REMARK   16  A    between atoms: N8_32  and  C19_34
REMARK   17  A    between atoms: C25_40  and  C26_41
REMARK   18  A    between atoms: C26_41  and  O3_42
ROOT
HETATM    1  C10 UNL     1       1.881  -0.661  13.488  1.00  0.00     0.000 C
ENDROOT
BRANCH   1   2
HETATM    2  C9  UNL     1       2.755  -0.671  12.284  1.00  0.00     0.002 C
BRANCH   2   3
HETATM    3  C8  UNL     1       4.024  -1.477  12.425  1.00  0.00     0.020 C
BRANCH   3   4
HETATM    4  C7  UNL     1       3.788  -2.671  13.278  1.00  0.00     0.127 C
BRANCH   4   5
HETATM    5  N4  UNL     1       4.627  -2.795  14.423  1.00  0.00    -0.335 N
HETATM    6  C6  UNL     1       4.561  -4.005  15.184  1.00  0.00     0.245 C
HETATM    7  C4  UNL     1       5.631  -4.669  16.011  1.00  0.00     0.196 C
HETATM    8  O2  UNL     1       3.439  -4.564  15.129  1.00  0.00    -0.271 OA
HETATM    9  C3  UNL     1       6.948  -4.626  15.296  1.00  0.00     0.160 C
HETATM   10  N1  UNL     1       7.526  -3.331  15.150  1.00  0.00    -0.348 N
HETATM   11  C27 UNL     1       6.945  -2.134  14.666  1.00  0.00     0.245 C
HETATM   12  C25 UNL     1       5.519  -1.695  14.748  1.00  0.00     0.203 C
HETATM   13  O4  UNL     1       7.730  -1.339  14.095  1.00  0.00    -0.271 OA
BRANCH   7  14
HETATM   14  N2  UNL     1       5.253  -6.071  16.101  1.00  0.00    -0.331 N
HETATM   15  C5  UNL     1       5.094  -6.719  17.354  1.00  0.00     0.329 C
HETATM   16  N3  UNL     1       4.726  -8.084  17.426  1.00  0.00    -0.040 NA
HETATM   17  O1  UNL     1       5.272  -6.115  18.447  1.00  0.00    -0.251 OA
ATOM     18  H2  UNL     1       5.099  -6.601  15.243  1.00  0.00     0.164 HD
ENDBRANCH   7  14
BRANCH  10  19
HETATM   19  C2  UNL     1       8.939  -3.249  15.565  1.00  0.00     0.121 C
HETATM   20  C1  UNL     1       9.756  -4.341  14.958  1.00  0.00     0.026 C
ENDBRANCH  10  19
BRANCH  12  21
HETATM   21  C26 UNL     1       5.243  -1.132  16.144  1.00  0.00     0.199 C
BRANCH  21  22
HETATM   22  O3  UNL     1       5.046   0.226  16.151  1.00  0.00    -0.398 OA
ATOM     23  H3  UNL     1       4.152   0.476  15.949  1.00  0.00     0.209 HD
ENDBRANCH  21  22
ENDBRANCH  12  21
ENDBRANCH   4   5
ENDBRANCH   3   4
ENDBRANCH   2   3
ENDBRANCH   1   2
BRANCH   1  24
HETATM   24  C11 UNL     1       0.510  -0.073  13.213  1.00  0.00     0.000 C
BRANCH  24  25
HETATM   25  C12 UNL     1       0.483   0.409  11.775  1.00  0.00     0.000 C
BRANCH  25  26
HETATM   26  C13 UNL     1      -0.301   1.680  11.705  1.00  0.00     0.000 C
BRANCH  26  27
HETATM   27  C14 UNL     1       0.350   2.659  10.771  1.00  0.00     0.002 C
BRANCH  27  28
HETATM   28  C15 UNL     1       0.461   2.085   9.394  1.00  0.00     0.020 C
BRANCH  28  29
HETATM   29  C16 UNL     1       0.749   3.218   8.417  1.00  0.00     0.122 C
BRANCH  29  30
HETATM   30  N5  UNL     1       2.035   2.998   7.819  1.00  0.00    -0.367 N
ATOM     31  H5  UNL     1       2.146   2.245   7.140  1.00  0.00     0.161 HD
BRANCH  30  32
HETATM   32  C17 UNL     1       3.178   3.818   8.155  1.00  0.00     0.174 C
HETATM   33  S1  UNL     1       4.295   4.111   6.975  1.00  0.00    -0.041 SA
BRANCH  32  34
HETATM   34  N6  UNL     1       3.301   4.347   9.444  1.00  0.00    -0.308 N
HETATM   35  C18 UNL     1       3.890   3.633  10.365  1.00  0.00     0.191 C
HETATM   36  N7  UNL     1       3.966   4.256  11.639  1.00  0.00    -0.063 NA
HETATM   37  N8  UNL     1       4.417   2.351  10.172  1.00  0.00    -0.356 N
ATOM     38  H8  UNL     1       3.756   1.574  10.170  1.00  0.00     0.162 HD
ATOM     39  H6  UNL     1       2.935   5.274   9.662  1.00  0.00     0.171 HD
BRANCH  37  40
HETATM   40  C19 UNL     1       5.826   2.025   9.974  1.00  0.00     0.110 A
HETATM   41  C20 UNL     1       6.290   1.109  11.009  1.00  0.00    -0.002 A
HETATM   42  C21 UNL     1       7.363   1.280  11.733  1.00  0.00    -0.002 A
HETATM   43  C22 UNL     1       8.185   2.459  11.529  1.00  0.00    -0.004 A
HETATM   44  C23 UNL     1       7.835   3.342  10.624  1.00  0.00    -0.024 A
HETATM   45  C24 UNL     1       6.639   3.234   9.778  1.00  0.00     0.056 A
ENDBRANCH  37  40
ENDBRANCH  32  34
ENDBRANCH  30  32
ENDBRANCH  29  30
ENDBRANCH  28  29
ENDBRANCH  27  28
ENDBRANCH  26  27
ENDBRANCH  25  26
ENDBRANCH  24  25
ENDBRANCH   1  24
TORSDOF 18
ENDMDL