MODEL 4
REMARK VINA RESULT: -8.645517197      2.137      6.132
REMARK  16 active torsions:
REMARK  status: ('A' for Active; 'I' for Inactive)
REMARK    1  A    between atoms: C5_5  and  C6_6
REMARK    2  A    between atoms: C6_6  and  N1_7
REMARK       I    between atoms: N1_7  and  C7_9
REMARK    3  A    between atoms: C7_9  and  C8_11
REMARK    4  A    between atoms: C10_13  and  N2_14
REMARK       I    between atoms: N2_14  and  C11_16
REMARK    5  A    between atoms: N4_18  and  C12_20
REMARK    6  A    between atoms: C12_20  and  C13_21
REMARK    7  A    between atoms: C13_21  and  C14_22
REMARK    8  A    between atoms: C14_22  and  C15_23
REMARK    9  A    between atoms: C15_23  and  N5_24
REMARK   10  A    between atoms: N5_24  and  C16_26
REMARK   11  A    between atoms: C16_26  and  C17_27
REMARK   12  A    between atoms: C17_27  and  C18_28
REMARK   13  A    between atoms: C18_28  and  N6_29
REMARK   14  A    between atoms: C22_38  and  C23_39
REMARK   15  A    between atoms: C23_39  and  C24_40
REMARK   16  A    between atoms: C24_40  and  N10_41
ROOT
HETATM    1  C8  UNL     1       4.471  -0.060  12.358  1.00  0.00     0.043 A
HETATM    2  C9  UNL     1       4.574   1.206  11.784  1.00  0.00     0.066 A
HETATM    3  C10 UNL     1       3.455   1.985  11.582  1.00  0.00     0.108 A
HETATM    4  N9  UNL     1       2.266   1.483  11.957  1.00  0.00    -0.346 N
ATOM      5  H9  UNL     1       1.427   2.044  11.817  1.00  0.00     0.167 HD
HETATM    6  C20 UNL     1       2.149   0.244  12.520  1.00  0.00     0.014 A
HETATM    7  C21 UNL     1       0.808  -0.255  12.913  1.00  0.00     0.068 C
HETATM    8  C22 UNL     1       3.245  -0.564  12.737  1.00  0.00    -0.018 A
ENDROOT
BRANCH   3   9
HETATM    9  N2  UNL     1       3.625   3.147  11.051  1.00  0.00    -0.317 N
HETATM   10  C11 UNL     1       2.793   3.709  10.063  1.00  0.00     0.189 C
HETATM   11  N3  UNL     1       1.430   3.960  10.366  1.00  0.00    -0.063 NA
HETATM   12  N4  UNL     1       3.259   3.998   8.915  1.00  0.00    -0.364 N
ATOM     13  H4  UNL     1       2.650   4.404   8.204  1.00  0.00     0.162 HD
ATOM     14  H2  UNL     1       4.420   3.700  11.370  1.00  0.00     0.170 HD
BRANCH  12  15
HETATM   15  C12 UNL     1       4.652   3.748   8.618  1.00  0.00     0.122 C
BRANCH  15  16
HETATM   16  C13 UNL     1       4.715   3.399   7.151  1.00  0.00     0.021 C
BRANCH  16  17
HETATM   17  C14 UNL     1       5.842   2.507   6.764  1.00  0.00     0.021 C
BRANCH  17  18
HETATM   18  C15 UNL     1       6.447   1.712   7.875  1.00  0.00     0.113 C
BRANCH  18  19
HETATM   19  N5  UNL     1       7.872   1.664   7.885  1.00  0.00    -0.421 N
ATOM     20  H5  UNL     1       8.440   2.413   7.490  1.00  0.00     0.153 HD
BRANCH  19  21
HETATM   21  C16 UNL     1       8.454   0.506   8.482  1.00  0.00     0.115 C
BRANCH  21  22
HETATM   22  C17 UNL     1       8.118   0.347   9.958  1.00  0.00     0.039 C
BRANCH  22  23
HETATM   23  C18 UNL     1       8.897   1.451  10.688  1.00  0.00     0.123 C
BRANCH  23  24
HETATM   24  N6  UNL     1       7.918   2.250  11.397  1.00  0.00    -0.367 N
HETATM   25  C19 UNL     1       7.659   3.442  11.049  1.00  0.00     0.196 C
HETATM   26  N7  UNL     1       8.323   4.026   9.953  1.00  0.00    -0.067 NA
HETATM   27  N8  UNL     1       6.690   4.185  11.773  1.00  0.00    -0.067 NA
ATOM     28  H6  UNL     1       7.426   1.846  12.194  1.00  0.00     0.161 HD
ENDBRANCH  23  24
ENDBRANCH  22  23
ENDBRANCH  21  22
ENDBRANCH  19  21
ENDBRANCH  18  19
ENDBRANCH  17  18
ENDBRANCH  16  17
ENDBRANCH  15  16
ENDBRANCH  12  15
ENDBRANCH   3   9
BRANCH   1  29
HETATM   29  C7  UNL     1       5.717  -0.781  12.531  1.00  0.00     0.252 C
HETATM   30  N1  UNL     1       6.648  -0.294  13.485  1.00  0.00    -0.353 N
ATOM     31  H1  UNL     1       6.401   0.548  14.004  1.00  0.00     0.163 HD
HETATM   32  O1  UNL     1       6.007  -1.824  11.870  1.00  0.00    -0.268 OA
BRANCH  30  33
HETATM   33  C6  UNL     1       7.918  -0.910  13.769  1.00  0.00     0.161 C
BRANCH  33  34
HETATM   34  C5  UNL     1       7.800  -2.040  14.713  1.00  0.00    -0.041 A
HETATM   35  C4  UNL     1       6.646  -2.249  15.426  1.00  0.00     0.009 A
HETATM   36  C3  UNL     1       6.532  -3.307  16.321  1.00  0.00     0.007 A
HETATM   37  C2  UNL     1       7.576  -4.169  16.509  1.00  0.00    -0.062 A
HETATM   38  C1  UNL     1       7.480  -5.321  17.471  1.00  0.00     0.048 C
HETATM   39  C30 UNL     1       8.747  -3.976  15.803  1.00  0.00     0.007 A
HETATM   40  C29 UNL     1       8.845  -2.915  14.913  1.00  0.00     0.009 A
ENDBRANCH  33  34
ENDBRANCH  30  33
ENDBRANCH   1  29
BRANCH   8  41
HETATM   41  C23 UNL     1       3.100  -1.887  13.343  1.00  0.00     0.061 C
BRANCH  41  42
HETATM   42  C24 UNL     1       3.066  -1.852  14.857  1.00  0.00     0.130 C
BRANCH  42  43
HETATM   43  N10 UNL     1       3.117  -3.215  15.331  1.00  0.00    -0.352 N
HETATM   44  C25 UNL     1       3.550  -4.336  14.523  1.00  0.00     0.126 C
HETATM   45  C26 UNL     1       2.512  -5.384  14.949  1.00  0.00     0.029 C
HETATM   46  C27 UNL     1       2.610  -5.250  16.467  1.00  0.00     0.104 C
HETATM   47  C28 UNL     1       2.789  -3.766  16.597  1.00  0.00     0.219 C
HETATM   48  O2  UNL     1       2.673  -3.079  17.658  1.00  0.00    -0.273 OA
ENDBRANCH  42  43
ENDBRANCH  41  42
ENDBRANCH   8  41
TORSDOF 16
ENDMDL