MODEL 2
REMARK VINA RESULT: -9.293203414      2.090      7.168
REMARK  17 active torsions:
REMARK  status: ('A' for Active; 'I' for Inactive)
REMARK    1  A    between atoms: C5_5  and  C6_6
REMARK    2  A    between atoms: C6_6  and  C7_7
REMARK    3  A    between atoms: C7_7  and  C8_8
REMARK    4  A    between atoms: C8_8  and  C9_9
REMARK    5  A    between atoms: C9_9  and  C10_10
REMARK    6  A    between atoms: C10_10  and  N1_11
REMARK    7  A    between atoms: C10_10  and  C11_15
REMARK       I    between atoms: C11_15  and  N2_17
REMARK    8  A    between atoms: N2_17  and  C12_19
REMARK    9  A    between atoms: C12_19  and  C13_20
REMARK   10  A    between atoms: C13_20  and  N3_21
REMARK   11  A    between atoms: N3_21  and  C14_22
REMARK   12  A    between atoms: C15_23  and  O2_24
REMARK   13  A    between atoms: C15_23  and  N4_26
REMARK   14  A    between atoms: N4_26  and  C16_28
REMARK   15  A    between atoms: C16_28  and  C17_29
REMARK   16  A    between atoms: C17_29  and  C18_30
REMARK   17  A    between atoms: C18_30  and  N5_31
ROOT
HETATM    1  N3  UNL     1      15.305  31.776  14.147  1.00  0.00     0.029 N
HETATM    2  C20 UNL     1      14.864  32.066  15.475  1.00  0.00     0.293 C
HETATM    3  C21 UNL     1      15.759  32.920  16.233  1.00  0.00    -0.019 A
HETATM    4  C22 UNL     1      15.640  32.910  17.616  1.00  0.00     0.010 A
HETATM    5  C23 UNL     1      16.438  33.707  18.397  1.00  0.00     0.002 A
HETATM    6  C24 UNL     1      17.373  34.536  17.819  1.00  0.00     0.012 A
HETATM    7  C25 UNL     1      17.498  34.552  16.449  1.00  0.00    -0.024 A
HETATM    8  C26 UNL     1      18.421  35.356  15.822  1.00  0.00     0.012 A
HETATM    9  C27 UNL     1      18.545  35.363  14.450  1.00  0.00     0.002 A
HETATM   10  C28 UNL     1      17.730  34.549  13.702  1.00  0.00     0.018 A
HETATM   11  C29 UNL     1      16.803  33.738  14.310  1.00  0.00     0.052 A
HETATM   12  C30 UNL     1      16.686  33.742  15.692  1.00  0.00    -0.002 A
HETATM   13  C31 UNL     1      15.937  32.863  13.523  1.00  0.00     0.357 C
HETATM   14  O3  UNL     1      15.800  33.137  12.282  1.00  0.00    -0.259 OA
ENDROOT
BRANCH   1  15
HETATM   15  C13 UNL     1      16.373  30.772  14.322  1.00  0.00     0.273 C
BRANCH  15  16
HETATM   16  C12 UNL     1      16.345  29.662  13.358  1.00  0.00     0.151 C
BRANCH  16  17
HETATM   17  N2  UNL     1      16.798  30.110  12.051  1.00  0.00    -0.358 N
HETATM   18  C11 UNL     1      16.249  29.676  10.837  1.00  0.00     0.248 C
HETATM   19  O1  UNL     1      15.298  28.822  10.836  1.00  0.00    -0.271 OA
ATOM     20  H2  UNL     1      17.564  30.783  12.016  1.00  0.00     0.162 HD
BRANCH  18  21
HETATM   21  C10 UNL     1      16.753  30.189   9.545  1.00  0.00     0.274 C
BRANCH  21  22
HETATM   22  C9  UNL     1      16.310  29.384   8.380  1.00  0.00     0.042 C
BRANCH  22  23
HETATM   23  C8  UNL     1      15.536  30.019   7.306  1.00  0.00     0.003 C
BRANCH  23  24
HETATM   24  C7  UNL     1      14.315  29.336   6.813  1.00  0.00     0.006 C
BRANCH  24  25
HETATM   25  C6  UNL     1      13.337  29.021   7.941  1.00  0.00     0.057 C
BRANCH  25  26
HETATM   26  C5  UNL     1      13.342  27.601   8.316  1.00  0.00     0.009 A
HETATM   27  C4  UNL     1      13.614  26.539   7.488  1.00  0.00     0.027 A
HETATM   28  C3  UNL     1      13.503  25.406   8.255  1.00  0.00     0.026 A
HETATM   29  C2  UNL     1      13.166  25.761   9.546  1.00  0.00     0.005 A
HETATM   30  C1  UNL     1      12.952  24.821  10.683  1.00  0.00     0.068 C
HETATM   31  N8  UNL     1      13.078  27.099   9.542  1.00  0.00    -0.363 N
ATOM     32  H8  UNL     1      12.843  27.664  10.357  1.00  0.00     0.165 HD
ENDBRANCH  25  26
ENDBRANCH  24  25
ENDBRANCH  23  24
ENDBRANCH  22  23
ENDBRANCH  21  22
BRANCH  21  33
HETATM   33  N1  UNL     1      16.636  31.594   9.476  1.00  0.00    -0.067 N
ATOM     34  H13 UNL     1      16.280  31.852   8.555  1.00  0.00     0.275 HD
ATOM     35  H12 UNL     1      15.866  31.892  10.074  1.00  0.00     0.275 HD
ATOM     36  H11 UNL     1      17.457  32.162   9.685  1.00  0.00     0.275 HD
ENDBRANCH  21  33
ENDBRANCH  18  21
ENDBRANCH  16  17
ENDBRANCH  15  16
ENDBRANCH   1  15
BRANCH   1  37
HETATM   37  C14 UNL     1      14.273  31.210  13.326  1.00  0.00     0.268 C
HETATM   38  C15 UNL     1      13.335  30.298  13.935  1.00  0.00     0.160 C
BRANCH  38  39
HETATM   39  O2  UNL     1      12.414  29.793  13.162  1.00  0.00    -0.345 OA
ATOM     40  H2  UNL     1      11.523  30.091  13.301  1.00  0.00     0.219 HD
ENDBRANCH  38  39
BRANCH  38  41
HETATM   41  N4  UNL     1      13.236  29.841  15.263  1.00  0.00    -0.370 N
ATOM     42  H4  UNL     1      14.089  29.640  15.785  1.00  0.00     0.161 HD
BRANCH  41  43
HETATM   43  C16 UNL     1      11.934  29.647  15.915  1.00  0.00     0.123 C
BRANCH  43  44
HETATM   44  C17 UNL     1      11.774  28.199  16.241  1.00  0.00     0.039 C
BRANCH  44  45
HETATM   45  C18 UNL     1      11.580  27.345  15.010  1.00  0.00     0.123 C
BRANCH  45  46
HETATM   46  N5  UNL     1      10.287  27.562  14.436  1.00  0.00    -0.367 N
HETATM   47  C19 UNL     1      10.038  27.576  13.181  1.00  0.00     0.196 C
HETATM   48  N6  UNL     1       8.695  27.804  12.724  1.00  0.00    -0.067 NA
HETATM   49  N7  UNL     1      11.010  27.377  12.163  1.00  0.00    -0.067 NA
ATOM     50  H5  UNL     1       9.507  27.716  15.074  1.00  0.00     0.161 HD
ENDBRANCH  45  46
ENDBRANCH  44  45
ENDBRANCH  43  44
ENDBRANCH  41  43
ENDBRANCH  38  41
ENDBRANCH   1  37
TORSDOF 17
ENDMDL