MODEL 5
REMARK VINA RESULT: -9.177527165      2.358      7.738
REMARK  15 active torsions:
REMARK  status: ('A' for Active; 'I' for Inactive)
REMARK    1  A    between atoms: N2_9  and  C7_11
REMARK    2  A    between atoms: C7_11  and  C8_12
REMARK    3  A    between atoms: C8_12  and  C9_13
REMARK    4  A    between atoms: C9_13  and  C10_14
REMARK    5  A    between atoms: C10_14  and  O1_15
REMARK    6  A    between atoms: O1_15  and  C11_16
REMARK    7  A    between atoms: C14_19  and  C15_20
REMARK    8  A    between atoms: C15_20  and  C16_21
REMARK    9  A    between atoms: C16_21  and  N3_22
REMARK   10  A    between atoms: C16_21  and  C27_42
REMARK       I    between atoms: N3_22  and  C17_24
REMARK   11  A    between atoms: C17_24  and  C18_26
REMARK   12  A    between atoms: C18_26  and  C19_27
REMARK   13  A    between atoms: C21_29  and  C22_30
REMARK   14  A    between atoms: C22_30  and  C23_31
REMARK   15  A    between atoms: C23_31  and  C24_32
REMARK       I    between atoms: C24_32  and  N4_34
ROOT
HETATM    1  C16 UNL     1      16.945  33.619  13.632  1.00  0.00     0.178 C
ENDROOT
BRANCH   1   2
HETATM    2  C15 UNL     1      17.074  32.936  14.952  1.00  0.00     0.073 C
BRANCH   2   3
HETATM    3  C14 UNL     1      15.904  32.070  15.254  1.00  0.00    -0.056 A
HETATM    4  C13 UNL     1      15.178  31.557  14.210  1.00  0.00     0.010 A
HETATM    5  C12 UNL     1      14.082  30.775  14.495  1.00  0.00     0.037 A
HETATM    6  C11 UNL     1      13.668  30.478  15.797  1.00  0.00     0.068 A
HETATM    7  C29 UNL     1      14.470  31.046  16.810  1.00  0.00     0.037 A
HETATM    8  C28 UNL     1      15.555  31.817  16.575  1.00  0.00     0.010 A
BRANCH   6   9
HETATM    9  O1  UNL     1      12.632  29.744  16.031  1.00  0.00    -0.351 OA
BRANCH   9  10
HETATM   10  C10 UNL     1      11.586  29.003  16.204  1.00  0.00     0.175 C
BRANCH  10  11
HETATM   11  C9  UNL     1      11.032  28.243  15.007  1.00  0.00     0.028 C
BRANCH  11  12
HETATM   12  C8  UNL     1      12.029  27.418  14.280  1.00  0.00     0.022 C
BRANCH  12  13
HETATM   13  C7  UNL     1      11.647  27.140  12.843  1.00  0.00     0.121 C
BRANCH  13  14
HETATM   14  N2  UNL     1      10.425  27.746  12.454  1.00  0.00    -0.376 N
HETATM   15  C6  UNL     1       9.246  27.298  12.474  1.00  0.00     0.101 A
HETATM   16  N1  UNL     1       8.272  28.145  12.025  1.00  0.00    -0.347 N
HETATM   17  C30 UNL     1       8.821  26.070  12.893  1.00  0.00     0.054 A
HETATM   18  C4  UNL     1       6.982  27.777  12.004  1.00  0.00     0.007 A
ATOM     19  H1  UNL     1       8.532  29.076  11.700  1.00  0.00     0.167 HD
HETATM   20  C3  UNL     1       6.552  26.529  12.432  1.00  0.00     0.031 A
HETATM   21  C5  UNL     1       5.966  28.748  11.502  1.00  0.00     0.068 C
HETATM   22  C2  UNL     1       7.505  25.646  12.892  1.00  0.00    -0.057 A
HETATM   23  C1  UNL     1       7.100  24.306  13.357  1.00  0.00     0.048 C
ATOM     24  H2  UNL     1      10.514  28.699  12.100  1.00  0.00     0.161 HD
ENDBRANCH  13  14
ENDBRANCH  12  13
ENDBRANCH  11  12
ENDBRANCH  10  11
ENDBRANCH   9  10
ENDBRANCH   6   9
ENDBRANCH   2   3
ENDBRANCH   1   2
BRANCH   1  25
HETATM   25  N3  UNL     1      17.468  32.864  12.523  1.00  0.00    -0.348 N
HETATM   26  C17 UNL     1      16.841  32.610  11.299  1.00  0.00     0.223 C
HETATM   27  O2  UNL     1      15.708  33.047  11.035  1.00  0.00    -0.273 OA
ATOM     28  H3  UNL     1      18.401  32.469  12.644  1.00  0.00     0.163 HD
BRANCH  26  29
HETATM   29  C18 UNL     1      17.524  31.793  10.265  1.00  0.00     0.159 C
BRANCH  29  30
HETATM   30  C19 UNL     1      16.544  30.765   9.831  1.00  0.00     0.018 A
HETATM   31  C20 UNL     1      16.417  30.180   8.594  1.00  0.00     0.034 A
HETATM   32  C21 UNL     1      15.369  29.278   8.610  1.00  0.00    -0.041 A
HETATM   33  C26 UNL     1      14.867  29.334   9.898  1.00  0.00     0.095 A
HETATM   34  N7  UNL     1      15.574  30.221  10.611  1.00  0.00    -0.368 N
ATOM     35  H7  UNL     1      15.409  30.451  11.590  1.00  0.00     0.165 HD
BRANCH  32  36
HETATM   36  C22 UNL     1      14.804  28.416   7.541  1.00  0.00     0.049 C
BRANCH  36  37
HETATM   37  C23 UNL     1      13.405  27.964   7.916  1.00  0.00     0.108 C
BRANCH  37  38
HETATM   38  C24 UNL     1      13.428  26.525   8.195  1.00  0.00     0.224 C
HETATM   39  O3  UNL     1      14.429  25.844   7.914  1.00  0.00    -0.273 OA
HETATM   40  N4  UNL     1      12.250  25.975   8.797  1.00  0.00    -0.304 N
HETATM   41  C25 UNL     1      12.283  25.143   9.782  1.00  0.00     0.203 C
ATOM     42  H4  UNL     1      11.341  26.254   8.429  1.00  0.00     0.171 HD
HETATM   43  N5  UNL     1      11.054  24.667  10.298  1.00  0.00    -0.066 NA
HETATM   44  N6  UNL     1      13.559  24.756  10.281  1.00  0.00    -0.066 NA
ENDBRANCH  37  38
ENDBRANCH  36  37
ENDBRANCH  32  36
ENDBRANCH  29  30
ENDBRANCH  26  29
ENDBRANCH   1  25
BRANCH   1  45
HETATM   45  C27 UNL     1      17.554  34.966  13.663  1.00  0.00     0.254 C
HETATM   46  N8  UNL     1      17.561  35.758  12.480  1.00  0.00    -0.060 NA
HETATM   47  O4  UNL     1      18.052  35.394  14.727  1.00  0.00    -0.275 OA
ENDBRANCH   1  45
TORSDOF 15
ENDMDL