MODEL 5
REMARK VINA RESULT: -7.870985646      0.992      1.083
REMARK  15 active torsions:
REMARK  status: ('A' for Active; 'I' for Inactive)
REMARK    1  A    between atoms: N1_2  and  C3_4
REMARK    2  A    between atoms: C3_4  and  C4_5
REMARK    3  A    between atoms: C4_5  and  C5_6
REMARK    4  A    between atoms: C5_6  and  C6_7
REMARK    5  A    between atoms: C6_7  and  C7_8
REMARK    6  A    between atoms: C6_7  and  N5_19
REMARK    7  A    between atoms: C7_8  and  C8_9
REMARK    8  A    between atoms: C8_9  and  C9_10
REMARK    9  A    between atoms: C9_10  and  C10_11
REMARK   10  A    between atoms: C10_11  and  N2_12
REMARK       I    between atoms: N2_12  and  C11_14
REMARK   11  A    between atoms: C13_22  and  C14_23
REMARK   12  A    between atoms: C14_23  and  C15_24
REMARK   13  A    between atoms: C15_24  and  C16_25
REMARK   14  A    between atoms: C16_25  and  N6_26
REMARK   15  A    between atoms: C18_34  and  C19_35
ROOT
HETATM    1  N5  UNL     1      17.334  34.195  13.664  1.00  0.00    -0.311 N
HETATM    2  C12 UNL     1      17.317  33.172  12.665  1.00  0.00     0.255 C
HETATM    3  O1  UNL     1      18.139  33.448  11.793  1.00  0.00    -0.271 OA
HETATM    4  C13 UNL     1      16.564  31.896  12.446  1.00  0.00     0.278 C
HETATM    5  N9  UNL     1      16.181  31.303  13.724  1.00  0.00    -0.052 N
ATOM      6  H91 UNL     1      16.869  31.527  14.443  1.00  0.00     0.279 HD
ATOM      7  H92 UNL     1      16.286  30.289  13.693  1.00  0.00     0.279 HD
HETATM    8  C18 UNL     1      14.880  31.653  14.159  1.00  0.00     0.240 C
HETATM    9  C25 UNL     1      14.761  32.496  15.389  1.00  0.00     0.080 C
HETATM   10  C26 UNL     1      15.918  33.345  15.713  1.00  0.00    -0.029 A
HETATM   11  C27 UNL     1      15.907  33.456  17.100  1.00  0.00     0.009 A
HETATM   12  C28 UNL     1      16.847  34.193  17.787  1.00  0.00     0.001 A
HETATM   13  C29 UNL     1      17.848  34.859  17.115  1.00  0.00     0.002 A
HETATM   14  C30 UNL     1      17.888  34.768  15.736  1.00  0.00     0.030 A
HETATM   15  C31 UNL     1      16.945  34.031  15.068  1.00  0.00     0.044 A
ENDROOT
BRANCH   1  16
HETATM   16  C6  UNL     1      17.743  35.471  13.374  1.00  0.00     0.093 C
BRANCH  16  17
HETATM   17  C5  UNL     1      19.143  35.917  13.113  1.00  0.00     0.027 C
BRANCH  17  18
HETATM   18  C4  UNL     1      19.723  36.810  14.196  1.00  0.00     0.032 C
BRANCH  18  19
HETATM   19  C3  UNL     1      19.265  38.223  14.152  1.00  0.00     0.271 C
BRANCH  19  20
HETATM   20  N1  UNL     1      18.253  38.571  15.116  1.00  0.00     0.080 N
HETATM   21  C1  UNL     1      18.619  38.378  16.474  1.00  0.00     0.309 C
HETATM   22  C2  UNL     1      17.601  39.812  14.842  1.00  0.00     0.309 C
ENDBRANCH  19  20
ENDBRANCH  18  19
ENDBRANCH  17  18
ENDBRANCH  16  17
BRANCH  16  23
HETATM   23  C7  UNL     1      16.985  35.881  12.100  1.00  0.00     0.026 C
BRANCH  23  24
HETATM   24  C8  UNL     1      17.681  36.992  11.343  1.00  0.00     0.004 C
BRANCH  24  25
HETATM   25  C9  UNL     1      16.594  37.981  10.936  1.00  0.00     0.020 C
BRANCH  25  26
HETATM   26  C10 UNL     1      16.943  39.402  11.261  1.00  0.00     0.122 C
BRANCH  26  27
HETATM   27  N2  UNL     1      15.778  40.160  11.680  1.00  0.00    -0.365 N
HETATM   28  C11 UNL     1      14.780  40.441  10.702  1.00  0.00     0.181 C
HETATM   29  N3  UNL     1      13.657  39.829  10.652  1.00  0.00    -0.374 N
HETATM   30  N4  UNL     1      15.059  41.445   9.754  1.00  0.00    -0.064 NA
ATOM     31  H32 UNL     1      13.455  39.102  11.339  1.00  0.00     0.158 HD
ATOM     32  H31 UNL     1      12.943  40.030   9.952  1.00  0.00     0.158 HD
ATOM     33  H2  UNL     1      15.676  40.480  12.643  1.00  0.00     0.162 HD
ENDBRANCH  26  27
ENDBRANCH  25  26
ENDBRANCH  24  25
ENDBRANCH  23  24
ENDBRANCH  16  23
ENDBRANCH   1  16
BRANCH   4  34
HETATM   34  C14 UNL     1      17.429  31.028  11.599  1.00  0.00     0.044 C
BRANCH  34  35
HETATM   35  C15 UNL     1      17.035  31.034  10.149  1.00  0.00     0.022 C
BRANCH  35  36
HETATM   36  C16 UNL     1      16.405  29.681   9.844  1.00  0.00     0.122 C
BRANCH  36  37
HETATM   37  N6  UNL     1      15.791  29.689   8.531  1.00  0.00    -0.367 N
HETATM   38  C17 UNL     1      14.715  29.049   8.235  1.00  0.00     0.196 C
HETATM   39  N7  UNL     1      13.990  28.251   9.161  1.00  0.00    -0.067 NA
HETATM   40  N8  UNL     1      14.243  29.159   6.910  1.00  0.00    -0.067 NA
ATOM     41  H6  UNL     1      16.240  30.236   7.796  1.00  0.00     0.161 HD
ENDBRANCH  36  37
ENDBRANCH  35  36
ENDBRANCH  34  35
ENDBRANCH   4  34
BRANCH   8  42
HETATM   42  C19 UNL     1      13.914  30.521  14.168  1.00  0.00     0.042 A
HETATM   43  C20 UNL     1      13.561  29.825  15.305  1.00  0.00     0.027 A
HETATM   44  C21 UNL     1      12.672  28.779  15.302  1.00  0.00     0.003 A
HETATM   45  C22 UNL     1      12.108  28.409  14.102  1.00  0.00     0.017 A
HETATM   46  C23 UNL     1      12.468  29.111  12.979  1.00  0.00     0.090 A
HETATM   47  N10 UNL     1      13.353  30.141  13.024  1.00  0.00    -0.363 N
HETATM   48  C24 UNL     1      13.653  30.788  11.796  1.00  0.00     0.155 C
ENDBRANCH   8  42
TORSDOF 15
ENDMDL