MODEL 3
REMARK VINA RESULT: -9.689805300      2.325      6.994
REMARK  16 active torsions:
REMARK  status: ('A' for Active; 'I' for Inactive)
REMARK    1  A    between atoms: C2_2  and  C3_3
REMARK    2  A    between atoms: C3_3  and  N1_4
REMARK       I    between atoms: C4_6  and  N3_8
REMARK    3  A    between atoms: C5_10  and  C6_11
REMARK    4  A    between atoms: C5_10  and  C21_32
REMARK    5  A    between atoms: C6_11  and  C7_12
REMARK    6  A    between atoms: C7_12  and  C8_13
REMARK    7  A    between atoms: C8_13  and  C9_14
REMARK    8  A    between atoms: C8_13  and  N4_17
REMARK    9  A    between atoms: N4_17  and  C11_19
REMARK   10  A    between atoms: C11_19  and  C12_20
REMARK       I    between atoms: C12_20  and  N5_22
REMARK   11  A    between atoms: N5_22  and  C13_24
REMARK   12  A    between atoms: C13_24  and  C14_25
REMARK   13  A    between atoms: C21_32  and  N6_33
REMARK       I    between atoms: N6_33  and  C22_35
REMARK   14  A    between atoms: C22_35  and  C23_37
REMARK   15  A    between atoms: C23_37  and  C24_38
REMARK   16  A    between atoms: C27_41  and  C28_42
ROOT
HETATM    1  N1  UNL     1       8.401  28.184  12.464  1.00  0.00    -0.364 N
ATOM      2  H1  UNL     1       8.727  29.150  12.444  1.00  0.00     0.162 HD
HETATM    3  C4  UNL     1       8.957  27.340  13.289  1.00  0.00     0.188 C
HETATM    4  N2  UNL     1       8.458  26.007  13.268  1.00  0.00    -0.064 NA
HETATM    5  N3  UNL     1       9.966  27.807  14.102  1.00  0.00    -0.336 N
ATOM      6  H3  UNL     1       9.658  28.563  14.714  1.00  0.00     0.168 HD
HETATM    7  C5  UNL     1      11.175  27.518  14.264  1.00  0.00     0.007 C
ENDROOT
BRANCH   7   8
HETATM    8  C6  UNL     1      11.940  26.482  13.544  1.00  0.00     0.057 C
BRANCH   8   9
HETATM    9  C7  UNL     1      12.941  26.965  12.565  1.00  0.00     0.053 C
BRANCH   9  10
HETATM   10  C8  UNL     1      12.699  26.585  11.160  1.00  0.00     0.323 C
BRANCH  10  11
HETATM   11  C9  UNL     1      12.678  25.125  10.971  1.00  0.00     0.207 C
HETATM   12  O1  UNL     1      11.692  24.401  10.775  1.00  0.00    -0.646 OA
HETATM   13  O2  UNL     1      13.925  24.437  11.014  1.00  0.00    -0.646 OA
ENDBRANCH  10  11
BRANCH  10  14
HETATM   14  N4  UNL     1      13.674  27.203  10.242  1.00  0.00     0.107 N
HETATM   15  C10 UNL     1      13.124  27.000   8.887  1.00  0.00     0.311 C
BRANCH  14  16
HETATM   16  C11 UNL     1      13.695  28.644  10.444  1.00  0.00     0.375 C
BRANCH  16  17
HETATM   17  C12 UNL     1      15.069  29.144  10.378  1.00  0.00     0.246 C
HETATM   18  O3  UNL     1      15.972  28.649  11.102  1.00  0.00    -0.272 OA
HETATM   19  N5  UNL     1      15.471  30.206   9.508  1.00  0.00    -0.355 N
ATOM     20  H5  UNL     1      14.761  30.625   8.908  1.00  0.00     0.162 HD
BRANCH  19  21
HETATM   21  C13 UNL     1      16.809  30.718   9.426  1.00  0.00     0.161 C
BRANCH  21  22
HETATM   22  C14 UNL     1      16.995  31.948  10.243  1.00  0.00    -0.041 A
HETATM   23  C15 UNL     1      16.841  33.218   9.781  1.00  0.00     0.009 A
HETATM   24  C16 UNL     1      17.033  34.303  10.620  1.00  0.00     0.007 A
HETATM   25  C17 UNL     1      17.385  34.146  11.947  1.00  0.00    -0.062 A
HETATM   26  C18 UNL     1      17.590  35.311  12.851  1.00  0.00     0.048 C
HETATM   27  C19 UNL     1      17.545  32.860  12.430  1.00  0.00     0.007 A
HETATM   28  C20 UNL     1      17.347  31.779  11.565  1.00  0.00     0.009 A
ENDBRANCH  21  22
ENDBRANCH  19  21
ENDBRANCH  16  17
ENDBRANCH  14  16
ENDBRANCH  10  14
ENDBRANCH   9  10
ENDBRANCH   8   9
ENDBRANCH   7   8
BRANCH   7  29
HETATM   29  C21 UNL     1      11.880  28.273  15.378  1.00  0.00     0.175 C
BRANCH  29  30
HETATM   30  N6  UNL     1      12.305  29.569  14.933  1.00  0.00    -0.356 N
HETATM   31  C22 UNL     1      13.617  29.946  14.589  1.00  0.00     0.222 C
HETATM   32  O4  UNL     1      14.560  29.126  14.661  1.00  0.00    -0.273 OA
ATOM     33  H6  UNL     1      11.585  30.288  14.859  1.00  0.00     0.162 HD
BRANCH  31  34
HETATM   34  C23 UNL     1      13.903  31.318  14.135  1.00  0.00     0.141 C
BRANCH  34  35
HETATM   35  C24 UNL     1      14.689  32.071  15.144  1.00  0.00    -0.049 A
HETATM   36  C25 UNL     1      15.062  31.402  16.316  1.00  0.00     0.008 A
HETATM   37  C26 UNL     1      15.792  32.102  17.247  1.00  0.00     0.015 A
HETATM   38  C27 UNL     1      16.146  33.407  17.044  1.00  0.00     0.004 A
HETATM   39  C29 UNL     1      15.773  34.052  15.889  1.00  0.00     0.015 A
HETATM   40  C30 UNL     1      15.043  33.377  14.940  1.00  0.00     0.008 A
BRANCH  38  41
HETATM   41  C28 UNL     1      16.913  34.120  18.039  1.00  0.00     0.120 C
HETATM   42  N7  UNL     1      16.610  34.192  19.283  1.00  0.00    -0.387 N
ATOM     43  H72 UNL     1      15.766  33.711  19.593  1.00  0.00     0.157 HD
ATOM     44  H71 UNL     1      17.151  34.696  19.985  1.00  0.00     0.157 HD
HETATM   45  N8  UNL     1      18.107  34.802  17.601  1.00  0.00    -0.082 NA
ENDBRANCH  38  41
ENDBRANCH  34  35
ENDBRANCH  31  34
ENDBRANCH  29  30
ENDBRANCH   7  29
BRANCH   1  46
HETATM   46  C3  UNL     1       7.344  27.782  11.587  1.00  0.00     0.122 C
BRANCH  46  47
HETATM   47  C2  UNL     1       5.997  28.363  11.971  1.00  0.00     0.015 C
HETATM   48  C1  UNL     1       5.890  29.706  11.250  1.00  0.00     0.006 C
ENDBRANCH  46  47
ENDBRANCH   1  46
TORSDOF 16
ENDMDL