MODEL 1
REMARK VINA RESULT: -9.844820202      0.000      0.000
REMARK  16 active torsions:
REMARK  status: ('A' for Active; 'I' for Inactive)
REMARK    1  A    between atoms: N3_4  and  C2_6
REMARK    2  A    between atoms: C2_6  and  C3_7
REMARK    3  A    between atoms: C3_7  and  C4_8
REMARK    4  A    between atoms: C4_8  and  C5_9
REMARK    5  A    between atoms: C5_9  and  C6_10
REMARK    6  A    between atoms: C5_9  and  C20_33
REMARK    7  A    between atoms: C6_10  and  C7_11
REMARK    8  A    between atoms: C7_11  and  C8_12
REMARK    9  A    between atoms: C8_12  and  N4_13
REMARK       I    between atoms: C9_15  and  N6_17
REMARK   10  A    between atoms: N6_17  and  C10_19
REMARK   11  A    between atoms: C10_19  and  C11_20
REMARK   12  A    between atoms: C11_20  and  C12_21
REMARK   13  A    between atoms: C12_21  and  C13_22
REMARK       I    between atoms: C20_33  and  N9_35
REMARK   14  A    between atoms: N9_35  and  C21_37
REMARK   15  A    between atoms: C21_37  and  C22_38
REMARK   16  A    between atoms: C25_41  and  N10_42
ROOT
HETATM    1  C5  UNL     1      14.491  31.774  14.125  1.00  0.00     0.078 C
ENDROOT
BRANCH   1   2
HETATM    2  C4  UNL     1      14.737  32.842  15.160  1.00  0.00     0.015 C
BRANCH   2   3
HETATM    3  C3  UNL     1      15.137  32.303  16.510  1.00  0.00     0.020 C
BRANCH   3   4
HETATM    4  C2  UNL     1      15.708  33.508  17.275  1.00  0.00     0.122 C
BRANCH   4   5
HETATM    5  N3  UNL     1      16.699  34.112  16.413  1.00  0.00    -0.367 N
HETATM    6  C1  UNL     1      17.751  34.698  16.844  1.00  0.00     0.196 C
HETATM    7  N1  UNL     1      17.945  34.752  18.262  1.00  0.00    -0.067 NA
HETATM    8  N2  UNL     1      18.723  35.291  16.017  1.00  0.00    -0.067 NA
ATOM      9  H3  UNL     1      16.552  34.067  15.404  1.00  0.00     0.161 HD
ENDBRANCH   4   5
ENDBRANCH   3   4
ENDBRANCH   2   3
ENDBRANCH   1   2
BRANCH   1  10
HETATM   10  C6  UNL     1      15.160  30.471  14.606  1.00  0.00     0.015 C
BRANCH  10  11
HETATM   11  C7  UNL     1      14.863  29.316  13.703  1.00  0.00     0.020 C
BRANCH  11  12
HETATM   12  C8  UNL     1      13.944  28.345  14.446  1.00  0.00     0.122 C
BRANCH  12  13
HETATM   13  N4  UNL     1      13.048  27.801  13.502  1.00  0.00    -0.365 N
HETATM   14  C9  UNL     1      11.840  28.121  13.244  1.00  0.00     0.183 C
HETATM   15  N5  UNL     1      11.206  29.167  13.957  1.00  0.00    -0.064 NA
HETATM   16  N6  UNL     1      11.143  27.380  12.225  1.00  0.00    -0.365 N
ATOM     17  H6  UNL     1      10.488  27.853  11.603  1.00  0.00     0.162 HD
ATOM     18  H4  UNL     1      13.424  27.036  12.941  1.00  0.00     0.162 HD
BRANCH  16  19
HETATM   19  C10 UNL     1      11.380  25.949  12.089  1.00  0.00     0.122 C
BRANCH  19  20
HETATM   20  C11 UNL     1      11.597  25.711  10.598  1.00  0.00     0.027 C
BRANCH  20  21
HETATM   21  C12 UNL     1      13.050  25.337  10.418  1.00  0.00     0.078 C
BRANCH  21  22
HETATM   22  C13 UNL     1      13.815  26.530   9.911  1.00  0.00     0.082 A
HETATM   23  N7  UNL     1      14.006  26.874   8.636  1.00  0.00    -0.344 N
HETATM   24  C14 UNL     1      14.756  27.990   8.520  1.00  0.00     0.060 A
ATOM     25  H7  UNL     1      13.630  26.355   7.843  1.00  0.00     0.167 HD
HETATM   26  C15 UNL     1      15.221  28.732   7.455  1.00  0.00     0.032 A
HETATM   27  C19 UNL     1      15.045  28.359   9.834  1.00  0.00     0.060 A
HETATM   28  C16 UNL     1      15.982  29.849   7.698  1.00  0.00     0.002 A
HETATM   29  C17 UNL     1      16.286  30.239   8.984  1.00  0.00     0.002 A
HETATM   30  C18 UNL     1      15.811  29.485  10.025  1.00  0.00     0.032 A
HETATM   31  N8  UNL     1      14.460  27.454  10.654  1.00  0.00    -0.344 N
ATOM     32  H8  UNL     1      14.501  27.469  11.674  1.00  0.00     0.167 HD
ENDBRANCH  21  22
ENDBRANCH  20  21
ENDBRANCH  19  20
ENDBRANCH  16  19
ENDBRANCH  12  13
ENDBRANCH  11  12
ENDBRANCH  10  11
ENDBRANCH   1  10
BRANCH   1  33
HETATM   33  C20 UNL     1      15.186  32.200  12.855  1.00  0.00     0.222 C
HETATM   34  O1  UNL     1      14.498  32.347  11.811  1.00  0.00    -0.273 OA
HETATM   35  N9  UNL     1      16.579  32.441  12.797  1.00  0.00    -0.356 N
ATOM     36  H9  UNL     1      17.158  32.334  13.630  1.00  0.00     0.162 HD
BRANCH  35  37
HETATM   37  C21 UNL     1      17.171  32.843  11.539  1.00  0.00     0.162 C
BRANCH  37  38
HETATM   38  C22 UNL     1      17.178  34.335  11.406  1.00  0.00    -0.025 A
HETATM   39  C23 UNL     1      16.915  34.949  10.204  1.00  0.00     0.014 A
HETATM   40  C24 UNL     1      16.924  36.340  10.163  1.00  0.00     0.050 A
HETATM   41  C25 UNL     1      17.187  37.113  11.273  1.00  0.00     0.111 A
HETATM   42  N11 UNL     1      17.439  36.472  12.426  1.00  0.00    -0.351 N
HETATM   43  C31 UNL     1      17.440  35.128  12.511  1.00  0.00     0.098 A
ATOM     44  H11 UNL     1      17.636  37.020  13.263  1.00  0.00     0.166 HD
BRANCH  41  45
HETATM   45  N10 UNL     1      17.170  38.527  11.134  1.00  0.00    -0.319 N
HETATM   46  C26 UNL     1      18.319  39.220  11.015  1.00  0.00     0.098 A
HETATM   47  C27 UNL     1      18.386  40.582  10.878  1.00  0.00     0.018 A
HETATM   48  C28 UNL     1      17.192  41.283  10.862  1.00  0.00     0.003 A
HETATM   49  C29 UNL     1      16.012  40.587  10.982  1.00  0.00     0.018 A
HETATM   50  C30 UNL     1      16.001  39.223  11.118  1.00  0.00     0.098 A
ENDBRANCH  41  45
ENDBRANCH  37  38
ENDBRANCH  35  37
ENDBRANCH   1  33
TORSDOF 16
ENDMDL