MODEL 3
REMARK VINA RESULT: -8.979580450      1.962      5.882
REMARK  15 active torsions:
REMARK  status: ('A' for Active; 'I' for Inactive)
REMARK    1  A    between atoms: N1_2  and  C3_4
REMARK    2  A    between atoms: N1_2  and  C17_22
REMARK    3  A    between atoms: C4_5  and  C5_6
REMARK    4  A    between atoms: C5_6  and  C6_7
REMARK    5  A    between atoms: C6_7  and  C7_8
REMARK    6  A    between atoms: C7_8  and  N2_9
REMARK    7  A    between atoms: C17_22  and  C18_23
REMARK    8  A    between atoms: C19_26  and  C20_27
REMARK    9  A    between atoms: C20_27  and  O1_28
REMARK   10  A    between atoms: C21_30  and  C22_31
REMARK   11  A    between atoms: C22_31  and  C23_32
REMARK   12  A    between atoms: C23_32  and  C24_33
REMARK   13  A    between atoms: C24_33  and  N5_34
REMARK   14  A    between atoms: N8_41  and  C27_42
REMARK   15  A    between atoms: C27_42  and  C28_43
ROOT
HETATM    1  C18 UNL     1      13.132  28.161  11.077  1.00  0.00     0.209 C
HETATM    2  N4  UNL     1      13.796  29.432  11.203  1.00  0.00    -0.393 N
ATOM      3  H4  UNL     1      14.509  29.732  10.538  1.00  0.00     0.155 HD
HETATM    4  C19 UNL     1      13.408  30.251  12.302  1.00  0.00     0.115 C
HETATM    5  C21 UNL     1      13.796  29.650  13.631  1.00  0.00     0.102 C
HETATM    6  C26 UNL     1      13.684  28.184  13.478  1.00  0.00     0.228 C
HETATM    7  O2  UNL     1      14.217  27.432  14.346  1.00  0.00    -0.273 OA
HETATM    8  N8  UNL     1      13.009  27.590  12.406  1.00  0.00    -0.323 N
ENDROOT
BRANCH   1   9
HETATM    9  C17 UNL     1      13.904  27.242  10.169  1.00  0.00     0.288 C
BRANCH   9  10
HETATM   10  N1  UNL     1      13.338  26.942   8.899  1.00  0.00    -0.051 N
HETATM   11  C1  UNL     1      12.198  25.997   8.982  1.00  0.00     0.278 C
HETATM   12  C2  UNL     1      14.274  26.214   8.062  1.00  0.00     0.278 C
BRANCH  10  13
HETATM   13  C3  UNL     1      12.825  28.056   8.172  1.00  0.00     0.198 C
HETATM   14  C4  UNL     1      13.626  29.215   7.854  1.00  0.00    -0.002 C
BRANCH  14  15
HETATM   15  C5  UNL     1      14.799  29.294   7.004  1.00  0.00     0.030 C
BRANCH  15  16
HETATM   16  C6  UNL     1      16.162  29.373   7.578  1.00  0.00     0.023 C
BRANCH  16  17
HETATM   17  C7  UNL     1      16.390  29.727   8.982  1.00  0.00     0.120 C
BRANCH  17  18
HETATM   18  N2  UNL     1      16.681  31.143   9.168  1.00  0.00    -0.389 N
HETATM   19  C8  UNL     1      17.025  31.615  10.299  1.00  0.00     0.041 A
HETATM   20  C9  UNL     1      17.163  30.895  11.451  1.00  0.00     0.047 A
HETATM   21  C16 UNL     1      17.280  32.987  10.349  1.00  0.00     0.017 A
HETATM   22  C10 UNL     1      17.550  31.506  12.651  1.00  0.00     0.090 A
HETATM   23  N3  UNL     1      17.793  32.822  12.687  1.00  0.00    -0.365 N
HETATM   24  C11 UNL     1      17.656  33.535  11.548  1.00  0.00     0.044 A
ATOM     25  H3  UNL     1      18.076  33.276  13.555  1.00  0.00     0.165 HD
HETATM   26  C12 UNL     1      17.902  34.901  11.562  1.00  0.00     0.030 A
HETATM   27  C13 UNL     1      17.778  35.678  10.430  1.00  0.00     0.002 A
HETATM   28  C14 UNL     1      17.400  35.097   9.246  1.00  0.00     0.001 A
HETATM   29  C15 UNL     1      17.146  33.748   9.185  1.00  0.00     0.016 A
ATOM     30  H2  UNL     1      16.607  31.773   8.369  1.00  0.00     0.159 HD
ENDBRANCH  17  18
ENDBRANCH  16  17
ENDBRANCH  15  16
ENDBRANCH  14  15
ENDBRANCH  10  13
ENDBRANCH   9  10
ENDBRANCH   1   9
BRANCH   8  31
HETATM   31  C27 UNL     1      12.176  26.389  12.564  1.00  0.00     0.186 C
BRANCH  31  32
HETATM   32  C28 UNL     1      10.745  26.849  12.487  1.00  0.00     0.043 A
HETATM   33  C29 UNL     1      10.144  27.832  13.244  1.00  0.00     0.115 A
HETATM   34  N9  UNL     1       8.860  27.953  12.879  1.00  0.00    -0.360 N
HETATM   35  C30 UNL     1       8.644  27.057  11.898  1.00  0.00     0.180 A
ATOM     36  H9  UNL     1       8.177  28.602  13.270  1.00  0.00     0.166 HD
HETATM   37  N10 UNL     1       9.787  26.388  11.662  1.00  0.00    -0.353 N
ATOM     38  H10 UNL     1       9.907  25.649  10.969  1.00  0.00     0.166 HD
ENDBRANCH  31  32
ENDBRANCH   8  31
BRANCH   4  39
HETATM   39  C20 UNL     1      14.132  31.588  12.082  1.00  0.00     0.189 C
BRANCH  39  40
HETATM   40  O1  UNL     1      13.313  32.626  12.504  1.00  0.00    -0.399 OA
ATOM     41  H1  UNL     1      13.164  33.222  11.779  1.00  0.00     0.209 HD
ENDBRANCH  39  40
ENDBRANCH   4  39
BRANCH   5  42
HETATM   42  C22 UNL     1      12.834  29.985  14.749  1.00  0.00     0.018 C
BRANCH  42  43
HETATM   43  C23 UNL     1      13.442  30.417  16.026  1.00  0.00     0.020 C
BRANCH  43  44
HETATM   44  C24 UNL     1      14.912  30.748  15.719  1.00  0.00     0.122 C
BRANCH  44  45
HETATM   45  N5  UNL     1      15.389  31.777  16.620  1.00  0.00    -0.367 N
HETATM   46  C25 UNL     1      15.594  32.990  16.244  1.00  0.00     0.196 C
HETATM   47  N6  UNL     1      15.342  33.339  14.891  1.00  0.00    -0.067 NA
HETATM   48  N7  UNL     1      16.059  34.007  17.101  1.00  0.00    -0.067 NA
ATOM     49  H5  UNL     1      15.571  31.529  17.592  1.00  0.00     0.161 HD
ENDBRANCH  44  45
ENDBRANCH  43  44
ENDBRANCH  42  43
ENDBRANCH   5  42
TORSDOF 15
ENDMDL