MODEL 1
REMARK VINA RESULT: -7.897070164      0.000      0.000
REMARK  19 active torsions:
REMARK  status: ('A' for Active; 'I' for Inactive)
REMARK    1  A    between atoms: C2_2  and  C3_3
REMARK    2  A    between atoms: C3_3  and  C4_4
REMARK    3  A    between atoms: C4_4  and  C5_5
REMARK    4  A    between atoms: C5_5  and  N1_6
REMARK    5  A    between atoms: N1_6  and  C6_7
REMARK       I    between atoms: N1_6  and  C10_11
REMARK    6  A    between atoms: C6_7  and  C7_8
REMARK    7  A    between atoms: C7_8  and  C8_9
REMARK    8  A    between atoms: C10_11  and  C11_13
REMARK    9  A    between atoms: C11_13  and  C12_14
REMARK   10  A    between atoms: C11_13  and  C26_38
REMARK   11  A    between atoms: C13_15  and  C14_16
REMARK   12  A    between atoms: C16_18  and  O2_19
REMARK   13  A    between atoms: C17_21  and  N2_22
REMARK       I    between atoms: N2_22  and  C18_24
REMARK       I    between atoms: N3_28  and  C21_29
REMARK       I    between atoms: C21_29  and  N4_31
REMARK   14  A    between atoms: N4_31  and  C22_33
REMARK   15  A    between atoms: C22_33  and  C23_34
REMARK   16  A    between atoms: C23_34  and  C24_35
REMARK   17  A    between atoms: C26_38  and  C27_39
REMARK   18  A    between atoms: C27_39  and  C28_40
REMARK   19  A    between atoms: C28_40  and  N6_41
ROOT
HETATM    1  C12 UNL     1      14.657  29.840  10.592  1.00  0.00    -0.090 C
HETATM    2  C13 UNL     1      13.758  29.099  10.979  1.00  0.00    -0.080 C
ENDROOT
BRANCH   2   3
HETATM    3  C14 UNL     1      12.745  28.200  11.425  1.00  0.00     0.171 C
HETATM    4  C15 UNL     1      13.130  26.726  11.478  1.00  0.00     0.072 C
HETATM    5  C16 UNL     1      11.952  25.922  11.873  1.00  0.00     0.145 C
HETATM    6  C17 UNL     1      10.733  26.559  12.388  1.00  0.00     0.131 C
HETATM    7  C20 UNL     1      10.770  28.004  12.773  1.00  0.00     0.156 C
HETATM    8  N3  UNL     1      12.188  28.484  12.696  1.00  0.00    -0.317 N
HETATM    9  C21 UNL     1      12.710  29.011  13.887  1.00  0.00     0.323 C
HETATM   10  O4  UNL     1      11.814  29.238  14.783  1.00  0.00    -0.247 OA
HETATM   11  N4  UNL     1      14.044  29.291  14.175  1.00  0.00    -0.319 N
ATOM     12  H4  UNL     1      14.682  29.095  13.404  1.00  0.00     0.170 HD
BRANCH   5  13
HETATM   13  O2  UNL     1      12.442  24.911  12.756  1.00  0.00    -0.393 OA
ATOM     14  H2  UNL     1      12.477  24.111  12.246  1.00  0.00     0.210 HD
ENDBRANCH   5  13
BRANCH   6  15
HETATM   15  N2  UNL     1       9.599  26.273  11.501  1.00  0.00    -0.353 N
HETATM   16  C18 UNL     1       8.972  25.009  11.484  1.00  0.00     0.214 C
HETATM   17  C19 UNL     1       7.827  24.666  10.615  1.00  0.00     0.117 C
HETATM   18  O3  UNL     1       9.411  24.119  12.256  1.00  0.00    -0.274 OA
ATOM     19  H2  UNL     1       9.255  27.006  10.881  1.00  0.00     0.163 HD
ENDBRANCH   6  15
BRANCH  11  20
HETATM   20  C22 UNL     1      14.675  29.788  15.316  1.00  0.00     0.094 C
BRANCH  20  21
HETATM   21  C23 UNL     1      15.076  31.166  15.516  1.00  0.00     0.039 C
BRANCH  21  22
HETATM   22  C24 UNL     1      14.484  32.381  14.968  1.00  0.00     0.021 C
HETATM   23  C25 UNL     1      15.072  33.675  15.491  1.00  0.00     0.065 C
HETATM   24  N5  UNL     1      14.244  32.470  13.569  1.00  0.00    -0.107 NA
ENDBRANCH  21  22
ENDBRANCH  20  21
ENDBRANCH  11  20
ENDBRANCH   2   3
BRANCH   1  25
HETATM   25  C11 UNL     1      15.704  30.737  10.114  1.00  0.00     0.157 C
BRANCH  25  26
HETATM   26  C10 UNL     1      16.510  31.294  11.197  1.00  0.00     0.235 C
HETATM   27  N1  UNL     1      16.906  32.644  11.373  1.00  0.00    -0.351 N
HETATM   28  O1  UNL     1      16.891  30.439  12.078  1.00  0.00    -0.272 OA
BRANCH  27  29
HETATM   29  C5  UNL     1      17.705  32.968  12.520  1.00  0.00     0.126 C
BRANCH  29  30
HETATM   30  C4  UNL     1      17.680  34.360  12.995  1.00  0.00     0.020 C
BRANCH  30  31
HETATM   31  C3  UNL     1      18.875  35.201  12.953  1.00  0.00     0.001 C
BRANCH  31  32
HETATM   32  C2  UNL     1      19.418  35.713  14.251  1.00  0.00    -0.004 C
HETATM   33  C1  UNL     1      18.573  35.095  15.374  1.00  0.00     0.005 C
ENDBRANCH  31  32
ENDBRANCH  30  31
ENDBRANCH  29  30
ENDBRANCH  27  29
BRANCH  27  34
HETATM   34  C6  UNL     1      16.490  33.673  10.465  1.00  0.00     0.125 C
BRANCH  34  35
HETATM   35  C7  UNL     1      17.354  33.828   9.243  1.00  0.00     0.020 C
BRANCH  35  36
HETATM   36  C8  UNL     1      17.795  35.273   9.120  1.00  0.00    -0.003 C
HETATM   37  C9  UNL     1      16.927  36.190   9.948  1.00  0.00     0.005 C
ENDBRANCH  35  36
ENDBRANCH  34  35
ENDBRANCH  27  34
ENDBRANCH  25  26
BRANCH  25  38
HETATM   38  C26 UNL     1      16.564  29.993   9.093  1.00  0.00     0.028 C
BRANCH  38  39
HETATM   39  C27 UNL     1      15.936  29.957   7.734  1.00  0.00     0.021 C
BRANCH  39  40
HETATM   40  C28 UNL     1      15.622  28.572   7.244  1.00  0.00     0.122 C
BRANCH  40  41
HETATM   41  N6  UNL     1      14.251  28.269   7.607  1.00  0.00    -0.367 N
HETATM   42  C29 UNL     1      13.893  27.019   7.677  1.00  0.00     0.196 C
HETATM   43  N7  UNL     1      12.558  26.727   8.029  1.00  0.00    -0.067 NA
HETATM   44  N8  UNL     1      14.849  25.984   7.400  1.00  0.00    -0.067 NA
ATOM     45  H6  UNL     1      13.584  29.016   7.803  1.00  0.00     0.161 HD
ENDBRANCH  40  41
ENDBRANCH  39  40
ENDBRANCH  38  39
ENDBRANCH  25  38
ENDBRANCH   1  25
TORSDOF 19
ENDMDL