MODEL 4
REMARK VINA RESULT: -9.681177212      1.272      1.650
REMARK  16 active torsions:
REMARK  status: ('A' for Active; 'I' for Inactive)
REMARK    1  A    between atoms: C2_2  and  C4_4
REMARK    2  A    between atoms: C2_2  and  N4_22
REMARK    3  A    between atoms: C4_4  and  C5_5
REMARK    4  A    between atoms: C5_5  and  C6_6
REMARK    5  A    between atoms: C6_6  and  N1_7
REMARK       I    between atoms: C7_9  and  N3_11
REMARK    6  A    between atoms: N3_11  and  C8_13
REMARK    7  A    between atoms: C8_13  and  C9_14
REMARK    8  A    between atoms: C9_14  and  C10_15
REMARK    9  A    between atoms: C10_15  and  C11_16
REMARK   10  A    between atoms: N4_22  and  C17_23
REMARK   11  A    between atoms: N4_22  and  C24_30
REMARK   12  A    between atoms: C17_23  and  C18_24
REMARK   13  A    between atoms: C26_35  and  C27_36
REMARK   14  A    between atoms: C27_36  and  C28_37
REMARK   15  A    between atoms: C28_37  and  C29_38
REMARK   16  A    between atoms: C29_38  and  N6_39
ROOT
HETATM    1  N4  UNL     1      14.157  30.073  13.854  1.00  0.00    -0.352 N
ENDROOT
BRANCH   1   2
HETATM    2  C2  UNL     1      13.191  29.266  14.453  1.00  0.00     0.027 C
HETATM    3  C1  UNL     1      13.745  27.829  14.638  1.00  0.00     0.038 C
HETATM    4  C3  UNL     1      12.660  29.597  15.796  1.00  0.00     0.038 C
BRANCH   2   5
HETATM    5  C4  UNL     1      12.002  28.997  13.522  1.00  0.00     0.035 C
BRANCH   5   6
HETATM    6  C5  UNL     1      10.752  28.492  14.048  1.00  0.00     0.047 C
BRANCH   6   7
HETATM    7  C6  UNL     1       9.935  27.494  13.240  1.00  0.00     0.063 C
BRANCH   7   8
HETATM    8  N1  UNL     1      10.732  26.437  12.827  1.00  0.00    -0.344 N
HETATM    9  C7  UNL     1      11.260  25.831  11.938  1.00  0.00     0.187 C
HETATM   10  N2  UNL     1      12.054  24.668  12.272  1.00  0.00    -0.064 NA
HETATM   11  N3  UNL     1      11.199  26.125  10.558  1.00  0.00    -0.364 N
ATOM     12  H3  UNL     1      11.227  27.086  10.217  1.00  0.00     0.162 HD
ATOM     13  H1  UNL     1      10.991  25.944  13.682  1.00  0.00     0.167 HD
BRANCH  11  14
HETATM   14  C8  UNL     1      11.094  25.016   9.656  1.00  0.00     0.122 C
BRANCH  14  15
HETATM   15  C9  UNL     1      11.876  25.206   8.383  1.00  0.00     0.024 C
BRANCH  15  16
HETATM   16  C10 UNL     1      13.320  25.507   8.801  1.00  0.00     0.040 C
BRANCH  16  17
HETATM   17  C11 UNL     1      13.775  26.708   8.097  1.00  0.00    -0.058 A
HETATM   18  C12 UNL     1      14.481  26.629   6.923  1.00  0.00     0.007 A
HETATM   19  C13 UNL     1      14.922  27.791   6.272  1.00  0.00     0.001 A
HETATM   20  C14 UNL     1      14.648  29.026   6.811  1.00  0.00     0.000 A
HETATM   21  C15 UNL     1      13.940  29.118   7.989  1.00  0.00     0.001 A
HETATM   22  C16 UNL     1      13.513  27.968   8.617  1.00  0.00     0.007 A
ENDBRANCH  16  17
ENDBRANCH  15  16
ENDBRANCH  14  15
ENDBRANCH  11  14
ENDBRANCH   7   8
ENDBRANCH   6   7
ENDBRANCH   5   6
ENDBRANCH   2   5
ENDBRANCH   1   2
BRANCH   1  23
HETATM   23  C17 UNL     1      15.305  30.491  14.543  1.00  0.00     0.100 C
BRANCH  23  24
HETATM   24  C18 UNL     1      15.299  31.583  15.524  1.00  0.00    -0.021 A
HETATM   25  C19 UNL     1      15.543  31.300  16.863  1.00  0.00     0.013 A
HETATM   26  C20 UNL     1      15.585  32.291  17.809  1.00  0.00     0.001 A
HETATM   27  C21 UNL     1      15.378  33.602  17.420  1.00  0.00     0.000 A
HETATM   28  C22 UNL     1      15.136  33.894  16.090  1.00  0.00     0.001 A
HETATM   29  C23 UNL     1      15.099  32.893  15.171  1.00  0.00     0.013 A
ENDBRANCH  23  24
ENDBRANCH   1  23
BRANCH   1  30
HETATM   30  C24 UNL     1      14.080  30.433  12.495  1.00  0.00     0.281 C
HETATM   31  N5  UNL     1      15.025  29.709  11.661  1.00  0.00    -0.330 N
HETATM   32  C25 UNL     1      16.007  30.328  10.881  1.00  0.00     0.242 C
ATOM     33  H5  UNL     1      14.969  28.691  11.644  1.00  0.00     0.165 HD
HETATM   34  O1  UNL     1      16.688  29.567  10.104  1.00  0.00    -0.271 OA
HETATM   35  C26 UNL     1      16.267  31.748  10.920  1.00  0.00     0.176 C
HETATM   36  N9  UNL     1      15.331  32.451  11.736  1.00  0.00    -0.344 N
HETATM   37  C31 UNL     1      14.069  31.829  12.073  1.00  0.00     0.261 C
ATOM     38  H9  UNL     1      15.550  33.387  12.078  1.00  0.00     0.163 HD
HETATM   39  O2  UNL     1      13.090  32.606  11.952  1.00  0.00    -0.269 OA
BRANCH  35  40
HETATM   40  C27 UNL     1      17.643  32.155  11.302  1.00  0.00     0.036 C
BRANCH  40  41
HETATM   41  C28 UNL     1      18.142  33.468  10.839  1.00  0.00     0.022 C
BRANCH  41  42
HETATM   42  C29 UNL     1      18.092  34.492  11.961  1.00  0.00     0.122 C
BRANCH  42  43
HETATM   43  N6  UNL     1      19.402  34.697  12.449  1.00  0.00    -0.367 N
HETATM   44  C30 UNL     1      19.791  35.472  13.326  1.00  0.00     0.196 C
HETATM   45  N7  UNL     1      18.972  36.357  14.056  1.00  0.00    -0.067 NA
HETATM   46  N8  UNL     1      21.199  35.492  13.641  1.00  0.00    -0.067 NA
ATOM     47  H6  UNL     1      20.126  34.125  12.015  1.00  0.00     0.161 HD
ENDBRANCH  42  43
ENDBRANCH  41  42
ENDBRANCH  40  41
ENDBRANCH  35  40
ENDBRANCH   1  30
TORSDOF 16
ENDMDL