MODEL 5
REMARK VINA RESULT: -8.631968911      2.861     10.296
REMARK  17 active torsions:
REMARK  status: ('A' for Active; 'I' for Inactive)
REMARK    1  A    between atoms: C2_2  and  C3_3
REMARK    2  A    between atoms: C3_3  and  C4_4
REMARK    3  A    between atoms: C4_4  and  C5_5
REMARK    4  A    between atoms: C5_5  and  C6_6
REMARK    5  A    between atoms: C6_6  and  S1_7
REMARK    6  A    between atoms: S1_7  and  C7_9
REMARK    7  A    between atoms: C7_9  and  C8_10
REMARK    8  A    between atoms: C7_9  and  C16_24
REMARK    9  A    between atoms: C8_10  and  C9_11
REMARK   10  A    between atoms: C12_14  and  N1_15
REMARK       I    between atoms: N1_15  and  C13_17
REMARK       I    between atoms: C16_24  and  N4_26
REMARK   11  A    between atoms: N4_26  and  C17_27
REMARK   12  A    between atoms: N4_26  and  C25_41
REMARK   13  A    between atoms: C17_27  and  C18_28
REMARK   14  A    between atoms: C18_28  and  C19_29
REMARK   15  A    between atoms: C22_32  and  S2_33
REMARK   16  A    between atoms: S2_33  and  N5_34
REMARK   17  A    between atoms: C25_41  and  C26_42
ROOT
HETATM    1  C7  UNL     1      15.314  30.262  11.274  1.00  0.00     0.175 C
ENDROOT
BRANCH   1   2
HETATM    2  S1  UNL     1      15.937  31.819  11.058  1.00  0.00     0.028 S
HETATM    3  O1  UNL     1      14.979  33.088  11.620  1.00  0.00    -0.257 OA
BRANCH   2   4
HETATM    4  C6  UNL     1      17.003  32.276   9.797  1.00  0.00     0.109 C
BRANCH   4   5
HETATM    5  C5  UNL     1      16.961  33.802   9.543  1.00  0.00     0.013 C
BRANCH   5   6
HETATM    6  C4  UNL     1      18.256  34.471   9.839  1.00  0.00     0.001 C
BRANCH   6   7
HETATM    7  C3  UNL     1      18.947  34.000  11.076  1.00  0.00    -0.000 C
BRANCH   7   8
HETATM    8  C2  UNL     1      18.314  34.622  12.315  1.00  0.00    -0.005 C
HETATM    9  C1  UNL     1      18.197  36.113  12.212  1.00  0.00     0.005 C
ENDBRANCH   7   8
ENDBRANCH   6   7
ENDBRANCH   5   6
ENDBRANCH   4   5
ENDBRANCH   2   4
ENDBRANCH   1   2
BRANCH   1  10
HETATM   10  C8  UNL     1      15.865  29.130  10.510  1.00  0.00     0.065 C
BRANCH  10  11
HETATM   11  C9  UNL     1      15.013  28.231   9.739  1.00  0.00    -0.056 A
HETATM   12  C10 UNL     1      14.988  28.200   8.360  1.00  0.00     0.009 A
HETATM   13  C11 UNL     1      14.188  27.333   7.653  1.00  0.00     0.030 A
HETATM   14  C12 UNL     1      13.359  26.441   8.284  1.00  0.00     0.034 A
HETATM   15  C14 UNL     1      13.366  26.454   9.658  1.00  0.00     0.030 A
HETATM   16  C15 UNL     1      14.160  27.315  10.380  1.00  0.00     0.009 A
BRANCH  14  17
HETATM   17  N1  UNL     1      12.547  25.562   7.529  1.00  0.00    -0.331 N
HETATM   18  C13 UNL     1      11.294  25.109   8.015  1.00  0.00     0.186 C
HETATM   19  N2  UNL     1      11.244  24.082   8.804  1.00  0.00    -0.373 N
HETATM   20  N3  UNL     1      10.085  25.741   7.666  1.00  0.00    -0.064 NA
ATOM     21  H22 UNL     1      12.120  23.625   9.056  1.00  0.00     0.158 HD
ATOM     22  H21 UNL     1      10.342  23.757   9.153  1.00  0.00     0.158 HD
ATOM     23  H1  UNL     1      12.871  25.246   6.614  1.00  0.00     0.168 HD
ENDBRANCH  14  17
ENDBRANCH  10  11
ENDBRANCH   1  10
BRANCH   1  24
HETATM   24  C16 UNL     1      15.436  29.884  12.739  1.00  0.00     0.236 C
HETATM   25  O2  UNL     1      16.583  29.588  13.132  1.00  0.00    -0.272 OA
HETATM   26  N4  UNL     1      14.334  29.868  13.621  1.00  0.00    -0.343 N
BRANCH  26  27
HETATM   27  C17 UNL     1      14.568  29.546  15.014  1.00  0.00     0.131 C
BRANCH  27  28
HETATM   28  C18 UNL     1      14.004  30.646  15.882  1.00  0.00     0.058 C
BRANCH  28  29
HETATM   29  C19 UNL     1      14.946  31.742  16.116  1.00  0.00    -0.057 A
HETATM   30  C20 UNL     1      15.529  32.023  17.332  1.00  0.00     0.009 A
HETATM   31  C21 UNL     1      16.411  33.069  17.500  1.00  0.00     0.026 A
HETATM   32  C22 UNL     1      16.748  33.888  16.434  1.00  0.00     0.079 A
HETATM   33  C23 UNL     1      16.180  33.625  15.220  1.00  0.00     0.026 A
HETATM   34  C24 UNL     1      15.288  32.565  15.061  1.00  0.00     0.009 A
BRANCH  32  35
HETATM   35  S2  UNL     1      17.879  35.208  16.702  1.00  0.00     0.256 S
HETATM   36  O3  UNL     1      19.147  34.986  15.937  1.00  0.00    -0.201 OA
HETATM   37  O4  UNL     1      18.257  35.275  18.165  1.00  0.00    -0.201 OA
BRANCH  35  38
HETATM   38  N5  UNL     1      17.131  36.702  16.242  1.00  0.00    -0.324 N
ATOM     39  H52 UNL     1      16.142  36.809  16.018  1.00  0.00     0.169 HD
ATOM     40  H51 UNL     1      17.834  37.441  16.233  1.00  0.00     0.169 HD
ENDBRANCH  35  38
ENDBRANCH  32  35
ENDBRANCH  28  29
ENDBRANCH  27  28
ENDBRANCH  26  27
BRANCH  26  41
HETATM   41  C25 UNL     1      12.963  30.116  13.244  1.00  0.00     0.225 C
BRANCH  41  42
HETATM   42  C26 UNL     1      12.066  28.996  13.615  1.00  0.00     0.249 C
HETATM   43  N6  UNL     1      10.968  29.248  14.470  1.00  0.00    -0.061 NA
HETATM   44  O5  UNL     1      12.250  27.834  13.195  1.00  0.00    -0.275 OA
ENDBRANCH  41  42
ENDBRANCH  26  41
ENDBRANCH   1  24
TORSDOF 17
ENDMDL