MODEL 3
REMARK VINA RESULT: -8.754722943      3.124     11.167
REMARK  16 active torsions:
REMARK  status: ('A' for Active; 'I' for Inactive)
REMARK    1  A    between atoms: N1_5  and  C5_6
REMARK    2  A    between atoms: C5_6  and  C6_7
REMARK    3  A    between atoms: C6_7  and  C7_8
REMARK    4  A    between atoms: C7_8  and  C8_9
REMARK    5  A    between atoms: C8_9  and  C9_10
REMARK    6  A    between atoms: C9_10  and  C10_11
REMARK    7  A    between atoms: C10_11  and  C11_12
REMARK    8  A    between atoms: C11_12  and  C12_13
REMARK    9  A    between atoms: C12_13  and  C13_14
REMARK   10  A    between atoms: C13_14  and  C14_15
REMARK   11  A    between atoms: C14_15  and  C15_16
REMARK   12  A    between atoms: C15_16  and  C16_17
REMARK   13  A    between atoms: C16_17  and  C17_18
REMARK       I    between atoms: C17_18  and  N2_20
REMARK   14  A    between atoms: N2_20  and  C18_22
REMARK   15  A    between atoms: C21_28  and  N4_29
REMARK       I    between atoms: N4_29  and  C22_31
REMARK   16  A    between atoms: C22_31  and  C23_33
REMARK       I    between atoms: C23_33  and  N5_35
ROOT
HETATM    1  C18 UNL     1      17.475  33.195  10.170  1.00  0.00     0.197 C
HETATM    2  C19 UNL     1      17.690  34.361   9.262  1.00  0.00     0.169 C
HETATM    3  N3  UNL     1      17.281  35.579   9.919  1.00  0.00    -0.356 N
ATOM      4  H3  UNL     1      16.842  36.278   9.320  1.00  0.00     0.162 HD
HETATM    5  C20 UNL     1      17.408  35.935  11.297  1.00  0.00     0.242 C
HETATM    6  O2  UNL     1      17.013  37.079  11.608  1.00  0.00    -0.271 OA
HETATM    7  C21 UNL     1      17.978  35.052  12.398  1.00  0.00     0.194 C
HETATM    8  C27 UNL     1      19.013  34.219  11.750  1.00  0.00     0.150 C
HETATM    9  N8  UNL     1      18.508  33.027  11.159  1.00  0.00    -0.398 N
ATOM     10  H8  UNL     1      18.858  32.106  11.420  1.00  0.00     0.155 HD
ENDROOT
BRANCH   1  11
HETATM   11  N2  UNL     1      16.140  33.123  10.697  1.00  0.00    -0.339 N
HETATM   12  C17 UNL     1      15.669  31.881  11.227  1.00  0.00     0.219 C
HETATM   13  O1  UNL     1      16.450  30.904  11.211  1.00  0.00    -0.274 OA
ATOM     14  H2  UNL     1      15.537  33.945  10.693  1.00  0.00     0.164 HD
BRANCH  12  15
HETATM   15  C16 UNL     1      14.300  31.753  11.782  1.00  0.00     0.103 C
BRANCH  15  16
HETATM   16  C15 UNL     1      14.108  32.444  13.072  1.00  0.00     0.009 C
BRANCH  16  17
HETATM   17  C14 UNL     1      15.021  32.126  14.195  1.00  0.00     0.000 C
BRANCH  17  18
HETATM   18  C13 UNL     1      14.928  30.700  14.697  1.00  0.00     0.000 C
BRANCH  18  19
HETATM   19  C12 UNL     1      13.797  30.521  15.677  1.00  0.00     0.000 C
BRANCH  19  20
HETATM   20  C11 UNL     1      12.674  29.791  14.936  1.00  0.00     0.000 C
BRANCH  20  21
HETATM   21  C10 UNL     1      11.969  28.832  15.834  1.00  0.00     0.000 C
BRANCH  21  22
HETATM   22  C9  UNL     1      11.929  27.454  15.226  1.00  0.00     0.000 C
BRANCH  22  23
HETATM   23  C8  UNL     1      13.163  27.060  14.479  1.00  0.00     0.000 C
BRANCH  23  24
HETATM   24  C7  UNL     1      12.787  26.269  13.259  1.00  0.00     0.002 C
BRANCH  24  25
HETATM   25  C6  UNL     1      12.276  27.103  12.136  1.00  0.00     0.020 C
BRANCH  25  26
HETATM   26  C5  UNL     1      13.244  28.151  11.664  1.00  0.00     0.128 C
BRANCH  26  27
HETATM   27  N1  UNL     1      13.634  28.030  10.279  1.00  0.00    -0.366 N
HETATM   28  C4  UNL     1      13.862  29.085   9.464  1.00  0.00     0.091 A
HETATM   29  C3  UNL     1      14.242  28.952   8.135  1.00  0.00     0.024 A
HETATM   30  C2  UNL     1      14.404  27.673   7.584  1.00  0.00    -0.059 A
HETATM   31  C1  UNL     1      14.814  27.499   6.165  1.00  0.00     0.048 C
HETATM   32  C29 UNL     1      14.171  26.607   8.416  1.00  0.00     0.024 A
HETATM   33  C28 UNL     1      13.795  26.815   9.729  1.00  0.00     0.091 A
ENDBRANCH  26  27
ENDBRANCH  25  26
ENDBRANCH  24  25
ENDBRANCH  23  24
ENDBRANCH  22  23
ENDBRANCH  21  22
ENDBRANCH  20  21
ENDBRANCH  19  20
ENDBRANCH  18  19
ENDBRANCH  17  18
ENDBRANCH  16  17
ENDBRANCH  15  16
ENDBRANCH  12  15
ENDBRANCH   1  11
BRANCH   7  34
HETATM   34  N4  UNL     1      18.405  35.897  13.475  1.00  0.00    -0.338 N
HETATM   35  C22 UNL     1      18.229  35.372  14.821  1.00  0.00     0.310 C
HETATM   36  O3  UNL     1      17.745  34.267  14.987  1.00  0.00    -0.262 OA
ATOM     37  H4  UNL     1      18.810  36.818  13.306  1.00  0.00     0.163 HD
BRANCH  35  38
HETATM   38  C23 UNL     1      18.667  36.250  15.938  1.00  0.00     0.327 C
HETATM   39  O4  UNL     1      18.652  35.775  17.082  1.00  0.00    -0.261 OA
HETATM   40  N5  UNL     1      19.080  37.559  15.687  1.00  0.00    -0.151 N
HETATM   41  C24 UNL     1      18.539  38.650  16.031  1.00  0.00     0.684 A
ATOM     42  H5  UNL     1      19.943  37.650  15.150  1.00  0.00     0.188 HD
HETATM   43  N6  UNL     1      17.427  38.854  16.726  1.00  0.00    -0.200 N
HETATM   44  N7  UNL     1      19.065  39.879  15.749  1.00  0.00    -0.200 N
HETATM   45  C25 UNL     1      17.215  40.160  16.905  1.00  0.00     0.123 A
ATOM     46  H6  UNL     1      16.817  38.113  17.075  1.00  0.00     0.183 HD
HETATM   47  C26 UNL     1      18.275  40.809  16.273  1.00  0.00     0.123 A
ATOM     48  H7  UNL     1      19.922  40.053  15.224  1.00  0.00     0.183 HD
ENDBRANCH  35  38
ENDBRANCH   7  34
TORSDOF 16
ENDMDL