MODEL 3
REMARK VINA RESULT: -8.922032578      3.615      9.464
REMARK  14 active torsions:
REMARK  status: ('A' for Active; 'I' for Inactive)
REMARK       I    between atoms: C2_2  and  N1_4
REMARK    1  A    between atoms: N1_4  and  N2_6
REMARK       I    between atoms: N2_6  and  C3_8
REMARK    2  A    between atoms: C3_8  and  C4_10
REMARK    3  A    between atoms: N4_17  and  C8_18
REMARK    4  A    between atoms: C9_21  and  C10_22
REMARK    5  A    between atoms: C10_22  and  C12_24
REMARK    6  A    between atoms: C12_24  and  O3_25
REMARK    7  A    between atoms: O3_25  and  C13_26
REMARK    8  A    between atoms: C13_26  and  C14_28
REMARK    9  A    between atoms: C16_33  and  N7_34
REMARK   10  A    between atoms: N8_37  and  C19_38
REMARK   11  A    between atoms: C19_38  and  C20_39
REMARK   12  A    between atoms: C20_39  and  O6_40
REMARK   13  A    between atoms: C23_47  and  C24_48
REMARK   14  A    between atoms: C26_53  and  O8_54
ROOT
HETATM    1  C12 UNL     1       2.512  28.195  25.493  1.00  0.00     0.189 C
ENDROOT
BRANCH   1   2
HETATM    2  C10 UNL     1       1.981  28.975  26.705  1.00  0.00     0.061 C
HETATM    3  C11 UNL     1       1.120  27.972  27.472  1.00  0.00     0.018 C
BRANCH   2   4
HETATM    4  C9  UNL     1       1.076  30.011  26.149  1.00  0.00     0.083 A
HETATM    5  N5  UNL     1       0.309  30.018  25.057  1.00  0.00    -0.191 N
HETATM    6  C8  UNL     1      -0.312  31.175  24.958  1.00  0.00     0.683 A
ATOM      7  H5  UNL     1       0.218  29.245  24.398  1.00  0.00     0.184 HD
HETATM    8  N12 UNL     1       0.059  31.929  26.005  1.00  0.00    -0.169 N
HETATM    9  C26 UNL     1       0.923  31.257  26.779  1.00  0.00     0.179 A
ATOM     10  H12 UNL     1      -0.269  32.878  26.185  1.00  0.00     0.186 HD
BRANCH   6  11
HETATM   11  N4  UNL     1      -1.209  31.553  23.888  1.00  0.00    -0.201 N
HETATM   12  C4  UNL     1      -0.741  32.575  22.972  1.00  0.00     0.221 C
HETATM   13  C5  UNL     1      -1.877  33.331  22.368  1.00  0.00     0.267 C
HETATM   14  N3  UNL     1      -2.856  32.347  21.894  1.00  0.00    -0.071 N
HETATM   15  C6  UNL     1      -3.479  31.791  23.101  1.00  0.00     0.252 C
ATOM     16  H32 UNL     1      -3.527  32.728  21.227  1.00  0.00     0.277 HD
ATOM     17  H31 UNL     1      -2.458  31.639  21.277  1.00  0.00     0.277 HD
HETATM   18  C7  UNL     1      -2.472  30.902  23.761  1.00  0.00     0.170 C
BRANCH  12  19
HETATM   19  C3  UNL     1       0.069  31.946  21.897  1.00  0.00     0.261 C
HETATM   20  N2  UNL     1      -0.635  31.399  20.763  1.00  0.00    -0.266 N
ATOM     21  H2  UNL     1      -1.653  31.441  20.709  1.00  0.00     0.190 HD
HETATM   22  O2  UNL     1       1.307  31.918  22.006  1.00  0.00    -0.269 OA
BRANCH  20  23
HETATM   23  N1  UNL     1       0.124  30.801  19.722  1.00  0.00    -0.268 N
HETATM   24  C2  UNL     1      -0.445  30.529  18.470  1.00  0.00     0.232 C
HETATM   25  C1  UNL     1       0.382  29.884  17.390  1.00  0.00     0.119 C
HETATM   26  O1  UNL     1      -1.643  30.814  18.230  1.00  0.00    -0.272 OA
ATOM     27  H1  UNL     1       1.102  30.565  19.888  1.00  0.00     0.190 HD
ENDBRANCH  20  23
ENDBRANCH  12  19
ENDBRANCH   6  11
BRANCH   9  28
HETATM   28  O8  UNL     1       1.534  31.691  27.946  1.00  0.00    -0.344 OA
ATOM     29  H8  UNL     1       2.434  31.974  28.055  1.00  0.00     0.219 HD
ENDBRANCH   9  28
ENDBRANCH   2   4
ENDBRANCH   1   2
BRANCH   1  30
HETATM   30  O3  UNL     1       1.479  27.315  25.118  1.00  0.00    -0.317 OA
BRANCH  30  31
HETATM   31  C13 UNL     1       1.694  25.973  24.753  1.00  0.00     0.301 C
HETATM   32  O4  UNL     1       2.149  25.796  23.604  1.00  0.00    -0.259 OA
BRANCH  31  33
HETATM   33  C14 UNL     1       1.385  24.926  25.698  1.00  0.00     0.144 A
HETATM   34  C15 UNL     1       2.375  24.147  26.294  1.00  0.00     0.279 A
HETATM   35  O5  UNL     1       3.573  24.333  26.022  1.00  0.00    -0.266 OA
HETATM   36  N6  UNL     1       1.904  23.228  27.145  1.00  0.00    -0.153 N
HETATM   37  C16 UNL     1       0.640  23.018  27.445  1.00  0.00     0.706 A
ATOM     38  H6  UNL     1       2.591  22.633  27.607  1.00  0.00     0.187 HD
HETATM   39  N9  UNL     1      -0.363  23.767  26.877  1.00  0.00    -0.077 N
HETATM   40  N10 UNL     1      -1.611  23.642  27.101  1.00  0.00    -0.267 N
HETATM   41  C25 UNL     1       0.037  24.705  26.014  1.00  0.00     0.139 A
HETATM   42  C23 UNL     1      -2.490  24.417  26.497  1.00  0.00     0.157 A
ATOM     43  H10 UNL     1      -1.935  22.931  27.757  1.00  0.00     0.189 HD
HETATM   44  S1  UNL     1      -1.465  25.396  25.543  1.00  0.00    -0.044 SA
BRANCH  37  45
HETATM   45  N7  UNL     1       0.349  21.982  28.406  1.00  0.00    -0.206 N
HETATM   46  C17 UNL     1       0.403  22.245  29.820  1.00  0.00     0.186 C
HETATM   47  C18 UNL     1       0.062  21.109  30.699  1.00  0.00     0.088 C
HETATM   48  N8  UNL     1      -0.865  20.179  30.210  1.00  0.00    -0.349 N
HETATM   49  C21 UNL     1      -1.050  20.092  28.820  1.00  0.00     0.088 C
HETATM   50  C22 UNL     1       0.015  20.658  27.952  1.00  0.00     0.186 C
BRANCH  48  51
HETATM   51  C19 UNL     1      -1.247  19.100  31.031  1.00  0.00     0.094 C
BRANCH  51  52
HETATM   52  C20 UNL     1      -0.460  18.939  32.311  1.00  0.00     0.209 C
BRANCH  52  53
HETATM   53  O6  UNL     1      -1.343  18.934  33.380  1.00  0.00    -0.396 OA
ATOM     54  H6  UNL     1      -0.904  19.297  34.141  1.00  0.00     0.209 HD
ENDBRANCH  52  53
ENDBRANCH  51  52
ENDBRANCH  48  51
ENDBRANCH  37  45
BRANCH  42  55
HETATM   55  C24 UNL     1      -3.964  24.426  26.616  1.00  0.00     0.289 C
HETATM   56  N11 UNL     1      -4.726  23.296  26.235  1.00  0.00    -0.055 NA
HETATM   57  O7  UNL     1      -4.464  25.489  27.070  1.00  0.00    -0.269 OA
ENDBRANCH  42  55
ENDBRANCH  31  33
ENDBRANCH  30  31
ENDBRANCH   1  30
TORSDOF 14
ENDMDL