MODEL 2
REMARK VINA RESULT: -8.576906847      2.833      8.508
REMARK  15 active torsions:
REMARK  status: ('A' for Active; 'I' for Inactive)
REMARK    1  A    between atoms: N1_2  and  C3_4
REMARK    2  A    between atoms: C6_9  and  N3_10
REMARK       I    between atoms: N3_10  and  C7_12
REMARK    3  A    between atoms: C7_12  and  C8_14
REMARK    4  A    between atoms: C10_16  and  O3_17
REMARK    5  A    between atoms: N4_21  and  C12_22
REMARK    6  A    between atoms: C12_22  and  C13_23
REMARK    7  A    between atoms: C13_23  and  O5_24
REMARK    8  A    between atoms: C15_27  and  C16_28
REMARK    9  A    between atoms: C16_28  and  N5_29
REMARK   10  A    between atoms: C16_28  and  C20_42
REMARK       I    between atoms: N5_29  and  C17_31
REMARK   11  A    between atoms: C17_31  and  O7_33
REMARK   12  A    between atoms: O7_33  and  C18_34
REMARK   13  A    between atoms: C18_34  and  C19_35
REMARK       I    between atoms: C19_35  and  N6_37
REMARK   14  A    between atoms: N6_37  and  N7_39
REMARK       I    between atoms: C20_42  and  N8_44
REMARK   15  A    between atoms: C21_46  and  C22_47
ROOT
HETATM    1  C3  UNL     1       2.552  19.759  21.707  1.00  0.00     0.118 A
HETATM    2  C4  UNL     1       2.064  20.995  22.103  1.00  0.00     0.150 A
HETATM    3  N2  UNL     1       1.714  21.210  23.375  1.00  0.00    -0.268 N
HETATM    4  C5  UNL     1       1.238  22.397  23.797  1.00  0.00     0.282 A
HETATM    5  O1  UNL     1       1.112  23.341  22.977  1.00  0.00    -0.265 OA
HETATM    6  C6  UNL     1       0.873  22.621  25.131  1.00  0.00     0.130 A
HETATM    7  C15 UNL     1       1.013  21.598  26.007  1.00  0.00     0.076 A
HETATM    8  N12 UNL     1       1.494  20.435  25.531  1.00  0.00    -0.340 N
ATOM      9  H12 UNL     1       1.599  19.663  26.190  1.00  0.00     0.167 HD
HETATM   10  C24 UNL     1       1.841  20.215  24.273  1.00  0.00     0.130 A
HETATM   11  C25 UNL     1       2.335  18.960  23.883  1.00  0.00     0.139 A
HETATM   12  N13 UNL     1       2.673  18.776  22.614  1.00  0.00    -0.348 N
ATOM     13  H13 UNL     1       3.033  17.868  22.320  1.00  0.00     0.167 HD
ENDROOT
BRANCH   7  14
HETATM   14  C16 UNL     1       0.664  21.671  27.445  1.00  0.00     0.231 C
BRANCH  14  15
HETATM   15  N5  UNL     1      -0.735  21.537  27.677  1.00  0.00    -0.318 N
HETATM   16  C17 UNL     1      -1.355  22.225  28.786  1.00  0.00     0.361 C
HETATM   17  O6  UNL     1      -0.665  22.948  29.558  1.00  0.00    -0.238 OA
ATOM     18  H5  UNL     1      -1.301  20.954  27.060  1.00  0.00     0.166 HD
BRANCH  16  19
HETATM   19  O7  UNL     1      -2.707  22.128  29.048  1.00  0.00    -0.295 OA
BRANCH  19  20
HETATM   20  C18 UNL     1      -3.656  22.028  28.001  1.00  0.00     0.285 C
BRANCH  20  21
HETATM   21  C19 UNL     1      -3.648  23.289  27.214  1.00  0.00     0.260 C
HETATM   22  O8  UNL     1      -2.722  23.462  26.397  1.00  0.00    -0.269 OA
HETATM   23  N6  UNL     1      -4.654  24.270  27.377  1.00  0.00    -0.275 N
ATOM     24  H6  UNL     1      -5.409  24.123  28.047  1.00  0.00     0.189 HD
BRANCH  23  25
HETATM   25  N7  UNL     1      -4.611  25.441  26.618  1.00  0.00    -0.343 N
ATOM     26  H72 UNL     1      -3.921  26.157  26.849  1.00  0.00     0.176 HD
ATOM     27  H71 UNL     1      -5.264  25.570  25.845  1.00  0.00     0.176 HD
ENDBRANCH  23  25
ENDBRANCH  20  21
ENDBRANCH  19  20
ENDBRANCH  16  19
ENDBRANCH  14  15
BRANCH  14  28
HETATM   28  C20 UNL     1       1.483  20.802  28.316  1.00  0.00     0.250 C
HETATM   29  O9  UNL     1       1.008  19.721  28.719  1.00  0.00    -0.270 OA
HETATM   30  N8  UNL     1       2.774  21.188  28.685  1.00  0.00    -0.332 N
HETATM   31  C21 UNL     1       3.202  21.725  29.739  1.00  0.00     0.129 C
ATOM     32  H8  UNL     1       3.490  21.005  27.982  1.00  0.00     0.168 HD
BRANCH  31  33
HETATM   33  C22 UNL     1       2.300  22.048  30.843  1.00  0.00     0.107 A
HETATM   34  N9  UNL     1       1.251  21.352  31.276  1.00  0.00    -0.291 N
HETATM   35  N10 UNL     1       0.552  21.777  32.246  1.00  0.00    -0.279 N
ATOM     36  H9  UNL     1       1.006  20.471  30.825  1.00  0.00     0.187 HD
HETATM   37  C23 UNL     1       0.896  22.938  32.823  1.00  0.00     0.159 A
ATOM     38  H10 UNL     1      -0.252  21.248  32.580  1.00  0.00     0.189 HD
HETATM   39  N11 UNL     1       0.312  23.537  33.832  1.00  0.00    -0.379 N
HETATM   40  S1  UNL     1       2.262  23.385  31.906  1.00  0.00    -0.033 SA
ATOM     41 2H11 UNL     1      -0.506  23.269  34.380  1.00  0.00     0.158 HD
ATOM     42 1H11 UNL     1       0.573  24.420  34.270  1.00  0.00     0.158 HD
ENDBRANCH  31  33
ENDBRANCH  14  28
ENDBRANCH   7  14
BRANCH   6  43
HETATM   43  N3  UNL     1       0.393  23.889  25.467  1.00  0.00    -0.317 N
HETATM   44  C7  UNL     1       1.259  24.844  26.055  1.00  0.00     0.257 C
HETATM   45  O2  UNL     1       2.487  24.545  26.287  1.00  0.00    -0.267 OA
ATOM     46  H3  UNL     1      -0.583  24.128  25.288  1.00  0.00     0.169 HD
BRANCH  44  47
HETATM   47  C8  UNL     1       0.888  26.196  26.442  1.00  0.00     0.050 A
HETATM   48  C9  UNL     1       1.916  27.084  26.752  1.00  0.00     0.060 A
HETATM   49  C10 UNL     1       1.581  28.373  27.094  1.00  0.00     0.135 A
HETATM   50  C11 UNL     1       0.255  28.792  27.136  1.00  0.00     0.280 A
HETATM   51  O4  UNL     1      -0.029  29.996  27.455  1.00  0.00    -0.265 OA
HETATM   52  N4  UNL     1      -0.726  27.925  26.835  1.00  0.00    -0.319 N
HETATM   53  C14 UNL     1      -0.405  26.655  26.496  1.00  0.00     0.111 A
BRANCH  49  54
HETATM   54  O3  UNL     1       2.565  29.275  27.406  1.00  0.00    -0.356 OA
ATOM     55  H3  UNL     1       3.042  29.712  26.711  1.00  0.00     0.218 HD
ENDBRANCH  49  54
BRANCH  52  56
HETATM   56  C12 UNL     1      -2.101  28.387  26.873  1.00  0.00     0.157 C
BRANCH  56  57
HETATM   57  C13 UNL     1      -2.501  28.980  25.522  1.00  0.00     0.184 C
BRANCH  57  58
HETATM   58  O5  UNL     1      -2.503  30.358  25.548  1.00  0.00    -0.399 OA
ATOM     59  H5  UNL     1      -2.335  30.728  24.689  1.00  0.00     0.209 HD
ENDBRANCH  57  58
ENDBRANCH  56  57
ENDBRANCH  52  56
ENDBRANCH  44  47
ENDBRANCH   6  43
BRANCH   1  60
HETATM   60  N1  UNL     1       2.936  19.474  20.381  1.00  0.00    -0.375 N
HETATM   61  C1  UNL     1       4.276  19.775  19.943  1.00  0.00     0.150 C
HETATM   62  C2  UNL     1       1.983  18.884  19.477  1.00  0.00     0.150 C
ENDBRANCH   1  60
TORSDOF 15
ENDMDL