MODEL 1
REMARK VINA RESULT: -7.621394813      0.000      0.000
REMARK  18 active torsions:
REMARK  status: ('A' for Active; 'I' for Inactive)
REMARK    1  A    between atoms: O1_2  and  C2_3
REMARK    2  A    between atoms: C2_3  and  C3_4
REMARK    3  A    between atoms: C9_10  and  O2_11
REMARK    4  A    between atoms: C10_14  and  C11_15
REMARK    5  A    between atoms: C12_19  and  C13_20
REMARK    6  A    between atoms: C13_20  and  O7_21
REMARK    7  A    between atoms: C14_23  and  O8_24
REMARK    8  A    between atoms: O8_24  and  C15_25
REMARK    9  A    between atoms: C15_25  and  C16_26
REMARK   10  A    between atoms: C16_26  and  O9_28
REMARK   11  A    between atoms: C19_32  and  O11_33
REMARK   12  A    between atoms: O11_33  and  C20_34
REMARK   13  A    between atoms: C20_34  and  C21_36
REMARK   14  A    between atoms: C21_36  and  O13_37
REMARK   15  A    between atoms: C21_36  and  C22_39
REMARK   16  A    between atoms: C22_39  and  O14_40
REMARK   17  A    between atoms: C22_39  and  C23_42
REMARK   18  A    between atoms: C23_42  and  O15_43
ROOT
HETATM    1  C3  UNL     1       3.296  26.985  26.337  1.00  0.00     0.096 C
HETATM    2  C4  UNL     1       4.023  26.048  27.253  1.00  0.00     0.025 C
HETATM    3  C5  UNL     1       3.583  24.645  27.168  1.00  0.00     0.009 C
HETATM    4  C6  UNL     1       2.059  24.486  27.353  1.00  0.00     0.025 C
HETATM    5  C7  UNL     1       1.433  25.380  26.271  1.00  0.00     0.028 C
HETATM    6  C8  UNL     1      -0.059  25.346  26.587  1.00  0.00     0.079 C
HETATM    7  C9  UNL     1      -0.586  24.008  26.111  1.00  0.00     0.198 C
HETATM    8  O3  UNL     1       0.051  23.532  25.021  1.00  0.00    -0.284 OA
HETATM    9  C10 UNL     1       0.840  22.436  25.175  1.00  0.00     0.381 C
HETATM   10  O6  UNL     1       0.120  21.342  25.731  1.00  0.00    -0.313 OA
HETATM   11  C12 UNL     1       0.628  21.066  26.999  1.00  0.00     0.191 C
HETATM   12  C14 UNL     1       0.559  22.419  27.724  1.00  0.00     0.147 C
HETATM   13  C18 UNL     1       1.814  23.066  27.210  1.00  0.00     0.172 C
HETATM   14  O10 UNL     1       2.004  22.692  25.875  1.00  0.00    -0.315 OA
HETATM   15  C19 UNL     1      -0.687  23.089  27.306  1.00  0.00     0.234 C
HETATM   16  C24 UNL     1       1.836  26.804  26.530  1.00  0.00     0.150 C
HETATM   17  O16 UNL     1       1.177  27.722  25.724  1.00  0.00    -0.348 OA
HETATM   18  C25 UNL     1       1.334  28.965  26.337  1.00  0.00     0.166 C
HETATM   19  C26 UNL     1       0.620  29.032  27.664  1.00  0.00     0.079 C
HETATM   20  C27 UNL     1       0.729  30.073  25.466  1.00  0.00     0.079 C
HETATM   21  O17 UNL     1       2.679  29.329  26.546  1.00  0.00    -0.283 OA
HETATM   22  C28 UNL     1       3.614  28.380  26.850  1.00  0.00     0.275 C
HETATM   23  O18 UNL     1       4.658  28.578  27.491  1.00  0.00    -0.264 OA
ENDROOT
BRANCH  15  24
HETATM   24  O11 UNL     1      -1.823  22.293  27.064  1.00  0.00    -0.305 OA
BRANCH  24  25
HETATM   25  C20 UNL     1      -2.984  22.373  27.819  1.00  0.00     0.291 C
HETATM   26  O12 UNL     1      -3.758  23.344  27.485  1.00  0.00    -0.262 OA
BRANCH  25  27
HETATM   27  C21 UNL     1      -3.335  21.459  28.896  1.00  0.00     0.248 C
BRANCH  27  28
HETATM   28  O13 UNL     1      -2.192  20.923  29.521  1.00  0.00    -0.383 OA
ATOM     29  H13 UNL     1      -2.379  20.625  30.404  1.00  0.00     0.210 HD
ENDBRANCH  27  28
BRANCH  27  30
HETATM   30  C22 UNL     1      -4.233  20.323  28.564  1.00  0.00     0.180 C
BRANCH  30  31
HETATM   31  O14 UNL     1      -5.576  20.616  28.901  1.00  0.00    -0.390 OA
ATOM     32  H14 UNL     1      -6.166  20.384  28.193  1.00  0.00     0.210 HD
ENDBRANCH  30  31
BRANCH  30  33
HETATM   33  C23 UNL     1      -3.870  19.082  29.377  1.00  0.00     0.199 C
BRANCH  33  34
HETATM   34  O15 UNL     1      -3.133  18.175  28.655  1.00  0.00    -0.398 OA
ATOM     35  H15 UNL     1      -2.810  17.458  29.189  1.00  0.00     0.209 HD
ENDBRANCH  33  34
ENDBRANCH  30  33
ENDBRANCH  27  30
ENDBRANCH  25  27
ENDBRANCH  24  25
ENDBRANCH  15  24
BRANCH   7  36
HETATM   36  O2  UNL     1      -1.918  24.286  25.726  1.00  0.00    -0.363 OA
ATOM     37  H2  UNL     1      -2.283  23.430  25.535  1.00  0.00     0.213 HD
ENDBRANCH   7  36
BRANCH  12  38
HETATM   38  O8  UNL     1       0.534  22.109  29.037  1.00  0.00    -0.369 OA
BRANCH  38  39
HETATM   39  C15 UNL     1       1.368  22.600  29.945  1.00  0.00     0.200 C
BRANCH  39  40
HETATM   40  C16 UNL     1       0.635  22.584  31.309  1.00  0.00     0.138 C
HETATM   41  C17 UNL     1       0.732  21.149  31.811  1.00  0.00     0.041 C
BRANCH  40  42
HETATM   42  O9  UNL     1      -0.681  22.960  31.177  1.00  0.00    -0.394 OA
ATOM     43  H9  UNL     1      -0.778  23.904  31.222  1.00  0.00     0.210 HD
ENDBRANCH  40  42
ENDBRANCH  39  40
ENDBRANCH  38  39
ENDBRANCH  12  38
BRANCH  11  44
HETATM   44  C13 UNL     1       0.036  19.913  27.646  1.00  0.00     0.199 C
BRANCH  44  45
HETATM   45  O7  UNL     1      -1.120  19.387  27.120  1.00  0.00    -0.398 OA
ATOM     46  H7  UNL     1      -1.938  19.844  27.275  1.00  0.00     0.209 HD
ENDBRANCH  44  45
ENDBRANCH  11  44
BRANCH   9  47
HETATM   47  C11 UNL     1       1.254  21.969  23.827  1.00  0.00     0.271 C
HETATM   48  O4  UNL     1       1.892  22.738  23.071  1.00  0.00    -0.642 OA
HETATM   49  O5  UNL     1       0.968  20.701  23.349  1.00  0.00    -0.642 OA
ENDBRANCH   9  47
BRANCH   1  50
HETATM   50  C2  UNL     1       3.758  26.963  24.929  1.00  0.00     0.189 C
BRANCH  50  51
HETATM   51  O1  UNL     1       4.123  28.152  24.369  1.00  0.00    -0.395 OA
HETATM   52  C1  UNL     1       3.393  28.307  23.183  1.00  0.00     0.201 C
ENDBRANCH  50  51
ENDBRANCH   1  50
TORSDOF 18
ENDMDL