MODEL 1
REMARK VINA RESULT: -8.835847895      0.000      0.000
REMARK  19 active torsions:
REMARK  status: ('A' for Active; 'I' for Inactive)
REMARK    1  A    between atoms: O1_2  and  C2_3
REMARK    2  A    between atoms: C3_7  and  O2_8
REMARK    3  A    between atoms: O2_8  and  C4_9
REMARK    4  A    between atoms: C4_9  and  C5_11
REMARK    5  A    between atoms: C9_16  and  O5_17
REMARK    6  A    between atoms: C11_20  and  O6_21
REMARK    7  A    between atoms: C12_24  and  C13_25
REMARK    8  A    between atoms: C13_25  and  O8_26
REMARK    9  A    between atoms: C13_25  and  C14_28
REMARK   10  A    between atoms: C14_28  and  C15_29
REMARK   11  A    between atoms: C15_29  and  C16_30
REMARK   12  A    between atoms: C15_29  and  O10_34
REMARK   13  A    between atoms: C16_30  and  C17_31
REMARK   14  A    between atoms: O10_34  and  C19_35
REMARK   15  A    between atoms: C21_38  and  O12_39
REMARK   16  A    between atoms: O12_39  and  C22_40
REMARK   17  A    between atoms: C24_43  and  C25_44
REMARK   18  A    between atoms: C27_47  and  O15_48
REMARK   19  A    between atoms: C28_50  and  O16_51
ROOT
HETATM    1  C2  UNL     1       1.082  26.893  25.987  1.00  0.00     0.329 C
HETATM    2  N1  UNL     1       0.802  26.239  24.696  1.00  0.00     0.030 N
ATOM      3  H11 UNL     1       1.659  25.963  24.215  1.00  0.00     0.288 HD
ATOM      4  H12 UNL     1       0.448  26.898  24.004  1.00  0.00     0.288 HD
HETATM    5  C3  UNL     1      -0.078  25.140  24.884  1.00  0.00     0.396 C
HETATM    6  O4  UNL     1      -1.468  25.386  24.603  1.00  0.00    -0.288 OA
HETATM    7  C9  UNL     1      -1.525  26.120  25.786  1.00  0.00     0.225 C
HETATM    8  C10 UNL     1      -1.146  27.518  25.493  1.00  0.00     0.148 C
HETATM    9  C11 UNL     1      -2.231  28.554  25.558  1.00  0.00     0.270 C
HETATM   10  O7  UNL     1      -2.225  29.439  24.544  1.00  0.00    -0.350 OA
HETATM   11  C12 UNL     1      -1.213  30.235  24.223  1.00  0.00     0.183 C
HETATM   12  C21 UNL     1       0.206  29.774  24.573  1.00  0.00     0.177 C
HETATM   13  C24 UNL     1       0.425  29.385  25.969  1.00  0.00     0.127 C
HETATM   14  C27 UNL     1       0.068  27.973  26.300  1.00  0.00     0.150 C
HETATM   15  C28 UNL     1      -0.484  25.209  26.321  1.00  0.00     0.266 C
HETATM   16  C29 UNL     1       0.698  25.808  26.945  1.00  0.00     0.240 C
HETATM   17  O17 UNL     1       1.241  25.509  27.978  1.00  0.00    -0.289 OA
ENDROOT
BRANCH  11  18
HETATM   18  C13 UNL     1      -1.443  31.708  24.583  1.00  0.00     0.152 C
BRANCH  18  19
HETATM   19  O8  UNL     1      -2.712  31.932  25.129  1.00  0.00    -0.393 OA
ATOM     20  H8  UNL     1      -3.049  32.796  24.920  1.00  0.00     0.210 HD
ENDBRANCH  18  19
BRANCH  18  21
HETATM   21  C14 UNL     1      -1.447  32.482  23.293  1.00  0.00     0.067 C
BRANCH  21  22
HETATM   22  C15 UNL     1      -1.990  31.766  22.081  1.00  0.00     0.141 C
BRANCH  22  23
HETATM   23  C16 UNL     1      -3.405  32.313  21.908  1.00  0.00     0.110 C
BRANCH  23  24
HETATM   24  C17 UNL     1      -4.411  31.336  21.528  1.00  0.00     0.125 C
HETATM   25  C18 UNL     1      -5.581  31.813  20.726  1.00  0.00     0.091 C
HETATM   26  O9  UNL     1      -4.346  30.178  21.827  1.00  0.00    -0.298 OA
ENDBRANCH  23  24
ENDBRANCH  22  23
BRANCH  22  27
HETATM   27  O10 UNL     1      -1.221  31.991  20.945  1.00  0.00    -0.316 OA
BRANCH  27  28
HETATM   28  C19 UNL     1      -1.220  31.389  19.737  1.00  0.00     0.255 C
HETATM   29  C20 UNL     1      -2.305  31.667  18.729  1.00  0.00     0.126 C
HETATM   30  O11 UNL     1      -0.333  30.588  19.411  1.00  0.00    -0.266 OA
ENDBRANCH  27  28
ENDBRANCH  22  27
ENDBRANCH  21  22
ENDBRANCH  18  21
ENDBRANCH  11  18
BRANCH  12  31
HETATM   31  O12 UNL     1       0.988  30.890  24.194  1.00  0.00    -0.313 OA
BRANCH  31  32
HETATM   32  C22 UNL     1       1.711  30.917  22.987  1.00  0.00     0.255 C
HETATM   33  C23 UNL     1       2.427  29.736  22.487  1.00  0.00     0.126 C
HETATM   34  O13 UNL     1       1.724  31.987  22.354  1.00  0.00    -0.266 OA
ENDBRANCH  31  32
ENDBRANCH  12  31
BRANCH   9  35
HETATM   35  O6  UNL     1      -3.518  27.948  25.506  1.00  0.00    -0.371 OA
ATOM     36  H6  UNL     1      -4.203  28.606  25.488  1.00  0.00     0.212 HD
ENDBRANCH   9  35
BRANCH  13  37
HETATM   37  C25 UNL     1       1.731  29.848  26.477  1.00  0.00     0.133 C
HETATM   38  C26 UNL     1       1.874  30.860  27.604  1.00  0.00     0.091 C
HETATM   39  O14 UNL     1       2.830  29.485  26.071  1.00  0.00    -0.298 OA
ENDBRANCH  13  37
BRANCH  14  40
HETATM   40  O15 UNL     1      -0.349  27.899  27.628  1.00  0.00    -0.383 OA
ATOM     41  H15 UNL     1      -0.789  28.697  27.892  1.00  0.00     0.210 HD
ENDBRANCH  14  40
BRANCH   7  42
HETATM   42  O5  UNL     1      -2.708  25.932  26.518  1.00  0.00    -0.362 OA
ATOM     43  H5  UNL     1      -2.618  25.328  27.246  1.00  0.00     0.213 HD
ENDBRANCH   7  42
BRANCH   1  44
HETATM   44  O1  UNL     1       2.352  27.253  26.185  1.00  0.00    -0.351 OA
HETATM   45  C1  UNL     1       3.404  26.581  25.718  1.00  0.00     0.205 C
ENDBRANCH   1  44
BRANCH  15  46
HETATM   46  O16 UNL     1      -0.967  24.077  26.906  1.00  0.00    -0.371 OA
ATOM     47  H16 UNL     1      -1.779  24.138  27.397  1.00  0.00     0.211 HD
ENDBRANCH  15  46
BRANCH   5  48
HETATM   48  O2  UNL     1       0.157  23.929  24.290  1.00  0.00    -0.252 OA
BRANCH  48  49
HETATM   49  C4  UNL     1       1.266  23.216  24.038  1.00  0.00     0.287 C
HETATM   50  O3  UNL     1       2.161  23.231  24.913  1.00  0.00    -0.260 OA
BRANCH  49  51
HETATM   51  C5  UNL     1       1.466  22.435  22.800  1.00  0.00     0.084 C
HETATM   52  C6  UNL     1       1.331  21.134  22.768  1.00  0.00    -0.082 C
HETATM   53  C7  UNL     1       0.970  20.316  23.948  1.00  0.00     0.043 C
HETATM   54  C8  UNL     1       1.548  20.428  21.479  1.00  0.00     0.043 C
ENDBRANCH  49  51
ENDBRANCH  48  49
ENDBRANCH   5  48
TORSDOF 19
ENDMDL