MODEL 5
REMARK VINA RESULT: -8.914924537      0.943      1.452
REMARK  13 active torsions:
REMARK  status: ('A' for Active; 'I' for Inactive)
REMARK    1  A    between atoms: N1_1  and  C1_4
REMARK    2  A    between atoms: C2_7  and  N3_8
REMARK    3  A    between atoms: C4_14  and  C5_15
REMARK       I    between atoms: C5_15  and  N5_17
REMARK    4  A    between atoms: N5_17  and  C6_19
REMARK    5  A    between atoms: C8_21  and  O4_22
REMARK    6  A    between atoms: O4_22  and  C9_23
REMARK    7  A    between atoms: C9_23  and  C10_24
REMARK    8  A    between atoms: C12_30  and  C13_31
REMARK    9  A    between atoms: C14_34  and  C15_35
REMARK   10  A    between atoms: C15_35  and  S1_36
REMARK   11  A    between atoms: S1_36  and  C16_37
REMARK   12  A    between atoms: C17_42  and  S2_43
REMARK   13  A    between atoms: S2_43  and  N9_44
ROOT
HETATM    1  C6  UNL     1       2.711  22.539  29.082  1.00  0.00     0.103 C
HETATM    2  C7  UNL     1       1.894  21.578  28.267  1.00  0.00     0.060 C
HETATM    3  C8  UNL     1       2.436  21.749  26.897  1.00  0.00     0.147 C
HETATM    4  C11 UNL     1       2.907  23.159  26.783  1.00  0.00     0.127 C
HETATM    5  N6  UNL     1       1.985  23.882  25.972  1.00  0.00    -0.376 N
ATOM      6  H6  UNL     1       1.148  23.336  25.766  1.00  0.00     0.160 HD
HETATM    7  C12 UNL     1       1.937  25.193  25.367  1.00  0.00     0.110 C
HETATM    8  C14 UNL     1       2.319  26.283  25.979  1.00  0.00    -0.028 C
HETATM    9  C18 UNL     1       2.931  26.422  27.353  1.00  0.00     0.111 C
HETATM   10  S4  UNL     1       2.156  25.184  28.423  1.00  0.00    -0.156 SA
HETATM   11  C19 UNL     1       3.099  23.648  28.181  1.00  0.00     0.095 C
ENDROOT
BRANCH   1  12
HETATM   12  N5  UNL     1       2.096  23.015  30.278  1.00  0.00    -0.350 N
HETATM   13  C5  UNL     1       2.680  22.838  31.571  1.00  0.00     0.272 C
HETATM   14  O3  UNL     1       3.775  22.237  31.597  1.00  0.00    -0.266 OA
ATOM     15  H5  UNL     1       1.202  23.502  30.208  1.00  0.00     0.163 HD
BRANCH  13  16
HETATM   16  C4  UNL     1       2.080  23.308  32.796  1.00  0.00     0.144 A
HETATM   17  C1  UNL     1       2.752  24.101  33.700  1.00  0.00     0.133 A
HETATM   18  N2  UNL     1       2.144  24.528  34.875  1.00  0.00    -0.321 N
HETATM   19  C2  UNL     1       0.884  24.173  35.157  1.00  0.00     0.190 A
ATOM     20  H2  UNL     1       2.663  25.116  35.529  1.00  0.00     0.169 HD
HETATM   21  C3  UNL     1       0.227  23.382  34.246  1.00  0.00     0.143 A
HETATM   22  N4  UNL     1       0.786  22.959  33.112  1.00  0.00    -0.355 N
ATOM     23  H4  UNL     1       0.251  22.373  32.472  1.00  0.00     0.165 HD
BRANCH  17  24
HETATM   24  N1  UNL     1       3.923  24.484  33.524  1.00  0.00    -0.383 N
ATOM     25  H12 UNL     1       4.488  24.898  34.266  1.00  0.00     0.157 HD
ATOM     26  H11 UNL     1       4.295  24.355  32.583  1.00  0.00     0.157 HD
ENDBRANCH  17  24
BRANCH  19  27
HETATM   27  N3  UNL     1       0.259  24.610  36.359  1.00  0.00    -0.096 N
HETATM   28  O1  UNL     1      -0.620  23.946  36.927  1.00  0.00    -0.530 OA
HETATM   29  O2  UNL     1       0.636  25.803  36.923  1.00  0.00    -0.530 OA
ENDBRANCH  19  27
ENDBRANCH  13  16
ENDBRANCH   1  12
BRANCH   3  30
HETATM   30  O4  UNL     1       3.379  20.803  26.528  1.00  0.00    -0.373 OA
BRANCH  30  31
HETATM   31  C9  UNL     1       3.084  20.174  25.334  1.00  0.00     0.281 C
BRANCH  31  32
HETATM   32  C10 UNL     1       3.851  20.840  24.249  1.00  0.00     0.197 C
HETATM   33  O5  UNL     1       5.084  21.131  24.346  1.00  0.00    -0.646 OA
HETATM   34  O6  UNL     1       3.243  21.190  23.035  1.00  0.00    -0.646 OA
ENDBRANCH  31  32
ENDBRANCH  30  31
ENDBRANCH   3  30
BRANCH   7  35
HETATM   35  C13 UNL     1       1.349  25.218  24.043  1.00  0.00     0.226 C
HETATM   36  O7  UNL     1       0.064  25.120  23.985  1.00  0.00    -0.643 OA
HETATM   37  O8  UNL     1       1.925  25.333  22.814  1.00  0.00    -0.643 OA
ENDBRANCH   7  35
BRANCH   8  38
HETATM   38  C15 UNL     1       2.246  27.567  25.286  1.00  0.00     0.119 C
BRANCH  38  39
HETATM   39  S1  UNL     1       1.349  28.870  26.083  1.00  0.00    -0.099 SA
BRANCH  39  40
HETATM   40  C16 UNL     1       0.505  30.041  25.065  1.00  0.00     0.129 A
HETATM   41  N7  UNL     1       0.744  30.413  23.802  1.00  0.00    -0.287 N
HETATM   42  N8  UNL     1       0.025  31.277  23.247  1.00  0.00    -0.281 N
ATOM     43  H7  UNL     1       1.517  29.991  23.288  1.00  0.00     0.188 HD
HETATM   44  C17 UNL     1      -0.987  31.838  23.904  1.00  0.00     0.208 A
ATOM     45  H8  UNL     1       0.218  31.553  22.284  1.00  0.00     0.188 HD
HETATM   46  S3  UNL     1      -0.866  31.048  25.413  1.00  0.00    -0.031 SA
BRANCH  44  47
HETATM   47  S2  UNL     1      -2.119  33.069  23.352  1.00  0.00     0.280 S
HETATM   48  O9  UNL     1      -3.293  33.122  24.280  1.00  0.00    -0.199 OA
HETATM   49  O10 UNL     1      -2.596  32.726  21.986  1.00  0.00    -0.199 OA
BRANCH  47  50
HETATM   50  N9  UNL     1      -1.357  34.614  23.289  1.00  0.00    -0.323 N
ATOM     51  H92 UNL     1      -0.643  34.868  22.606  1.00  0.00     0.169 HD
ATOM     52  H91 UNL     1      -1.718  35.224  24.023  1.00  0.00     0.169 HD
ENDBRANCH  47  50
ENDBRANCH  44  47
ENDBRANCH  39  40
ENDBRANCH  38  39
ENDBRANCH   8  38
TORSDOF 13
ENDMDL