MODEL 4
REMARK VINA RESULT: -9.571287278      1.685      2.650
REMARK  15 active torsions:
REMARK  status: ('A' for Active; 'I' for Inactive)
REMARK    1  A    between atoms: O1_2  and  C2_3
REMARK    2  A    between atoms: C2_3  and  C3_5
REMARK    3  A    between atoms: C4_7  and  N1_8
REMARK    4  A    between atoms: C5_13  and  C6_14
REMARK    5  A    between atoms: C6_14  and  O3_15
REMARK    6  A    between atoms: C6_14  and  N3_17
REMARK    7  A    between atoms: N3_17  and  C7_20
REMARK    8  A    between atoms: C9_22  and  N4_23
REMARK    9  A    between atoms: N5_28  and  C11_29
REMARK   10  A    between atoms: N7_35  and  C13_36
REMARK   11  A    between atoms: C13_36  and  C14_37
REMARK       I    between atoms: C14_37  and  N8_39
REMARK   12  A    between atoms: N8_39  and  C15_41
REMARK   13  A    between atoms: C17_43  and  C18_44
REMARK   14  A    between atoms: C18_44  and  O7_45
REMARK   15  A    between atoms: O7_45  and  S2_46
ROOT
HETATM    1  C7  UNL     1       3.525  26.926  26.934  1.00  0.00     0.210 C
HETATM    2  C8  UNL     1       2.122  27.013  27.413  1.00  0.00     0.069 C
HETATM    3  C9  UNL     1       1.078  26.369  26.575  1.00  0.00     0.204 C
HETATM    4  C10 UNL     1       1.257  26.459  25.094  1.00  0.00     0.174 C
HETATM    5  N5  UNL     1       2.410  27.266  24.811  1.00  0.00    -0.212 N
HETATM    6  C21 UNL     1       3.667  26.910  25.422  1.00  0.00     0.174 C
ENDROOT
BRANCH   5   7
HETATM    7  C11 UNL     1       2.309  28.396  23.976  1.00  0.00     0.707 A
HETATM    8  N6  UNL     1       2.934  28.605  22.794  1.00  0.00    -0.086 N
HETATM    9  O4  UNL     1       2.630  29.753  22.320  1.00  0.00    -0.165 OA
ATOM     10  H6  UNL     1       3.561  27.940  22.343  1.00  0.00     0.214 HD
HETATM   11  C12 UNL     1       1.812  30.328  23.155  1.00  0.00     0.404 A
HETATM   12  O5  UNL     1       1.311  31.475  22.996  1.00  0.00    -0.235 OA
HETATM   13  N7  UNL     1       1.581  29.524  24.201  1.00  0.00    -0.114 N
BRANCH  13  14
HETATM   14  C13 UNL     1       0.737  29.760  25.358  1.00  0.00     0.256 C
BRANCH  14  15
HETATM   15  C14 UNL     1      -0.650  29.959  24.881  1.00  0.00     0.237 C
HETATM   16  O6  UNL     1      -1.407  28.958  24.822  1.00  0.00    -0.272 OA
HETATM   17  N8  UNL     1      -1.144  31.231  24.494  1.00  0.00    -0.348 N
ATOM     18  H8  UNL     1      -0.515  32.031  24.547  1.00  0.00     0.163 HD
BRANCH  17  19
HETATM   19  C15 UNL     1      -2.481  31.446  24.034  1.00  0.00     0.167 C
HETATM   20  C16 UNL     1      -2.647  30.906  22.631  1.00  0.00     0.068 C
HETATM   21  C17 UNL     1      -1.982  31.760  21.596  1.00  0.00     0.160 C
HETATM   22  O11 UNL     1      -1.429  32.961  22.101  1.00  0.00    -0.307 OA
HETATM   23  C19 UNL     1      -2.184  33.692  23.003  1.00  0.00     0.332 C
HETATM   24  O12 UNL     1      -2.322  34.956  22.934  1.00  0.00    -0.256 OA
HETATM   25  C20 UNL     1      -2.825  32.915  24.058  1.00  0.00     0.246 C
HETATM   26  O13 UNL     1      -3.576  33.436  24.883  1.00  0.00    -0.284 OA
BRANCH  21  27
HETATM   27  C18 UNL     1      -2.919  32.072  20.447  1.00  0.00     0.225 C
BRANCH  27  28
HETATM   28  O7  UNL     1      -3.946  31.120  20.364  1.00  0.00    -0.254 OA
BRANCH  28  29
HETATM   29  S2  UNL     1      -5.449  31.827  20.438  1.00  0.00     0.251 S
HETATM   30  O8  UNL     1      -5.406  33.321  20.424  1.00  0.00    -0.572 OA
HETATM   31  O9  UNL     1      -6.303  31.386  19.279  1.00  0.00    -0.572 OA
HETATM   32  O10 UNL     1      -6.241  31.340  21.851  1.00  0.00    -0.572 OA
ENDBRANCH  28  29
ENDBRANCH  27  28
ENDBRANCH  21  27
ENDBRANCH  17  19
ENDBRANCH  14  15
ENDBRANCH  13  14
ENDBRANCH   5   7
BRANCH   3  33
HETATM   33  N4  UNL     1       0.822  24.979  26.985  1.00  0.00    -0.073 N
ATOM     34  H43 UNL     1       1.693  24.462  27.107  1.00  0.00     0.274 HD
ATOM     35  H42 UNL     1       0.473  24.933  27.943  1.00  0.00     0.274 HD
ATOM     36  H41 UNL     1       0.194  24.499  26.339  1.00  0.00     0.274 HD
ENDBRANCH   3  33
BRANCH   1  37
HETATM   37  N3  UNL     1       4.323  25.902  27.577  1.00  0.00    -0.037 N
ATOM     38  H32 UNL     1       5.295  26.197  27.672  1.00  0.00     0.281 HD
ATOM     39  H31 UNL     1       4.457  25.098  26.963  1.00  0.00     0.281 HD
BRANCH  37  40
HETATM   40  C6  UNL     1       3.776  25.505  28.840  1.00  0.00     0.371 C
BRANCH  40  41
HETATM   41  C5  UNL     1       4.028  24.033  29.145  1.00  0.00     0.091 A
HETATM   42  C3  UNL     1       3.092  23.292  29.800  1.00  0.00     0.110 A
HETATM   43  S1  UNL     1       3.893  21.755  29.925  1.00  0.00    -0.046 SA
HETATM   44  C4  UNL     1       5.345  22.171  29.137  1.00  0.00     0.143 A
HETATM   45  N2  UNL     1       5.158  23.444  28.819  1.00  0.00    -0.335 N
ATOM     46  H2  UNL     1       5.885  23.963  28.326  1.00  0.00     0.168 HD
BRANCH  42  47
HETATM   47  C2  UNL     1       1.734  23.598  30.293  1.00  0.00     0.302 C
HETATM   48  O2  UNL     1       1.417  24.038  31.386  1.00  0.00    -0.259 OA
BRANCH  47  49
HETATM   49  O1  UNL     1       0.671  23.354  29.396  1.00  0.00    -0.322 OA
HETATM   50  C1  UNL     1      -0.185  22.253  29.512  1.00  0.00     0.213 C
ENDBRANCH  47  49
ENDBRANCH  42  47
BRANCH  44  51
HETATM   51  N1  UNL     1       6.401  21.419  28.897  1.00  0.00    -0.380 N
ATOM     52  H12 UNL     1       6.653  20.531  29.330  1.00  0.00     0.158 HD
ATOM     53  H11 UNL     1       7.164  21.578  28.238  1.00  0.00     0.158 HD
ENDBRANCH  44  51
ENDBRANCH  40  41
BRANCH  40  54
HETATM   54  O3  UNL     1       4.199  26.295  29.889  1.00  0.00    -0.365 OA
ATOM     55  H3  UNL     1       4.822  26.944  29.586  1.00  0.00     0.212 HD
ENDBRANCH  40  54
ENDBRANCH  37  40
ENDBRANCH   1  37
TORSDOF 15
ENDMDL