MODEL 1
REMARK VINA RESULT: -9.981449527      0.000      0.000
REMARK  16 active torsions:
REMARK  status: ('A' for Active; 'I' for Inactive)
REMARK    1  A    between atoms: C2_2  and  C3_3
REMARK    2  A    between atoms: C2_2  and  C4_6
REMARK    3  A    between atoms: C4_6  and  N1_7
REMARK    4  A    between atoms: C4_6  and  C5_11
REMARK    5  A    between atoms: C5_11  and  N3_15
REMARK    6  A    between atoms: N3_15  and  C6_17
REMARK    7  A    between atoms: C8_20  and  S1_21
REMARK    8  A    between atoms: S1_21  and  N4_24
REMARK    9  A    between atoms: N4_24  and  N5_26
REMARK       I    between atoms: N5_26  and  C9_28
REMARK   10  A    between atoms: C9_28  and  C10_30
REMARK   11  A    between atoms: C10_30  and  S2_31
REMARK   12  A    between atoms: S2_31  and  C11_32
REMARK   13  A    between atoms: N9_39  and  N10_40
REMARK   14  A    between atoms: C14_45  and  C15_46
REMARK   15  A    between atoms: C18_49  and  C19_50
REMARK   16  A    between atoms: N15_61  and  N16_62
ROOT
HETATM    1  C6  UNL     1       1.742  24.390  28.199  1.00  0.00     0.181 C
HETATM    2  C7  UNL     1       2.072  25.326  27.249  1.00  0.00     0.240 C
HETATM    3  O3  UNL     1       2.576  26.384  27.686  1.00  0.00    -0.283 OA
HETATM    4  C8  UNL     1       1.912  25.236  25.857  1.00  0.00     0.135 C
HETATM    5  C12 UNL     1       1.225  24.274  25.150  1.00  0.00     0.032 C
HETATM    6  C13 UNL     1       0.267  23.395  25.685  1.00  0.00     0.034 C
HETATM    7  C14 UNL     1      -0.027  23.177  27.013  1.00  0.00     0.068 C
HETATM    8  N15 UNL     1       0.719  23.497  28.105  1.00  0.00    -0.242 N
ENDROOT
BRANCH   4   9
HETATM    9  S1  UNL     1       2.646  26.473  24.898  1.00  0.00     0.280 S
HETATM   10  O4  UNL     1       2.190  26.313  23.460  1.00  0.00    -0.199 OA
HETATM   11  O5  UNL     1       4.149  26.399  24.929  1.00  0.00    -0.199 OA
BRANCH   9  12
HETATM   12  N4  UNL     1       2.200  28.038  25.412  1.00  0.00    -0.220 N
ATOM     13  H4  UNL     1       2.863  28.784  25.618  1.00  0.00     0.200 HD
BRANCH  12  14
HETATM   14  N5  UNL     1       0.798  28.171  25.517  1.00  0.00    -0.260 N
HETATM   15  C9  UNL     1       0.191  29.415  25.806  1.00  0.00     0.246 C
HETATM   16  O6  UNL     1       0.892  30.450  25.977  1.00  0.00    -0.271 OA
ATOM     17  H5  UNL     1       0.210  27.350  25.381  1.00  0.00     0.190 HD
BRANCH  15  18
HETATM   18  C10 UNL     1      -1.273  29.535  25.914  1.00  0.00     0.187 C
BRANCH  18  19
HETATM   19  S2  UNL     1      -2.011  30.162  24.405  1.00  0.00    -0.080 SA
BRANCH  19  20
HETATM   20  C11 UNL     1      -1.871  31.923  24.281  1.00  0.00     0.200 A
HETATM   21  N6  UNL     1      -2.776  32.871  24.624  1.00  0.00    -0.261 N
HETATM   22  N7  UNL     1      -2.243  34.049  24.358  1.00  0.00    -0.225 N
ATOM     23  H6  UNL     1      -3.702  32.705  25.016  1.00  0.00     0.190 HD
HETATM   24  N8  UNL     1      -1.039  33.846  23.864  1.00  0.00    -0.205 N
ATOM     25  H7  UNL     1      -2.684  34.956  24.510  1.00  0.00     0.210 HD
HETATM   26  N9  UNL     1      -0.784  32.565  23.804  1.00  0.00    -0.162 N
ATOM     27  H8  UNL     1      -0.397  34.583  23.570  1.00  0.00     0.212 HD
BRANCH  26  28
HETATM   28  N10 UNL     1       0.414  32.010  23.325  1.00  0.00    -0.321 N
ATOM     29 2H10 UNL     1       0.648  31.018  23.360  1.00  0.00     0.179 HD
ATOM     30 1H10 UNL     1       1.200  32.489  22.888  1.00  0.00     0.179 HD
ENDBRANCH  26  28
ENDBRANCH  19  20
ENDBRANCH  18  19
ENDBRANCH  15  18
ENDBRANCH  12  14
ENDBRANCH   9  12
ENDBRANCH   4   9
BRANCH   1  31
HETATM   31  N3  UNL     1       2.427  24.320  29.246  1.00  0.00    -0.326 N
ATOM     32  H3  UNL     1       2.097  24.920  30.002  1.00  0.00     0.169 HD
BRANCH  31  33
HETATM   33  C5  UNL     1       3.563  23.569  29.567  1.00  0.00     0.108 C
HETATM   34  N2  UNL     1       4.149  22.917  28.590  1.00  0.00    -0.387 N
ATOM     35  H22 UNL     1       4.977  22.369  28.823  1.00  0.00     0.157 HD
ATOM     36  H21 UNL     1       3.809  22.954  27.628  1.00  0.00     0.157 HD
BRANCH  33  37
HETATM   37  C4  UNL     1       4.050  23.515  30.947  1.00  0.00     0.263 C
BRANCH  37  38
HETATM   38  C2  UNL     1       3.211  22.690  31.888  1.00  0.00     0.120 C
HETATM   39  C1  UNL     1       2.706  21.419  31.307  1.00  0.00     0.024 C
BRANCH  38  40
HETATM   40  C3  UNL     1       2.133  23.436  32.525  1.00  0.00     0.179 C
HETATM   41  O1  UNL     1       2.263  23.833  33.711  1.00  0.00    -0.648 OA
HETATM   42  O2  UNL     1       0.947  23.718  31.828  1.00  0.00    -0.648 OA
ENDBRANCH  38  40
ENDBRANCH  37  38
BRANCH  37  43
HETATM   43  N1  UNL     1       5.431  23.054  30.921  1.00  0.00    -0.067 N
ATOM     44  H13 UNL     1       5.537  22.165  31.410  1.00  0.00     0.275 HD
ATOM     45  H12 UNL     1       5.708  22.754  29.986  1.00  0.00     0.275 HD
ATOM     46  H11 UNL     1       6.067  23.761  31.290  1.00  0.00     0.275 HD
ENDBRANCH  37  43
ENDBRANCH  33  37
ENDBRANCH  31  33
ENDBRANCH   1  31
BRANCH   8  47
HETATM   47  N16 UNL     1       0.350  22.789  29.242  1.00  0.00    -0.336 N
ATOM     48 2H16 UNL     1      -0.046  23.382  29.970  1.00  0.00     0.177 HD
ATOM     49 1H16 UNL     1       0.497  21.779  29.255  1.00  0.00     0.177 HD
ENDBRANCH   8  47
BRANCH   7  50
HETATM   50  C15 UNL     1      -1.290  22.523  27.323  1.00  0.00    -0.007 A
HETATM   51  C16 UNL     1      -1.374  21.226  27.764  1.00  0.00     0.014 A
HETATM   52  C17 UNL     1      -2.618  20.695  28.038  1.00  0.00     0.016 A
HETATM   53  C18 UNL     1      -3.789  21.430  27.885  1.00  0.00     0.011 A
HETATM   54  C21 UNL     1      -3.638  22.728  27.440  1.00  0.00     0.016 A
HETATM   55  C22 UNL     1      -2.424  23.308  27.151  1.00  0.00     0.014 A
BRANCH  53  56
HETATM   56  C19 UNL     1      -5.068  20.838  28.189  1.00  0.00     0.147 A
HETATM   57  N11 UNL     1      -5.298  19.711  28.865  1.00  0.00    -0.268 N
HETATM   58  N12 UNL     1      -6.630  19.515  28.930  1.00  0.00    -0.225 N
ATOM     59  H11 UNL     1      -4.586  19.100  29.265  1.00  0.00     0.190 HD
HETATM   60  N13 UNL     1      -7.216  20.515  28.298  1.00  0.00    -0.223 N
ATOM     61  H12 UNL     1      -7.101  18.733  29.385  1.00  0.00     0.210 HD
HETATM   62  C20 UNL     1      -8.636  20.684  28.143  1.00  0.00     0.202 C
HETATM   63  N14 UNL     1      -6.270  21.321  27.847  1.00  0.00    -0.266 N
ATOM     64  H14 UNL     1      -6.430  22.179  27.319  1.00  0.00     0.190 HD
ENDBRANCH  53  56
ENDBRANCH   7  50
TORSDOF 16
ENDMDL