MODEL 1
REMARK VINA RESULT: -6.635067095      0.000      0.000
REMARK  18 active torsions:
REMARK  status: ('A' for Active; 'I' for Inactive)
REMARK    1  A    between atoms: C2_2  and  O1_3
REMARK    2  A    between atoms: C2_2  and  C4_6
REMARK    3  A    between atoms: C4_6  and  O2_7
REMARK    4  A    between atoms: C4_6  and  C27_50
REMARK    5  A    between atoms: O2_7  and  N2_8
REMARK    6  A    between atoms: C5_9  and  C6_10
REMARK    7  A    between atoms: C6_10  and  C8_12
REMARK    8  A    between atoms: C8_12  and  O3_13
REMARK    9  A    between atoms: C9_15  and  O4_16
REMARK   10  A    between atoms: O4_16  and  C10_17
REMARK   11  A    between atoms: C15_24  and  O7_25
REMARK   12  A    between atoms: C16_27  and  O8_28
REMARK   13  A    between atoms: C17_30  and  O9_31
REMARK   14  A    between atoms: O9_31  and  C18_32
REMARK   15  A    between atoms: C20_35  and  O11_36
REMARK   16  A    between atoms: C23_40  and  N3_41
REMARK       I    between atoms: N3_41  and  C24_43
REMARK   17  A    between atoms: C25_46  and  O14_47
REMARK   18  A    between atoms: C27_50  and  O16_52
ROOT
HETATM    1  O1  UNL     1      -0.159  26.499  25.167  1.00  0.00    -0.242 OA
HETATM    2  C3  UNL     1       0.267  27.282  26.188  1.00  0.00     0.234 C
HETATM    3  N1  UNL     1       0.650  27.950  27.071  1.00  0.00    -0.164 NA
ENDROOT
BRANCH   1   4
HETATM    4  C2  UNL     1      -0.319  25.142  25.226  1.00  0.00     0.098 C
HETATM    5  C1  UNL     1      -1.507  24.651  25.432  1.00  0.00     0.051 C
BRANCH   4   6
HETATM    6  C4  UNL     1       0.902  24.238  25.046  1.00  0.00     0.308 C
BRANCH   6   7
HETATM    7  O2  UNL     1       1.682  24.220  26.051  1.00  0.00    -0.253 OA
BRANCH   7   8
HETATM    8  N2  UNL     1       1.991  23.683  27.138  1.00  0.00    -0.224 N
HETATM    9  C5  UNL     1       1.972  22.372  27.526  1.00  0.00     0.061 C
HETATM   10  C9  UNL     1       3.241  21.569  27.883  1.00  0.00     0.157 C
HETATM   11  C12 UNL     1       3.578  20.523  26.860  1.00  0.00     0.120 C
HETATM   12  C20 UNL     1       4.484  22.309  28.076  1.00  0.00     0.129 C
HETATM   13  C13 UNL     1       2.543  19.652  26.357  1.00  0.00     0.011 C
HETATM   14  C15 UNL     1       4.282  20.904  25.631  1.00  0.00     0.205 C
HETATM   15  C14 UNL     1       3.100  19.062  25.275  1.00  0.00     0.135 C
HETATM   16  O6  UNL     1       4.400  19.538  25.114  1.00  0.00    -0.323 OA
HETATM   17  C16 UNL     1       5.605  21.476  25.944  1.00  0.00     0.214 C
HETATM   18  C17 UNL     1       5.721  21.753  27.400  1.00  0.00     0.204 C
HETATM   19  C21 UNL     1       4.584  23.774  28.014  1.00  0.00     0.033 C
HETATM   20  C22 UNL     1       4.522  24.543  26.782  1.00  0.00     0.038 C
HETATM   21  C26 UNL     1       3.554  24.302  28.986  1.00  0.00     0.073 C
HETATM   22  C23 UNL     1       3.415  25.538  27.065  1.00  0.00     0.145 C
HETATM   23  C25 UNL     1       2.531  24.701  28.000  1.00  0.00     0.178 C
BRANCH   9  24
HETATM   24  C6  UNL     1       0.719  21.770  28.117  1.00  0.00     0.056 C
HETATM   25  C7  UNL     1      -0.386  21.458  27.089  1.00  0.00     0.018 C
BRANCH  24  26
HETATM   26  C8  UNL     1      -0.053  22.601  29.106  1.00  0.00     0.174 C
BRANCH  26  27
HETATM   27  O3  UNL     1       0.526  23.090  30.202  1.00  0.00    -0.400 OA
ATOM     28  H3  UNL     1       0.158  22.940  31.065  1.00  0.00     0.209 HD
ENDBRANCH  26  27
ENDBRANCH  24  26
ENDBRANCH   9  24
BRANCH  10  29
HETATM   29  O4  UNL     1       2.809  21.002  29.078  1.00  0.00    -0.300 OA
BRANCH  29  30
HETATM   30  C10 UNL     1       2.950  19.848  29.707  1.00  0.00     0.256 C
HETATM   31  C11 UNL     1       1.885  18.793  29.895  1.00  0.00     0.126 C
HETATM   32  O5  UNL     1       4.047  19.615  30.182  1.00  0.00    -0.266 OA
ENDBRANCH  29  30
ENDBRANCH  10  29
BRANCH  14  33
HETATM   33  O7  UNL     1       3.668  21.538  24.631  1.00  0.00    -0.362 OA
ATOM     34  H7  UNL     1       3.586  21.155  23.766  1.00  0.00     0.213 HD
ENDBRANCH  14  33
BRANCH  17  35
HETATM   35  O8  UNL     1       6.571  20.479  25.624  1.00  0.00    -0.387 OA
ATOM     36  H8  UNL     1       7.196  20.462  26.339  1.00  0.00     0.210 HD
ENDBRANCH  17  35
BRANCH  18  37
HETATM   37  O9  UNL     1       6.764  22.738  27.527  1.00  0.00    -0.310 OA
BRANCH  37  38
HETATM   38  C18 UNL     1       8.082  22.408  27.787  1.00  0.00     0.255 C
HETATM   39  C19 UNL     1       9.160  23.439  27.852  1.00  0.00     0.126 C
HETATM   40  O10 UNL     1       8.337  21.177  27.970  1.00  0.00    -0.266 OA
ENDBRANCH  37  38
ENDBRANCH  18  37
BRANCH  12  41
HETATM   41  O11 UNL     1       4.889  22.151  29.454  1.00  0.00    -0.383 OA
ATOM     42  H11 UNL     1       5.741  21.730  29.464  1.00  0.00     0.210 HD
ENDBRANCH  12  41
BRANCH  22  43
HETATM   43  N3  UNL     1       3.863  26.718  27.724  1.00  0.00    -0.326 N
HETATM   44  C24 UNL     1       4.273  27.897  27.074  1.00  0.00     0.283 C
HETATM   45  O12 UNL     1       4.255  27.941  25.823  1.00  0.00    -0.630 OA
HETATM   46  O13 UNL     1       4.689  28.987  27.801  1.00  0.00    -0.630 OA
ATOM     47  H3  UNL     1       3.888  26.709  28.744  1.00  0.00     0.166 HD
ENDBRANCH  22  43
BRANCH  23  48
HETATM   48  O14 UNL     1       1.653  25.565  28.577  1.00  0.00    -0.367 OA
ATOM     49  H14 UNL     1       1.993  26.400  28.878  1.00  0.00     0.212 HD
ENDBRANCH  23  48
ENDBRANCH   7   8
ENDBRANCH   6   7
BRANCH   6  50
HETATM   50  C27 UNL     1       1.510  24.687  23.773  1.00  0.00     0.296 C
HETATM   51  O15 UNL     1       2.246  25.673  23.722  1.00  0.00    -0.262 OA
BRANCH  50  52
HETATM   52  O16 UNL     1       1.290  24.025  22.563  1.00  0.00    -0.324 OA
HETATM   53  C28 UNL     1       1.556  22.642  22.409  1.00  0.00     0.213 C
ENDBRANCH  50  52
ENDBRANCH   6  50
ENDBRANCH   4   6
ENDBRANCH   1   4
TORSDOF 18
ENDMDL