MODEL 1
REMARK VINA RESULT: -11.489269896      0.000      0.000
REMARK  15 active torsions:
REMARK  status: ('A' for Active; 'I' for Inactive)
REMARK    1  A    between atoms: N1_1  and  C1_4
REMARK    2  A    between atoms: C2_7  and  C3_8
REMARK    3  A    between atoms: C3_8  and  C4_10
REMARK    4  A    between atoms: N3_11  and  C5_13
REMARK    5  A    between atoms: C10_25  and  N5_26
REMARK    6  A    between atoms: N5_26  and  C11_28
REMARK    7  A    between atoms: C11_28  and  C12_29
REMARK    8  A    between atoms: C12_29  and  O7_31
REMARK    9  A    between atoms: O7_31  and  C13_32
REMARK   10  A    between atoms: C13_32  and  C14_33
REMARK   11  A    between atoms: C14_33  and  N6_34
REMARK   12  A    between atoms: C14_33  and  O8_38
REMARK   13  A    between atoms: N8_44  and  N9_45
REMARK   14  A    between atoms: N9_45  and  S2_47
REMARK   15  A    between atoms: S2_47  and  C17_50
ROOT
HETATM    1  C5  UNL     1      -1.762  28.003  26.009  1.00  0.00     0.217 C
HETATM    2  C6  UNL     1      -0.381  28.226  26.507  1.00  0.00     0.239 C
HETATM    3  O2  UNL     1       0.622  28.195  25.569  1.00  0.00    -0.255 OA
HETATM    4  S1  UNL     1       1.652  26.908  25.703  1.00  0.00     0.364 S
HETATM    5  O3  UNL     1       1.935  26.679  27.172  1.00  0.00    -0.175 OA
HETATM    6  O4  UNL     1       2.942  27.180  25.029  1.00  0.00    -0.175 OA
HETATM    7  N4  UNL     1       0.907  25.481  25.018  1.00  0.00    -0.226 N
ATOM      8  H4  UNL     1       1.554  24.900  24.484  1.00  0.00     0.184 HD
HETATM    9  C7  UNL     1      -0.422  24.966  25.056  1.00  0.00     0.283 C
HETATM   10  O5  UNL     1      -0.614  23.904  24.410  1.00  0.00    -0.265 OA
HETATM   11  C8  UNL     1      -1.678  25.386  25.694  1.00  0.00     0.110 A
HETATM   12  C9  UNL     1      -2.394  24.199  25.900  1.00  0.00     0.065 A
HETATM   13  C10 UNL     1      -3.635  24.220  26.488  1.00  0.00     0.036 A
HETATM   14  C15 UNL     1      -4.134  25.452  26.859  1.00  0.00     0.104 A
HETATM   15  C16 UNL     1      -3.394  26.585  26.633  1.00  0.00     0.252 A
HETATM   16  O9  UNL     1      -3.850  27.709  26.972  1.00  0.00    -0.268 OA
HETATM   17  N7  UNL     1      -2.160  26.577  26.051  1.00  0.00    -0.285 N
ENDROOT
BRANCH   1  18
HETATM   18  N3  UNL     1      -2.139  28.643  24.856  1.00  0.00    -0.372 N
HETATM   19  C4  UNL     1      -2.462  29.943  24.619  1.00  0.00     0.144 C
ATOM     20  H3  UNL     1      -2.184  28.040  24.035  1.00  0.00     0.161 HD
BRANCH  19  21
HETATM   21  C3  UNL     1      -1.587  31.089  24.653  1.00  0.00     0.234 C
HETATM   22  O1  UNL     1      -1.442  31.814  25.644  1.00  0.00    -0.283 OA
BRANCH  21  23
HETATM   23  C2  UNL     1      -0.794  31.458  23.455  1.00  0.00     0.213 A
HETATM   24  N2  UNL     1       0.502  31.148  23.309  1.00  0.00    -0.168 N
HETATM   25  C1  UNL     1       0.969  31.605  22.148  1.00  0.00     0.694 A
ATOM     26  H2  UNL     1       1.056  30.633  23.993  1.00  0.00     0.186 HD
HETATM   27  N10 UNL     1      -0.096  32.224  21.558  1.00  0.00    -0.109 N
HETATM   28  N8  UNL     1      -1.149  32.125  22.362  1.00  0.00    -0.151 N
ATOM     29  H10 UNL     1      -0.085  32.687  20.650  1.00  0.00     0.208 HD
BRANCH  25  30
HETATM   30  N1  UNL     1       2.165  31.479  21.701  1.00  0.00    -0.233 N
ATOM     31  H12 UNL     1       3.005  31.976  21.994  1.00  0.00     0.174 HD
ATOM     32  H11 UNL     1       2.475  30.847  20.963  1.00  0.00     0.174 HD
ENDBRANCH  25  30
BRANCH  28  33
HETATM   33  N9  UNL     1      -2.419  32.645  22.064  1.00  0.00    -0.199 N
ATOM     34  H9  UNL     1      -2.565  33.653  22.110  1.00  0.00     0.202 HD
BRANCH  33  35
HETATM   35  S2  UNL     1      -3.755  31.617  21.618  1.00  0.00     0.277 S
HETATM   36  O10 UNL     1      -3.298  30.156  21.660  1.00  0.00    -0.199 OA
HETATM   37  O11 UNL     1      -4.875  31.688  22.610  1.00  0.00    -0.199 OA
BRANCH  35  38
HETATM   38  C17 UNL     1      -4.271  31.913  19.981  1.00  0.00     0.081 A
HETATM   39  C18 UNL     1      -5.541  32.353  19.695  1.00  0.00     0.025 A
HETATM   40  C19 UNL     1      -5.922  32.583  18.390  1.00  0.00     0.002 A
HETATM   41  C20 UNL     1      -5.033  32.372  17.363  1.00  0.00     0.000 A
HETATM   42  C21 UNL     1      -3.754  31.927  17.656  1.00  0.00     0.002 A
HETATM   43  C22 UNL     1      -3.365  31.696  18.955  1.00  0.00     0.025 A
ENDBRANCH  35  38
ENDBRANCH  33  35
ENDBRANCH  28  33
ENDBRANCH  21  23
ENDBRANCH  19  21
ENDBRANCH   1  18
BRANCH  13  44
HETATM   44  N5  UNL     1      -4.408  23.025  26.715  1.00  0.00    -0.380 N
ATOM     45  H5  UNL     1      -5.270  22.862  26.195  1.00  0.00     0.160 HD
BRANCH  44  46
HETATM   46  C11 UNL     1      -3.948  22.061  27.685  1.00  0.00     0.231 C
BRANCH  46  47
HETATM   47  C12 UNL     1      -4.931  20.969  27.790  1.00  0.00     0.276 C
HETATM   48  O6  UNL     1      -4.572  19.836  28.155  1.00  0.00    -0.263 OA
BRANCH  47  49
HETATM   49  O7  UNL     1      -6.247  21.209  27.481  1.00  0.00    -0.316 OA
BRANCH  49  50
HETATM   50  C13 UNL     1      -7.339  20.731  28.204  1.00  0.00     0.239 C
BRANCH  50  51
HETATM   51  C14 UNL     1      -8.371  20.012  27.357  1.00  0.00     0.340 C
BRANCH  51  52
HETATM   52  N6  UNL     1      -9.651  20.700  27.409  1.00  0.00    -0.051 N
ATOM     53  H63 UNL     1      -9.563  21.632  27.814  1.00  0.00     0.277 HD
ATOM     54  H62 UNL     1      -9.975  20.967  26.480  1.00  0.00     0.277 HD
ATOM     55  H61 UNL     1     -10.344  20.137  27.903  1.00  0.00     0.277 HD
ENDBRANCH  51  52
BRANCH  51  56
HETATM   56  O8  UNL     1      -7.902  20.036  26.033  1.00  0.00    -0.368 OA
ATOM     57  H8  UNL     1      -8.650  19.869  25.472  1.00  0.00     0.212 HD
ENDBRANCH  51  56
ENDBRANCH  50  51
ENDBRANCH  49  50
ENDBRANCH  47  49
ENDBRANCH  46  47
ENDBRANCH  44  46
ENDBRANCH  13  44
TORSDOF 15
ENDMDL