MODEL 2
REMARK VINA RESULT: -10.428286770      2.729      4.418
REMARK  13 active torsions:
REMARK  status: ('A' for Active; 'I' for Inactive)
REMARK    1  A    between atoms: C2_2  and  C3_4
REMARK    2  A    between atoms: C3_4  and  O2_5
REMARK    3  A    between atoms: O2_5  and  C4_6
REMARK    4  A    between atoms: C4_6  and  C5_8
REMARK       I    between atoms: N1_27  and  C19_28
REMARK    5  A    between atoms: C19_28  and  C20_30
REMARK    6  A    between atoms: C20_30  and  C21_31
REMARK    7  A    between atoms: C21_31  and  C22_32
REMARK       I    between atoms: C22_32  and  N2_34
REMARK    8  A    between atoms: N2_34  and  C23_36
REMARK    9  A    between atoms: C23_36  and  N3_37
REMARK   10  A    between atoms: N3_37  and  C24_40
REMARK   11  A    between atoms: C24_40  and  C25_41
REMARK   12  A    between atoms: C26_44  and  O11_45
REMARK   13  A    between atoms: O11_45  and  C27_46
ROOT
HETATM    1  C5  UNL     1       0.328  24.868  26.610  1.00  0.00     0.135 C
HETATM    2  C6  UNL     1       0.087  23.838  27.447  1.00  0.00     0.170 C
HETATM    3  O4  UNL     1       0.630  23.692  28.685  1.00  0.00    -0.358 OA
HETATM    4  C7  UNL     1       1.415  22.774  29.339  1.00  0.00     0.200 C
HETATM    5  C8  UNL     1       0.692  21.641  30.019  1.00  0.00     0.194 C
HETATM    6  O5  UNL     1       1.094  20.402  29.586  1.00  0.00    -0.387 OA
HETATM    7  C9  UNL     1       1.525  19.666  30.683  1.00  0.00     0.193 C
HETATM    8  C10 UNL     1       2.759  18.866  30.404  1.00  0.00     0.193 C
HETATM    9  O6  UNL     1       3.865  19.669  30.663  1.00  0.00    -0.389 OA
HETATM   10  C11 UNL     1       4.650  19.768  29.497  1.00  0.00     0.169 C
HETATM   11  C12 UNL     1       6.059  20.039  29.948  1.00  0.00     0.052 C
HETATM   12  C13 UNL     1       6.712  21.120  29.151  1.00  0.00     0.169 C
HETATM   13  O7  UNL     1       5.817  21.659  28.241  1.00  0.00    -0.391 OA
HETATM   14  C14 UNL     1       6.342  22.800  27.619  1.00  0.00     0.169 C
HETATM   15  C15 UNL     1       5.610  22.960  26.309  1.00  0.00     0.052 C
HETATM   16  C16 UNL     1       5.564  24.419  25.937  1.00  0.00     0.169 C
HETATM   17  O8  UNL     1       4.720  25.109  26.802  1.00  0.00    -0.389 OA
HETATM   18  C17 UNL     1       3.480  25.369  26.221  1.00  0.00     0.188 C
HETATM   19  C18 UNL     1       2.567  25.866  27.318  1.00  0.00     0.158 C
HETATM   20  N1  UNL     1       1.170  25.982  26.885  1.00  0.00    -0.309 N
HETATM   21  C19 UNL     1       0.683  27.315  26.764  1.00  0.00     0.225 C
HETATM   22  O9  UNL     1      -0.502  27.581  26.435  1.00  0.00    -0.273 OA
ENDROOT
BRANCH   1  23
HETATM   23  C4  UNL     1      -0.351  24.852  25.311  1.00  0.00     0.312 C
HETATM   24  O3  UNL     1       0.318  25.030  24.232  1.00  0.00    -0.258 OA
BRANCH  23  25
HETATM   25  O2  UNL     1      -1.698  24.663  25.107  1.00  0.00    -0.309 OA
BRANCH  25  26
HETATM   26  C3  UNL     1      -2.745  24.925  25.992  1.00  0.00     0.256 C
BRANCH  26  27
HETATM   27  C2  UNL     1      -3.562  23.776  26.409  1.00  0.00     0.147 C
HETATM   28  C1  UNL     1      -3.231  22.729  27.377  1.00  0.00     0.093 C
HETATM   29  O1  UNL     1      -4.681  23.701  25.860  1.00  0.00    -0.296 OA
ENDBRANCH  26  27
ENDBRANCH  25  26
ENDBRANCH  23  25
ENDBRANCH   1  23
BRANCH  21  30
HETATM   30  C20 UNL     1       1.618  28.455  27.038  1.00  0.00     0.112 C
BRANCH  30  31
HETATM   31  C21 UNL     1       0.854  29.613  27.674  1.00  0.00     0.112 C
BRANCH  31  32
HETATM   32  C22 UNL     1       0.711  30.711  26.682  1.00  0.00     0.219 C
HETATM   33  O10 UNL     1       1.076  31.869  26.983  1.00  0.00    -0.274 OA
HETATM   34  N2  UNL     1       0.171  30.444  25.418  1.00  0.00    -0.338 N
ATOM     35  H2  UNL     1      -0.114  29.486  25.214  1.00  0.00     0.164 HD
BRANCH  34  36
HETATM   36  C23 UNL     1      -0.007  31.431  24.387  1.00  0.00     0.357 C
BRANCH  36  37
HETATM   37  N3  UNL     1      -1.098  32.290  24.709  1.00  0.00    -0.056 N
ATOM     38  H32 UNL     1      -1.976  31.778  24.792  1.00  0.00     0.279 HD
ATOM     39  H31 UNL     1      -1.039  32.641  25.664  1.00  0.00     0.279 HD
BRANCH  37  40
HETATM   40  C24 UNL     1      -1.186  33.352  23.751  1.00  0.00     0.284 C
BRANCH  40  41
HETATM   41  C25 UNL     1      -2.476  33.398  22.984  1.00  0.00     0.260 C
HETATM   42  N4  UNL     1      -3.509  32.796  23.819  1.00  0.00    -0.110 NA
HETATM   43  N5  UNL     1      -3.544  31.461  23.338  1.00  0.00    -0.086 NA
HETATM   44  C26 UNL     1      -3.430  31.696  21.911  1.00  0.00     0.381 C
HETATM   45  O13 UNL     1      -2.451  32.654  21.814  1.00  0.00    -0.321 OA
BRANCH  44  46
HETATM   46  O11 UNL     1      -4.642  32.045  21.343  1.00  0.00    -0.298 OA
BRANCH  46  47
HETATM   47  C27 UNL     1      -4.535  32.313  19.989  1.00  0.00     0.405 C
HETATM   48  N6  UNL     1      -4.858  31.086  19.246  1.00  0.00    -0.058 NA
HETATM   49  N7  UNL     1      -6.178  31.561  19.333  1.00  0.00     0.020 NA
HETATM   50  O12 UNL     1      -5.656  32.829  19.370  1.00  0.00    -0.219 OA
ENDBRANCH  46  47
ENDBRANCH  44  46
ENDBRANCH  40  41
ENDBRANCH  37  40
ENDBRANCH  36  37
ENDBRANCH  34  36
ENDBRANCH  31  32
ENDBRANCH  30  31
ENDBRANCH  21  30
TORSDOF 13
ENDMDL