MODEL 2
REMARK VINA RESULT: -7.512396399      0.104      2.951
REMARK  4 active torsions:
REMARK  status: ('A' for Active; 'I' for Inactive)
REMARK    1  A    between atoms: C2_2  and  C3_3
REMARK    2  A    between atoms: C3_3  and  C4_4
REMARK    3  A    between atoms: C4_4  and  N1_5
REMARK    4  A    between atoms: N2_12  and  C8_13
ROOT
HETATM    1  C8  UNL     1      -9.166 -30.434  17.273  1.00  0.00     0.076 A
HETATM    2  C9  UNL     1      -8.779 -30.979  18.479  1.00  0.00     0.098 A
HETATM    3  C10 UNL     1      -8.622 -30.127  19.618  1.00  0.00     0.104 C
HETATM    4  N3  UNL     1      -8.477 -29.446  20.542  1.00  0.00    -0.191 NA
HETATM    5  C11 UNL     1      -8.538 -32.346  18.612  1.00  0.00     0.092 A
HETATM    6  N4  UNL     1      -8.138 -32.920  19.853  1.00  0.00    -0.099 NA
HETATM    7  C12 UNL     1      -8.678 -33.202  17.545  1.00  0.00     0.096 A
HETATM    8  C13 UNL     1      -8.425 -34.612  17.696  1.00  0.00     0.103 C
HETATM    9  N5  UNL     1      -8.215 -35.750  17.800  1.00  0.00    -0.191 NA
HETATM   10  C14 UNL     1      -9.064 -32.670  16.335  1.00  0.00     0.092 A
HETATM   11  N6  UNL     1      -9.212 -33.537  15.222  1.00  0.00    -0.099 NA
HETATM   12  C15 UNL     1      -9.301 -31.322  16.203  1.00  0.00     0.098 A
HETATM   13  C16 UNL     1      -9.705 -30.755  14.942  1.00  0.00     0.104 C
HETATM   14  N7  UNL     1     -10.031 -30.278  13.928  1.00  0.00    -0.191 NA
ENDROOT
BRANCH   1  15
HETATM   15  N2  UNL     1      -9.415 -29.037  17.131  1.00  0.00    -0.378 N
HETATM   16  C7  UNL     1     -10.736 -28.568  17.436  1.00  0.00     0.123 C
HETATM   17  C6  UNL     1     -11.062 -27.207  16.950  1.00  0.00     0.021 C
HETATM   18  C5  UNL     1      -9.957 -26.486  16.247  1.00  0.00     0.014 C
HETATM   19  C3  UNL     1      -8.591 -26.748  16.835  1.00  0.00    -0.001 C
HETATM   20  C17 UNL     1      -8.316 -28.214  16.693  1.00  0.00     0.134 C
BRANCH  19  21
HETATM   21  C2  UNL     1      -7.571 -25.931  16.103  1.00  0.00     0.008 C
HETATM   22  C1  UNL     1      -7.988 -24.530  15.794  1.00  0.00     0.006 C
ENDBRANCH  19  21
BRANCH  19  23
HETATM   23  C4  UNL     1      -8.577 -26.334  18.296  1.00  0.00     0.240 C
BRANCH  23  24
HETATM   24  N1  UNL     1      -7.397 -26.834  18.975  1.00  0.00    -0.079 N
ATOM     25  H13 UNL     1      -6.580 -26.819  18.365  1.00  0.00     0.274 HD
ATOM     26  H12 UNL     1      -7.071 -26.182  19.689  1.00  0.00     0.274 HD
ATOM     27  H11 UNL     1      -7.558 -27.763  19.361  1.00  0.00     0.274 HD
ENDBRANCH  23  24
ENDBRANCH  19  23
ENDBRANCH   1  15
TORSDOF 4
ENDMDL