MODEL 4
REMARK VINA RESULT: -7.286337508      1.224      1.314
REMARK  3 active torsions:
REMARK  status: ('A' for Active; 'I' for Inactive)
REMARK    1  A    between atoms: C6_10  and  C7_11
REMARK    2  A    between atoms: C7_11  and  N6_19
REMARK       I    between atoms: N3_12  and  C8_14
REMARK    3  A    between atoms: N6_19  and  C9_21
ROOT
HETATM    1  C7  UNL     1      -7.693 -25.732  18.780  1.00  0.00     0.155 C
HETATM    2  N3  UNL     1      -6.730 -26.231  19.456  1.00  0.00    -0.314 N
ATOM      3  H3  UNL     1      -5.833 -25.747  19.480  1.00  0.00     0.170 HD
HETATM    4  C8  UNL     1      -6.882 -27.437  20.168  1.00  0.00     0.187 C
HETATM    5  N4  UNL     1      -7.396 -27.510  21.352  1.00  0.00    -0.373 N
ATOM      6  H41 UNL     1      -7.506 -28.383  21.868  1.00  0.00     0.158 HD
ATOM      7  H42 UNL     1      -7.709 -26.644  21.792  1.00  0.00     0.158 HD
HETATM    8  N5  UNL     1      -6.450 -28.636  19.560  1.00  0.00    -0.064 NA
ENDROOT
BRANCH   1   9
HETATM    9  C6  UNL     1      -7.500 -24.477  18.050  1.00  0.00     0.182 A
HETATM   10  N2  UNL     1      -7.493 -24.277  16.724  1.00  0.00    -0.168 N
HETATM   11  C5  UNL     1      -7.283 -22.975  16.489  1.00  0.00     0.725 A
ATOM     12  H2  UNL     1      -7.625 -24.997  16.013  1.00  0.00     0.186 HD
HETATM   13  N1  UNL     1      -7.172 -22.159  15.329  1.00  0.00    -0.199 N
HETATM   14  N8  UNL     1      -7.164 -22.397  17.704  1.00  0.00     0.021 N
HETATM   15  C4  UNL     1      -6.963 -20.898  15.391  1.00  0.00     0.119 A
ATOM     16  H1  UNL     1      -7.263 -22.596  14.411  1.00  0.00     0.183 HD
HETATM   17  C2  UNL     1      -6.828 -20.233  16.691  1.00  0.00     0.117 A
HETATM   18  C1  UNL     1      -7.983 -19.226  16.769  1.00  0.00     0.054 C
HETATM   19  C3  UNL     1      -5.509 -19.490  16.823  1.00  0.00     0.054 C
HETATM   20  O1  UNL     1      -6.943 -21.061  17.807  1.00  0.00    -0.228 OA
HETATM   21  N7  UNL     1      -7.295 -23.301  18.654  1.00  0.00    -0.240 N
ATOM     22  H7  UNL     1      -7.248 -23.136  19.659  1.00  0.00     0.192 HD
ENDBRANCH   1   9
BRANCH   1  23
HETATM   23  N6  UNL     1      -8.938 -26.400  18.742  1.00  0.00    -0.334 N
ATOM     24  H6  UNL     1      -9.629 -26.267  19.480  1.00  0.00     0.168 HD
BRANCH  23  25
HETATM   25  C9  UNL     1      -9.195 -27.267  17.638  1.00  0.00     0.075 A
HETATM   26  C10 UNL     1      -9.410 -26.948  16.321  1.00  0.00     0.038 A
HETATM   27  C11 UNL     1      -9.631 -27.970  15.474  1.00  0.00     0.010 A
HETATM   28  C12 UNL     1      -9.622 -29.232  15.990  1.00  0.00     0.052 A
HETATM   29  S1  UNL     1      -9.307 -28.967  17.644  1.00  0.00    -0.084 SA
ENDBRANCH  23  25
ENDBRANCH   1  23
TORSDOF 3
ENDMDL