MODEL 3
REMARK VINA RESULT: -8.320596697      1.367      7.989
REMARK  3 active torsions:
REMARK  status: ('A' for Active; 'I' for Inactive)
REMARK    1  A    between atoms: C3_4  and  C4_5
REMARK    2  A    between atoms: C11_17  and  C12_18
REMARK    3  A    between atoms: C17_28  and  N8_29
ROOT
HETATM    1  N1  UNL     1      -9.834 -32.743  19.700  1.00  0.00    -0.191 NA
HETATM    2  C1  UNL     1     -10.085 -31.776  19.120  1.00  0.00     0.105 C
HETATM    3  C2  UNL     1     -10.394 -30.552  18.436  1.00  0.00     0.118 A
HETATM    4  C3  UNL     1     -11.573 -30.264  17.819  1.00  0.00     0.084 A
HETATM    5  N3  UNL     1     -11.724 -29.002  17.291  1.00  0.00    -0.187 N
ATOM      6  H3  UNL     1     -12.605 -28.777  16.829  1.00  0.00     0.184 HD
HETATM    7  C10 UNL     1     -10.790 -28.062  17.348  1.00  0.00     0.707 A
HETATM    8  N4  UNL     1     -10.700 -26.771  16.912  1.00  0.00    -0.172 N
ATOM      9  H4  UNL     1     -11.424 -26.256  16.411  1.00  0.00     0.186 HD
HETATM   10  C11 UNL     1      -9.506 -26.303  17.255  1.00  0.00     0.148 A
HETATM   11  N6  UNL     1      -8.875 -27.292  17.889  1.00  0.00    -0.261 N
ATOM     12  H6  UNL     1      -7.932 -27.225  18.271  1.00  0.00     0.190 HD
HETATM   13  N7  UNL     1      -9.636 -28.372  17.959  1.00  0.00    -0.067 N
HETATM   14  C17 UNL     1      -9.399 -29.566  18.501  1.00  0.00     0.162 A
ENDROOT
BRANCH   4  15
HETATM   15  C4  UNL     1     -12.696 -31.189  17.760  1.00  0.00    -0.007 A
HETATM   16  C5  UNL     1     -13.426 -31.670  18.799  1.00  0.00     0.015 A
HETATM   17  C6  UNL     1     -14.554 -32.493  18.613  1.00  0.00     0.027 A
HETATM   18  C7  UNL     1     -14.982 -32.861  17.364  1.00  0.00     0.046 A
HETATM   19  N2  UNL     1     -16.117 -33.691  17.145  1.00  0.00    -0.102 NA
HETATM   20  C8  UNL     1     -14.253 -32.386  16.299  1.00  0.00     0.027 A
HETATM   21  C9  UNL     1     -13.156 -31.584  16.485  1.00  0.00     0.015 A
ENDBRANCH   4  15
BRANCH  14  22
HETATM   22  N8  UNL     1      -8.255 -29.794  19.077  1.00  0.00    -0.382 N
ATOM     23  H82 UNL     1      -7.729 -30.635  18.837  1.00  0.00     0.157 HD
ATOM     24  H81 UNL     1      -7.869 -29.149  19.766  1.00  0.00     0.157 HD
ENDBRANCH  14  22
BRANCH  10  25
HETATM   25  C12 UNL     1      -8.946 -24.977  17.009  1.00  0.00     0.025 A
HETATM   26  C13 UNL     1      -8.185 -24.716  15.907  1.00  0.00     0.018 A
HETATM   27  C14 UNL     1      -7.664 -23.457  15.692  1.00  0.00     0.018 A
HETATM   28  C15 UNL     1      -7.921 -22.453  16.610  1.00  0.00     0.087 A
HETATM   29  N5  UNL     1      -8.675 -22.713  17.703  1.00  0.00    -0.374 N
HETATM   30  C16 UNL     1      -9.174 -23.948  17.894  1.00  0.00     0.102 A
ATOM     31  H5  UNL     1      -8.865 -21.975  18.381  1.00  0.00     0.164 HD
ENDBRANCH  10  25
TORSDOF 3
ENDMDL