MODEL 4
REMARK VINA RESULT: -7.745902419      3.010      4.489
REMARK  4 active torsions:
REMARK  status: ('A' for Active; 'I' for Inactive)
REMARK    1  A    between atoms: N1_1  and  C1_4
REMARK    2  A    between atoms: C2_7  and  C3_8
REMARK    3  A    between atoms: N4_16  and  C9_17
REMARK    4  A    between atoms: N6_21  and  N7_23
ROOT
HETATM    1  C9  UNL     1      -9.709 -30.031  18.322  1.00  0.00     0.160 A
HETATM    2  N5  UNL     1      -9.457 -30.391  19.582  1.00  0.00    -0.319 N
ATOM      3  H5  UNL     1      -8.730 -29.859  20.060  1.00  0.00     0.169 HD
HETATM    4  C10 UNL     1     -10.033 -31.356  20.293  1.00  0.00     0.166 A
HETATM    5  N6  UNL     1      -9.659 -31.570  21.517  1.00  0.00    -0.286 N
ATOM      6  H6  UNL     1      -8.926 -31.013  21.955  1.00  0.00     0.188 HD
HETATM    7  S1  UNL     1     -11.241 -32.228  19.473  1.00  0.00    -0.034 SA
HETATM    8  C11 UNL     1     -11.467 -31.664  17.858  1.00  0.00     0.091 A
HETATM    9  N8  UNL     1     -12.368 -32.202  17.018  1.00  0.00    -0.359 N
ATOM     10  H8  UNL     1     -12.944 -32.977  17.348  1.00  0.00     0.166 HD
HETATM   11  C12 UNL     1     -12.541 -31.759  15.760  1.00  0.00     0.089 A
HETATM   12  C13 UNL     1     -11.747 -30.708  15.342  1.00  0.00     0.018 A
HETATM   13  C14 UNL     1     -10.815 -30.139  16.184  1.00  0.00     0.019 A
HETATM   14  C15 UNL     1     -10.653 -30.616  17.488  1.00  0.00     0.044 A
ENDROOT
BRANCH   1  15
HETATM   15  N4  UNL     1      -8.958 -28.939  17.727  1.00  0.00    -0.067 N
HETATM   16  C1  UNL     1      -7.832 -29.063  16.996  1.00  0.00     0.700 A
HETATM   17  N2  UNL     1      -7.417 -27.839  16.612  1.00  0.00    -0.173 N
HETATM   18  C2  UNL     1      -8.283 -26.950  17.103  1.00  0.00     0.146 A
ATOM     19  H2  UNL     1      -6.592 -27.630  16.050  1.00  0.00     0.186 HD
HETATM   20  N3  UNL     1      -9.211 -27.647  17.778  1.00  0.00    -0.261 N
ATOM     21  H3  UNL     1     -10.005 -27.232  18.265  1.00  0.00     0.190 HD
BRANCH  16  22
HETATM   22  N1  UNL     1      -7.240 -30.172  16.706  1.00  0.00    -0.233 N
ATOM     23  H12 UNL     1      -6.563 -30.658  17.294  1.00  0.00     0.174 HD
ATOM     24  H11 UNL     1      -7.378 -30.703  15.846  1.00  0.00     0.174 HD
ENDBRANCH  16  22
BRANCH  18  25
HETATM   25  C3  UNL     1      -8.222 -25.498  16.931  1.00  0.00     0.010 A
HETATM   26  C4  UNL     1      -8.819 -24.673  17.859  1.00  0.00     0.015 A
HETATM   27  C5  UNL     1      -8.775 -23.298  17.721  1.00  0.00     0.001 A
HETATM   28  C6  UNL     1      -8.120 -22.737  16.629  1.00  0.00     0.000 A
HETATM   29  C7  UNL     1      -7.515 -23.537  15.687  1.00  0.00     0.001 A
HETATM   30  C8  UNL     1      -7.589 -24.901  15.873  1.00  0.00     0.015 A
ENDBRANCH  18  25
ENDBRANCH   1  15
BRANCH   5  31
HETATM   31  N7  UNL     1     -10.304 -32.596  22.207  1.00  0.00    -0.343 N
ATOM     32  H72 UNL     1     -10.047 -32.814  23.170  1.00  0.00     0.176 HD
ATOM     33  H71 UNL     1     -11.031 -33.107  21.708  1.00  0.00     0.176 HD
ENDBRANCH   5  31
TORSDOF 4
ENDMDL