MODEL 2
REMARK VINA RESULT: -6.980345700      5.532      8.126
REMARK  4 active torsions:
REMARK  status: ('A' for Active; 'I' for Inactive)
REMARK    1  A    between atoms: N1_1  and  C1_4
REMARK    2  A    between atoms: C2_7  and  N3_8
REMARK    3  A    between atoms: N3_8  and  C3_10
REMARK    4  A    between atoms: N7_24  and  C10_25
ROOT
HETATM    1  C1  UNL     1      -7.814 -21.661  17.006  1.00  0.00     0.147 A
HETATM    2  N2  UNL     1      -6.816 -21.723  16.078  1.00  0.00    -0.175 N
ATOM      3  H2  UNL     1      -6.325 -20.867  15.820  1.00  0.00     0.186 HD
HETATM    4  C2  UNL     1      -6.464 -22.874  15.499  1.00  0.00     0.681 A
HETATM    5  N4  UNL     1      -7.119 -24.020  15.845  1.00  0.00    -0.172 N
ATOM      6  H4  UNL     1      -6.854 -24.902  15.406  1.00  0.00     0.186 HD
HETATM    7  C8  UNL     1      -8.088 -24.005  16.736  1.00  0.00     0.176 A
HETATM    8  C9  UNL     1      -8.457 -22.825  17.337  1.00  0.00     0.140 A
HETATM    9  N5  UNL     1      -9.459 -23.149  18.182  1.00  0.00    -0.279 N
ATOM     10  H5  UNL     1      -9.963 -22.501  18.787  1.00  0.00     0.189 HD
HETATM   11  N6  UNL     1      -9.672 -24.435  18.092  1.00  0.00    -0.233 N
ATOM     12  H6  UNL     1     -10.381 -24.933  18.632  1.00  0.00     0.209 HD
HETATM   13  N7  UNL     1      -8.864 -25.017  17.223  1.00  0.00    -0.223 N
ENDROOT
BRANCH   4  14
HETATM   14  N3  UNL     1      -5.424 -22.892  14.540  1.00  0.00    -0.221 N
ATOM     15  H3  UNL     1      -5.097 -23.821  14.275  1.00  0.00     0.178 HD
BRANCH  14  16
HETATM   16  C3  UNL     1      -4.772 -21.822  13.895  1.00  0.00     0.100 C
HETATM   17  C4  UNL     1      -3.353 -22.083  13.445  1.00  0.00     0.036 C
HETATM   18  C5  UNL     1      -2.540 -20.830  13.805  1.00  0.00     0.076 C
HETATM   19  S1  UNL     1      -3.587 -19.396  13.556  1.00  0.00    -0.169 SA
HETATM   20  C6  UNL     1      -5.089 -19.746  12.613  1.00  0.00     0.076 C
HETATM   21  C7  UNL     1      -5.516 -21.205  12.723  1.00  0.00     0.036 C
ENDBRANCH  14  16
ENDBRANCH   4  14
BRANCH   1  22
HETATM   22  N1  UNL     1      -8.136 -20.539  17.551  1.00  0.00    -0.383 N
ATOM     23  H12 UNL     1      -8.757 -19.878  17.081  1.00  0.00     0.157 HD
ATOM     24  H11 UNL     1      -7.775 -20.285  18.470  1.00  0.00     0.157 HD
ENDBRANCH   1  22
BRANCH  13  25
HETATM   25  C10 UNL     1      -8.777 -26.385  16.838  1.00  0.00     0.060 A
HETATM   26  C11 UNL     1      -9.709 -26.927  15.971  1.00  0.00     0.031 A
HETATM   27  C12 UNL     1      -9.660 -28.251  15.574  1.00  0.00     0.002 A
HETATM   28  C13 UNL     1      -8.654 -29.062  16.054  1.00  0.00     0.000 A
HETATM   29  C14 UNL     1      -7.713 -28.555  16.916  1.00  0.00     0.002 A
HETATM   30  C15 UNL     1      -7.790 -27.237  17.291  1.00  0.00     0.031 A
ENDBRANCH  13  25
TORSDOF 4
ENDMDL