MODEL 3
REMARK VINA RESULT: -7.748056505      3.178      7.682
REMARK  4 active torsions:
REMARK  status: ('A' for Active; 'I' for Inactive)
REMARK    1  A    between atoms: C2_5  and  N3_6
REMARK    2  A    between atoms: N3_6  and  C3_8
REMARK    3  A    between atoms: N5_17  and  C10_18
REMARK    4  A    between atoms: C13_21  and  O1_22
ROOT
HETATM    1  N1  UNL     1      -5.811 -28.297  20.167  1.00  0.00    -0.063 NA
HETATM    2  C1  UNL     1      -6.978 -27.987  19.418  1.00  0.00     0.195 A
HETATM    3  N2  UNL     1      -7.307 -26.737  19.056  1.00  0.00    -0.315 N
ATOM      4  H2  UNL     1      -6.697 -25.966  19.328  1.00  0.00     0.170 HD
HETATM    5  C2  UNL     1      -8.418 -26.474  18.346  1.00  0.00     0.135 A
HETATM    6  C8  UNL     1      -9.263 -27.489  17.966  1.00  0.00     0.122 A
HETATM    7  N4  UNL     1     -10.409 -27.555  17.279  1.00  0.00    -0.346 N
ATOM      8  H4  UNL     1     -10.905 -26.762  16.874  1.00  0.00     0.167 HD
HETATM    9  C9  UNL     1     -10.806 -28.860  17.207  1.00  0.00     0.185 A
HETATM   10  N5  UNL     1      -9.899 -29.615  17.856  1.00  0.00    -0.322 N
HETATM   11  C16 UNL     1      -8.932 -28.777  18.334  1.00  0.00     0.142 A
HETATM   12  N6  UNL     1      -7.803 -28.983  19.047  1.00  0.00    -0.314 N
ATOM     13  H6  UNL     1      -7.565 -29.938  19.318  1.00  0.00     0.170 HD
ENDROOT
BRANCH  10  14
HETATM   14  C10 UNL     1      -9.855 -31.046  18.069  1.00  0.00     0.092 C
HETATM   15  C11 UNL     1     -10.306 -31.382  19.475  1.00  0.00     0.028 C
HETATM   16  C12 UNL     1     -10.090 -32.892  19.598  1.00  0.00     0.034 C
HETATM   17  C13 UNL     1     -11.078 -33.555  18.699  1.00  0.00     0.118 C
HETATM   18  C14 UNL     1     -11.123 -33.080  17.309  1.00  0.00     0.034 C
HETATM   19  C15 UNL     1     -10.729 -31.689  17.033  1.00  0.00     0.028 C
BRANCH  17  20
HETATM   20  O1  UNL     1     -10.784 -34.938  18.691  1.00  0.00    -0.396 OA
ATOM     21  H1  UNL     1     -10.059 -35.073  18.092  1.00  0.00     0.210 HD
ENDBRANCH  17  20
ENDBRANCH  10  14
BRANCH   5  22
HETATM   22  N3  UNL     1      -8.740 -25.276  17.996  1.00  0.00    -0.370 N
ATOM     23  H3  UNL     1      -9.710 -24.970  18.079  1.00  0.00     0.161 HD
BRANCH  22  24
HETATM   24  C3  UNL     1      -7.755 -24.371  17.493  1.00  0.00     0.083 C
HETATM   25  C4  UNL     1      -7.390 -24.584  16.060  1.00  0.00     0.025 C
HETATM   26  C5  UNL     1      -7.333 -23.225  15.402  1.00  0.00     0.002 C
HETATM   27  C6  UNL     1      -7.766 -22.214  16.417  1.00  0.00     0.002 C
HETATM   28  C7  UNL     1      -8.282 -22.957  17.618  1.00  0.00     0.025 C
ENDBRANCH  22  24
ENDBRANCH   5  22
TORSDOF 4
ENDMDL