MODEL 1
REMARK VINA RESULT: -7.857613779      0.000      0.000
REMARK  3 active torsions:
REMARK  status: ('A' for Active; 'I' for Inactive)
REMARK    1  A    between atoms: N1_1  and  C1_4
REMARK    2  A    between atoms: C2_7  and  C3_8
REMARK    3  A    between atoms: C7_15  and  N4_16
ROOT
HETATM    1  C1  UNL     1      -9.984 -32.033  21.223  1.00  0.00     0.692 A
HETATM    2  N2  UNL     1      -9.944 -33.168  20.494  1.00  0.00    -0.175 N
ATOM      3  H2  UNL     1     -10.165 -34.068  20.923  1.00  0.00     0.186 HD
HETATM    4  C2  UNL     1      -9.613 -33.096  19.213  1.00  0.00     0.153 A
HETATM    5  N3  UNL     1      -9.320 -31.920  18.639  1.00  0.00    -0.174 N
ATOM      6  H3  UNL     1      -9.068 -31.899  17.650  1.00  0.00     0.186 HD
HETATM    7  C7  UNL     1      -9.349 -30.756  19.336  1.00  0.00     0.696 A
HETATM    8  N5  UNL     1      -9.684 -30.847  20.625  1.00  0.00    -0.022 N
ATOM      9  H5  UNL     1      -9.717 -29.994  21.184  1.00  0.00     0.203 HD
ENDROOT
BRANCH   7  10
HETATM   10  N4  UNL     1      -9.042 -29.516  18.727  1.00  0.00    -0.217 N
HETATM   11  C8  UNL     1      -9.817 -29.093  17.606  1.00  0.00     0.144 C
HETATM   12  C9  UNL     1      -9.938 -27.594  17.488  1.00  0.00     0.062 C
HETATM   13  C10 UNL     1      -8.623 -26.892  17.702  1.00  0.00     0.101 C
HETATM   14  C11 UNL     1      -8.289 -26.158  16.420  1.00  0.00     0.071 C
HETATM   15  O2  UNL     1      -8.702 -25.866  18.608  1.00  0.00    -0.230 OA
HETATM   16  C13 UNL     1      -7.505 -27.857  18.007  1.00  0.00     0.062 C
HETATM   17  C12 UNL     1      -8.902 -24.804  16.724  1.00  0.00     0.213 C
HETATM   18  O1  UNL     1      -9.314 -24.863  18.039  1.00  0.00    -0.240 OA
HETATM   19  C14 UNL     1      -7.973 -28.682  19.213  1.00  0.00     0.144 C
ENDBRANCH   7  10
BRANCH   4  20
HETATM   20  C3  UNL     1      -9.562 -34.334  18.397  1.00  0.00     0.050 A
HETATM   21  C4  UNL     1      -8.466 -34.890  17.797  1.00  0.00     0.023 A
HETATM   22  C5  UNL     1      -8.652 -36.020  17.103  1.00  0.00     0.009 A
HETATM   23  C6  UNL     1      -9.925 -36.525  17.052  1.00  0.00     0.050 A
HETATM   24  S1  UNL     1     -10.817 -35.407  17.974  1.00  0.00    -0.098 SA
ENDBRANCH   4  20
BRANCH   1  25
HETATM   25  N1  UNL     1     -10.305 -32.109  22.460  1.00  0.00    -0.234 N
ATOM     26  H12 UNL     1     -11.197 -31.760  22.810  1.00  0.00     0.174 HD
ATOM     27  H11 UNL     1      -9.644 -32.533  23.112  1.00  0.00     0.174 HD
ENDBRANCH   1  25
TORSDOF 3
ENDMDL