MODEL 3
REMARK VINA RESULT: -6.954309751      1.679      2.677
REMARK  3 active torsions:
REMARK  status: ('A' for Active; 'I' for Inactive)
REMARK    1  A    between atoms: C2_2  and  C4_4
REMARK    2  A    between atoms: C7_10  and  N2_11
REMARK    3  A    between atoms: C14_23  and  N6_24
ROOT
HETATM    1  C4  UNL     1      -9.552 -28.218  16.327  1.00  0.00     0.055 A
HETATM    2  N1  UNL     1      -9.109 -29.236  15.620  1.00  0.00    -0.353 N
ATOM      3  H1  UNL     1      -8.676 -29.076  14.710  1.00  0.00     0.166 HD
HETATM    4  C5  UNL     1      -9.225 -30.451  16.084  1.00  0.00     0.050 A
HETATM    5  C6  UNL     1      -9.814 -30.622  17.297  1.00  0.00     0.073 A
HETATM    6  S1  UNL     1     -10.170 -28.975  17.722  1.00  0.00    -0.074 SA
HETATM    7  C7  UNL     1     -10.140 -31.956  17.923  1.00  0.00     0.308 C
HETATM    8  N3  UNL     1     -10.224 -31.697  19.336  1.00  0.00    -0.323 N
ATOM      9  H3  UNL     1     -10.956 -31.056  19.643  1.00  0.00     0.165 HD
HETATM   10  C12 UNL     1      -9.479 -32.185  20.233  1.00  0.00     0.186 C
HETATM   11  N4  UNL     1      -9.601 -31.900  21.619  1.00  0.00    -0.064 NA
HETATM   12  N5  UNL     1      -8.438 -33.088  19.803  1.00  0.00    -0.362 N
ATOM     13  H5  UNL     1      -8.061 -33.817  20.409  1.00  0.00     0.162 HD
HETATM   14  C13 UNL     1      -7.965 -32.884  18.444  1.00  0.00     0.170 C
HETATM   15  C14 UNL     1      -9.196 -32.974  17.482  1.00  0.00     0.216 C
HETATM   16  C15 UNL     1      -8.616 -32.773  16.160  1.00  0.00     0.020 C
HETATM   17  C16 UNL     1      -8.594 -31.672  15.495  1.00  0.00     0.029 C
ENDROOT
BRANCH   7  18
HETATM   18  N2  UNL     1     -11.523 -32.235  17.460  1.00  0.00     0.126 N
HETATM   19  C8  UNL     1     -12.459 -32.448  18.460  1.00  0.00     0.276 C
HETATM   20  C9  UNL     1     -13.759 -31.881  17.955  1.00  0.00     0.032 C
HETATM   21  C10 UNL     1     -13.422 -31.101  16.717  1.00  0.00     0.032 C
HETATM   22  C11 UNL     1     -11.925 -31.189  16.616  1.00  0.00     0.276 C
ENDBRANCH   7  18
BRANCH  15  23
HETATM   23  N6  UNL     1      -9.615 -34.361  17.654  1.00  0.00    -0.060 N
ATOM     24  H63 UNL     1     -10.594 -34.461  17.386  1.00  0.00     0.275 HD
ATOM     25  H62 UNL     1      -9.169 -34.946  16.948  1.00  0.00     0.275 HD
ATOM     26  H61 UNL     1      -9.468 -34.765  18.579  1.00  0.00     0.275 HD
ENDBRANCH  15  23
BRANCH   1  27
HETATM   27  C2  UNL     1      -9.489 -26.766  15.927  1.00  0.00     0.035 C
HETATM   28  C1  UNL     1      -8.093 -26.217  16.113  1.00  0.00     0.016 C
HETATM   29  C3  UNL     1     -10.424 -26.019  16.853  1.00  0.00     0.016 C
ENDBRANCH   1  27
TORSDOF 3
ENDMDL