MODEL 4
REMARK VINA RESULT: -7.937769102      3.278      4.832
REMARK  2 active torsions:
REMARK  status: ('A' for Active; 'I' for Inactive)
REMARK    1  A    between atoms: N3_7  and  C4_8
REMARK    2  A    between atoms: C7_11  and  N4_12
ROOT
HETATM    1  C4  UNL     1      -7.466 -23.081  16.784  1.00  0.00     0.083 C
HETATM    2  C5  UNL     1      -7.819 -24.018  15.656  1.00  0.00     0.050 C
HETATM    3  C6  UNL     1      -7.832 -25.410  16.144  1.00  0.00     0.000 C
HETATM    4  C7  UNL     1      -8.331 -25.720  17.313  1.00  0.00     0.015 C
HETATM    5  C13 UNL     1      -8.929 -24.633  18.150  1.00  0.00     0.059 C
HETATM    6  C14 UNL     1      -8.562 -23.252  17.814  1.00  0.00     0.028 C
ENDROOT
BRANCH   4   7
HETATM    7  N4  UNL     1      -8.381 -27.040  17.843  1.00  0.00    -0.296 N
HETATM    8  C8  UNL     1      -7.413 -27.614  18.560  1.00  0.00     0.190 A
HETATM    9  N5  UNL     1      -7.797 -28.858  18.967  1.00  0.00    -0.346 N
HETATM   10  C9  UNL     1      -9.051 -29.061  18.481  1.00  0.00     0.116 A
ATOM     11  H5  UNL     1      -7.249 -29.511  19.527  1.00  0.00     0.167 HD
HETATM   12  C10 UNL     1      -9.950 -30.089  18.562  1.00  0.00     0.132 A
HETATM   13  C12 UNL     1      -9.403 -27.900  17.773  1.00  0.00     0.144 A
HETATM   14  S1  UNL     1      -9.518 -31.424  19.395  1.00  0.00    -0.058 SA
HETATM   15  N6  UNL     1     -11.139 -29.993  17.979  1.00  0.00    -0.341 N
HETATM   16  C11 UNL     1     -11.518 -28.895  17.290  1.00  0.00     0.183 A
ATOM     17  H6  UNL     1     -11.789 -30.775  18.055  1.00  0.00     0.167 HD
HETATM   18  N7  UNL     1     -10.639 -27.903  17.217  1.00  0.00    -0.336 N
ATOM     19  H7  UNL     1     -10.919 -27.071  16.697  1.00  0.00     0.168 HD
ENDBRANCH   4   7
BRANCH   1  20
HETATM   20  N3  UNL     1      -7.441 -21.731  16.341  1.00  0.00    -0.223 NA
HETATM   21  C3  UNL     1      -6.861 -20.805  17.238  1.00  0.00     0.134 C
HETATM   22  C2  UNL     1      -5.379 -20.605  16.879  1.00  0.00     0.138 C
HETATM   23  N2  UNL     1      -5.396 -19.904  15.598  1.00  0.00    -0.362 N
HETATM   24  C1  UNL     1      -6.227 -20.346  14.686  1.00  0.00     0.198 C
ATOM     25  H2  UNL     1      -4.787 -19.106  15.420  1.00  0.00     0.162 HD
HETATM   26  N1  UNL     1      -6.307 -19.720  13.413  1.00  0.00    -0.062 NA
HETATM   27  N8  UNL     1      -7.022 -21.479  15.060  1.00  0.00    -0.292 N
ATOM     28  H8  UNL     1      -7.291 -22.137  14.329  1.00  0.00     0.183 HD
ENDBRANCH   1  20
TORSDOF 2
ENDMDL