MODEL 1
REMARK VINA RESULT: -7.768459700      0.000      0.000
REMARK  3 active torsions:
REMARK  status: ('A' for Active; 'I' for Inactive)
REMARK    1  A    between atoms: C10_18  and  N5_19
REMARK    2  A    between atoms: N5_19  and  C11_21
REMARK    3  A    between atoms: C11_21  and  C12_22
ROOT
HETATM    1  N1  UNL     1     -10.871 -27.415  17.006  1.00  0.00    -0.383 N
ATOM      2  H11 UNL     1     -10.824 -26.397  16.979  1.00  0.00     0.157 HD
ATOM      3  H12 UNL     1     -11.640 -27.904  16.548  1.00  0.00     0.157 HD
HETATM    4  C1  UNL     1      -9.992 -28.131  17.597  1.00  0.00     0.134 A
HETATM    5  C2  UNL     1     -10.055 -29.509  17.634  1.00  0.00     0.035 A
HETATM    6  C3  UNL     1     -11.075 -30.206  17.030  1.00  0.00     0.103 A
HETATM    7  N2  UNL     1     -11.147 -31.548  17.058  1.00  0.00    -0.374 N
ATOM      8  H2  UNL     1     -11.928 -32.009  16.591  1.00  0.00     0.164 HD
HETATM    9  C4  UNL     1     -10.222 -32.310  17.681  1.00  0.00     0.088 A
HETATM   10  C5  UNL     1      -9.188 -31.624  18.294  1.00  0.00     0.029 A
HETATM   11  C6  UNL     1      -9.088 -30.248  18.282  1.00  0.00    -0.017 A
HETATM   12  C7  UNL     1      -8.069 -29.562  18.885  1.00  0.00     0.047 A
HETATM   13  C8  UNL     1      -8.020 -28.185  18.841  1.00  0.00     0.101 A
HETATM   14  C9  UNL     1      -6.976 -27.483  19.459  1.00  0.00     0.160 A
HETATM   15  N3  UNL     1      -6.008 -28.254  20.110  1.00  0.00    -0.080 NA
HETATM   16  N4  UNL     1      -6.981 -26.152  19.384  1.00  0.00    -0.175 N
ATOM     17  H4  UNL     1      -6.219 -25.645  19.836  1.00  0.00     0.185 HD
HETATM   18  C10 UNL     1      -7.927 -25.438  18.750  1.00  0.00     0.694 A
HETATM   19  N6  UNL     1      -8.914 -26.136  18.167  1.00  0.00    -0.123 N
ATOM     20  H6  UNL     1      -9.651 -25.630  17.676  1.00  0.00     0.206 HD
HETATM   21  N7  UNL     1      -8.964 -27.478  18.209  1.00  0.00    -0.222 N
ENDROOT
BRANCH  18  22
HETATM   22  N5  UNL     1      -7.843 -24.163  18.733  1.00  0.00    -0.220 N
ATOM     23  H5  UNL     1      -7.265 -23.726  19.450  1.00  0.00     0.178 HD
BRANCH  22  24
HETATM   24  C11 UNL     1      -8.486 -23.297  17.801  1.00  0.00     0.184 C
BRANCH  24  25
HETATM   25  C12 UNL     1      -7.476 -22.747  16.832  1.00  0.00     0.001 A
HETATM   26  C13 UNL     1      -7.016 -23.300  15.662  1.00  0.00     0.017 A
HETATM   27  C14 UNL     1      -6.107 -22.603  14.973  1.00  0.00     0.008 A
HETATM   28  C15 UNL     1      -5.708 -21.400  15.487  1.00  0.00     0.050 A
HETATM   29  S1  UNL     1      -6.620 -21.280  16.925  1.00  0.00    -0.105 SA
ENDBRANCH  24  25
ENDBRANCH  22  24
ENDBRANCH  18  22
TORSDOF 3
ENDMDL