MODEL 5
REMARK VINA RESULT: -6.803281063      1.775      3.088
REMARK  10 active torsions:
REMARK  status: ('A' for Active; 'I' for Inactive)
REMARK    1  A    between atoms: C2_2  and  C3_3
REMARK    2  A    between atoms: C5_5  and  C6_6
REMARK    3  A    between atoms: C6_6  and  C7_7
REMARK    4  A    between atoms: C7_7  and  C8_8
REMARK    5  A    between atoms: C14_14  and  O1_15
REMARK    6  A    between atoms: O1_15  and  C15_16
REMARK    7  A    between atoms: C15_16  and  C16_17
REMARK    8  A    between atoms: C16_17  and  C17_18
REMARK    9  A    between atoms: C17_18  and  C18_19
REMARK   10  A    between atoms: C18_19  and  O2_20
ROOT
HETATM    1  C8  UNL     1      21.017  34.181  59.102  1.00  0.00    -0.024 A
HETATM    2  C9  UNL     1      22.195  34.085  59.803  1.00  0.00     0.010 A
HETATM    3  C10 UNL     1      23.428  34.166  59.220  1.00  0.00     0.001 A
HETATM    4  C11 UNL     1      23.496  34.353  57.876  1.00  0.00     0.009 A
HETATM    5  C12 UNL     1      22.308  34.453  57.134  1.00  0.00    -0.028 A
HETATM    6  C13 UNL     1      22.513  34.652  55.687  1.00  0.00     0.051 C
HETATM    7  C14 UNL     1      21.058  34.372  57.702  1.00  0.00     0.081 A
ENDROOT
BRANCH   1   8
HETATM    8  C7  UNL     1      19.781  34.140  59.900  1.00  0.00     0.045 C
BRANCH   8   9
HETATM    9  C6  UNL     1      19.176  35.522  60.082  1.00  0.00     0.032 C
BRANCH   9  10
HETATM   10  C5  UNL     1      17.716  35.434  59.823  1.00  0.00    -0.024 C
HETATM   11  C3  UNL     1      17.062  36.065  58.876  1.00  0.00    -0.088 C
HETATM   12  C4  UNL     1      15.565  35.848  58.770  1.00  0.00     0.043 C
BRANCH  11  13
HETATM   13  C2  UNL     1      17.632  36.988  57.872  1.00  0.00     0.029 C
HETATM   14  C1  UNL     1      16.704  37.230  56.690  1.00  0.00     0.010 C
ENDBRANCH  11  13
ENDBRANCH   9  10
ENDBRANCH   8   9
ENDBRANCH   1   8
BRANCH   7  15
HETATM   15  O1  UNL     1      19.916  34.450  57.064  1.00  0.00    -0.350 OA
BRANCH  15  16
HETATM   16  C15 UNL     1      19.089  34.156  56.089  1.00  0.00     0.176 C
BRANCH  16  17
HETATM   17  C16 UNL     1      17.723  33.616  56.178  1.00  0.00     0.029 C
BRANCH  17  18
HETATM   18  C17 UNL     1      17.369  32.808  57.387  1.00  0.00     0.028 C
BRANCH  18  19
HETATM   19  C18 UNL     1      15.921  32.329  57.342  1.00  0.00     0.164 C
BRANCH  19  20
HETATM   20  O2  UNL     1      15.821  30.998  56.976  1.00  0.00    -0.401 OA
ATOM     21  H2  UNL     1      16.478  30.458  57.400  1.00  0.00     0.209 HD
ENDBRANCH  19  20
ENDBRANCH  18  19
ENDBRANCH  17  18
ENDBRANCH  16  17
ENDBRANCH  15  16
ENDBRANCH   7  15
TORSDOF 10
ENDMDL