MODEL 5
REMARK VINA RESULT: -6.881202389      1.838      2.003
REMARK  9 active torsions:
REMARK  status: ('A' for Active; 'I' for Inactive)
REMARK    1  A    between atoms: O1_2  and  C2_3
REMARK    2  A    between atoms: C9_10  and  C10_11
REMARK    3  A    between atoms: C10_11  and  C11_12
REMARK    4  A    between atoms: C11_12  and  C12_13
REMARK    5  A    between atoms: C12_13  and  C13_14
REMARK    6  A    between atoms: C13_14  and  C14_15
REMARK    7  A    between atoms: C14_15  and  C15_16
REMARK    8  A    between atoms: C15_16  and  C16_17
REMARK    9  A    between atoms: C16_17  and  O2_20
ROOT
HETATM    1  C10 UNL     1      17.104  35.319  59.160  1.00  0.00     0.041 C
ENDROOT
BRANCH   1   2
HETATM    2  C9  UNL     1      17.594  35.105  57.769  1.00  0.00    -0.024 A
HETATM    3  C2  UNL     1      17.610  33.877  57.161  1.00  0.00     0.075 A
HETATM    4  C3  UNL     1      18.077  33.773  55.874  1.00  0.00     0.044 A
HETATM    5  C4  UNL     1      18.540  34.857  55.146  1.00  0.00    -0.053 A
HETATM    6  C5  UNL     1      19.043  34.730  53.757  1.00  0.00     0.049 C
HETATM    7  C6  UNL     1      18.513  36.076  55.781  1.00  0.00    -0.055 A
HETATM    8  C7  UNL     1      19.007  37.270  55.027  1.00  0.00     0.049 C
HETATM    9  C8  UNL     1      18.050  36.194  57.066  1.00  0.00     0.017 A
BRANCH   3  10
HETATM   10  O1  UNL     1      17.158  32.758  57.839  1.00  0.00    -0.355 OA
HETATM   11  C1  UNL     1      16.071  32.000  57.324  1.00  0.00     0.210 C
ENDBRANCH   3  10
ENDBRANCH   1   2
BRANCH   1  12
HETATM   12  C11 UNL     1      18.104  36.091  59.966  1.00  0.00     0.005 C
BRANCH  12  13
HETATM   13  C12 UNL     1      19.037  35.217  60.745  1.00  0.00     0.000 C
BRANCH  13  14
HETATM   14  C13 UNL     1      20.192  35.976  61.383  1.00  0.00     0.000 C
BRANCH  14  15
HETATM   15  C14 UNL     1      21.478  35.239  61.370  1.00  0.00     0.003 C
BRANCH  15  16
HETATM   16  C15 UNL     1      21.743  34.272  60.293  1.00  0.00     0.037 C
BRANCH  16  17
HETATM   17  C16 UNL     1      22.397  34.711  59.048  1.00  0.00     0.051 C
HETATM   18  C17 UNL     1      21.338  34.550  57.928  1.00  0.00     0.045 C
HETATM   19  C18 UNL     1      23.591  33.971  58.556  1.00  0.00     0.045 C
BRANCH  17  20
HETATM   20  O2  UNL     1      22.719  36.076  59.049  1.00  0.00    -0.391 OA
ATOM     21  H2  UNL     1      22.274  36.563  58.367  1.00  0.00     0.210 HD
ENDBRANCH  17  20
ENDBRANCH  16  17
ENDBRANCH  15  16
ENDBRANCH  14  15
ENDBRANCH  13  14
ENDBRANCH  12  13
ENDBRANCH   1  12
TORSDOF 9
ENDMDL