MODEL 3
REMARK VINA RESULT: -6.733223443      1.602      3.540
REMARK  10 active torsions:
REMARK  status: ('A' for Active; 'I' for Inactive)
REMARK    1  A    between atoms: C2_2  and  C3_3
REMARK    2  A    between atoms: C3_3  and  C4_4
REMARK    3  A    between atoms: C6_6  and  C7_7
REMARK    4  A    between atoms: C10_10  and  C11_11
REMARK    5  A    between atoms: C11_11  and  O1_12
REMARK    6  A    between atoms: O1_12  and  C12_13
REMARK    7  A    between atoms: C12_13  and  C14_15
REMARK    8  A    between atoms: C14_15  and  O2_16
REMARK    9  A    between atoms: C14_15  and  C15_18
REMARK   10  A    between atoms: C15_18  and  C16_19
ROOT
HETATM    1  C4  UNL     1      21.951  34.211  57.274  1.00  0.00    -0.057 A
HETATM    2  C5  UNL     1      21.813  34.005  58.641  1.00  0.00     0.014 A
HETATM    3  C6  UNL     1      20.660  34.289  59.330  1.00  0.00    -0.057 A
HETATM    4  C9  UNL     1      19.605  34.804  58.602  1.00  0.00     0.016 A
HETATM    5  C10 UNL     1      19.666  35.035  57.243  1.00  0.00    -0.034 A
HETATM    6  C18 UNL     1      20.863  34.726  56.598  1.00  0.00     0.016 A
ENDROOT
BRANCH   5   7
HETATM    7  C11 UNL     1      18.504  35.590  56.502  1.00  0.00     0.207 C
BRANCH   7   8
HETATM    8  O1  UNL     1      17.901  36.548  57.285  1.00  0.00    -0.379 OA
BRANCH   8   9
HETATM    9  C12 UNL     1      16.527  36.514  57.263  1.00  0.00     0.146 C
HETATM   10  C13 UNL     1      15.970  35.835  56.033  1.00  0.00     0.042 C
BRANCH   9  11
HETATM   11  C14 UNL     1      16.075  35.671  58.461  1.00  0.00     0.146 C
BRANCH  11  12
HETATM   12  O2  UNL     1      15.070  36.370  59.093  1.00  0.00    -0.393 OA
ATOM     13  H2  UNL     1      14.283  36.261  58.572  1.00  0.00     0.210 HD
ENDBRANCH  11  12
BRANCH  11  14
HETATM   14  C15 UNL     1      15.501  34.387  57.892  1.00  0.00     0.034 C
BRANCH  14  15
HETATM   15  C16 UNL     1      16.192  33.221  58.562  1.00  0.00    -0.002 C
HETATM   16  C17 UNL     1      16.619  32.171  57.571  1.00  0.00     0.005 C
ENDBRANCH  14  15
ENDBRANCH  11  14
ENDBRANCH   9  11
ENDBRANCH   8   9
ENDBRANCH   7   8
ENDBRANCH   5   7
BRANCH   3  17
HETATM   17  C7  UNL     1      20.543  34.061  60.776  1.00  0.00     0.034 C
HETATM   18  C8  UNL     1      21.538  34.810  61.594  1.00  0.00     0.010 C
ENDBRANCH   3  17
BRANCH   1  19
HETATM   19  C3  UNL     1      23.227  33.878  56.608  1.00  0.00     0.038 C
BRANCH  19  20
HETATM   20  C2  UNL     1      23.042  33.700  55.108  1.00  0.00     0.000 C
HETATM   21  C1  UNL     1      24.143  34.421  54.343  1.00  0.00     0.005 C
ENDBRANCH  19  20
ENDBRANCH   1  19
TORSDOF 10
ENDMDL