MODEL 4
REMARK VINA RESULT: -6.599423517      2.429      4.805
REMARK  9 active torsions:
REMARK  status: ('A' for Active; 'I' for Inactive)
REMARK    1  A    between atoms: C2_2  and  C3_3
REMARK    2  A    between atoms: C3_3  and  C4_4
REMARK    3  A    between atoms: C6_6  and  C7_7
REMARK    4  A    between atoms: C7_7  and  O1_8
REMARK    5  A    between atoms: C7_7  and  C8_10
REMARK    6  A    between atoms: C11_13  and  O2_14
REMARK    7  A    between atoms: O2_14  and  C12_15
REMARK    8  A    between atoms: C14_17  and  C15_18
REMARK    9  A    between atoms: C16_19  and  C17_20
ROOT
HETATM    1  C4  UNL     1      19.173  35.028  59.111  1.00  0.00    -0.041 A
HETATM    2  C5  UNL     1      17.864  35.516  58.623  1.00  0.00     0.022 A
HETATM    3  C6  UNL     1      17.711  35.648  57.225  1.00  0.00     0.000 A
HETATM    4  C10 UNL     1      18.755  35.310  56.424  1.00  0.00     0.052 A
HETATM    5  C11 UNL     1      19.991  34.838  56.902  1.00  0.00     0.080 A
HETATM    6  C14 UNL     1      20.123  34.736  58.254  1.00  0.00     0.004 A
ENDROOT
BRANCH   3   7
HETATM    7  C7  UNL     1      16.562  36.231  56.786  1.00  0.00     0.075 C
BRANCH   7   8
HETATM    8  O1  UNL     1      15.350  35.517  56.881  1.00  0.00    -0.360 OA
ATOM      9  H1  UNL     1      14.535  35.958  56.672  1.00  0.00     0.217 HD
ENDBRANCH   7   8
BRANCH   7  10
HETATM   10  C8  UNL     1      16.132  37.531  56.181  1.00  0.00     0.027 C
HETATM   11  C9  UNL     1      16.688  38.646  56.080  1.00  0.00     0.014 C
ENDBRANCH   7  10
ENDBRANCH   3   7
BRANCH   1  12
HETATM   12  C3  UNL     1      19.164  34.719  60.550  1.00  0.00     0.066 C
BRANCH  12  13
HETATM   13  C2  UNL     1      19.435  35.862  61.431  1.00  0.00    -0.032 C
HETATM   14  C1  UNL     1      20.449  36.346  62.019  1.00  0.00     0.007 C
ENDBRANCH  12  13
ENDBRANCH   1  12
BRANCH   5  15
HETATM   15  O2  UNL     1      21.024  34.493  56.002  1.00  0.00    -0.351 OA
BRANCH  15  16
HETATM   16  C12 UNL     1      21.375  35.574  55.102  1.00  0.00     0.171 C
HETATM   17  C13 UNL     1      22.554  36.342  55.752  1.00  0.00     0.034 C
ENDBRANCH  15  16
ENDBRANCH   5  15
BRANCH   6  18
HETATM   18  C15 UNL     1      21.524  34.367  58.709  1.00  0.00     0.011 C
HETATM   19  C16 UNL     1      22.510  34.902  59.278  1.00  0.00    -0.026 C
BRANCH  19  20
HETATM   20  C17 UNL     1      23.742  34.000  59.469  1.00  0.00     0.022 C
HETATM   21  C18 UNL     1      23.878  33.038  58.318  1.00  0.00     0.009 C
ENDBRANCH  19  20
ENDBRANCH   6  18
TORSDOF 9
ENDMDL