MODEL 5
REMARK VINA RESULT: -6.644898643      3.141      4.600
REMARK  7 active torsions:
REMARK  status: ('A' for Active; 'I' for Inactive)
REMARK    1  A    between atoms: C2_2  and  C3_3
REMARK    2  A    between atoms: C3_3  and  C4_4
REMARK    3  A    between atoms: C4_4  and  C5_5
REMARK    4  A    between atoms: C6_7  and  C7_8
REMARK    5  A    between atoms: C6_7  and  O2_10
REMARK    6  A    between atoms: O2_10  and  C9_11
REMARK    7  A    between atoms: C9_11  and  C10_12
ROOT
HETATM    1  O2  UNL     1      19.389  35.989  54.369  1.00  0.00    -0.350 OA
ENDROOT
BRANCH   1   2
HETATM    2  C6  UNL     1      19.961  37.049  53.759  1.00  0.00     0.055 C
HETATM    3  C4  UNL     1      20.167  37.138  52.438  1.00  0.00     0.009 C
BRANCH   3   4
HETATM    4  C3  UNL     1      20.833  38.314  51.811  1.00  0.00     0.044 C
BRANCH   4   5
HETATM    5  C2  UNL     1      22.021  37.939  50.952  1.00  0.00     0.000 C
HETATM    6  C1  UNL     1      22.144  38.969  49.834  1.00  0.00     0.005 C
ENDBRANCH   4   5
ENDBRANCH   3   4
BRANCH   3   7
HETATM    7  C5  UNL     1      19.662  36.091  51.561  1.00  0.00     0.268 C
HETATM    8  O1  UNL     1      18.914  36.339  50.563  1.00  0.00    -0.302 OA
ENDBRANCH   3   7
BRANCH   2   9
HETATM    9  C7  UNL     1      20.389  38.159  54.679  1.00  0.00     0.061 C
HETATM   10  C8  UNL     1      21.831  37.913  55.122  1.00  0.00     0.012 C
ENDBRANCH   2   9
ENDBRANCH   1   2
BRANCH   1  11
HETATM   11  C9  UNL     1      19.711  34.744  54.781  1.00  0.00     0.215 C
BRANCH  11  12
HETATM   12  C10 UNL     1      20.847  34.561  55.710  1.00  0.00    -0.022 A
HETATM   13  C11 UNL     1      22.087  34.151  55.334  1.00  0.00    -0.053 A
HETATM   14  C12 UNL     1      22.438  34.104  53.908  1.00  0.00     0.049 C
HETATM   15  C13 UNL     1      23.093  33.825  56.268  1.00  0.00     0.014 A
HETATM   16  C14 UNL     1      22.853  33.912  57.613  1.00  0.00    -0.061 A
HETATM   17  C15 UNL     1      23.914  33.548  58.597  1.00  0.00     0.048 C
HETATM   18  C16 UNL     1      21.594  34.332  58.011  1.00  0.00     0.014 A
HETATM   19  C17 UNL     1      20.607  34.652  57.086  1.00  0.00    -0.053 A
HETATM   20  C18 UNL     1      19.285  35.102  57.604  1.00  0.00     0.049 C
ENDBRANCH  11  12
ENDBRANCH   1  11
TORSDOF 7
ENDMDL