MODEL 5
REMARK VINA RESULT: -6.321743109      1.984      3.592
REMARK  10 active torsions:
REMARK  status: ('A' for Active; 'I' for Inactive)
REMARK    1  A    between atoms: C2_2  and  C3_3
REMARK    2  A    between atoms: C3_3  and  C4_4
REMARK    3  A    between atoms: C4_4  and  C5_5
REMARK    4  A    between atoms: C5_5  and  C6_6
REMARK    5  A    between atoms: C6_6  and  C7_7
REMARK    6  A    between atoms: C7_7  and  C8_9
REMARK    7  A    between atoms: C8_9  and  C9_10
REMARK    8  A    between atoms: C9_10  and  O2_11
REMARK    9  A    between atoms: C9_10  and  C10_13
REMARK   10  A    between atoms: C10_13  and  C11_14
ROOT
HETATM    1  C9  UNL     1      16.579  36.091  58.952  1.00  0.00     0.129 C
ENDROOT
BRANCH   1   2
HETATM    2  C8  UNL     1      17.033  36.743  57.683  1.00  0.00     0.110 C
BRANCH   2   3
HETATM    3  C7  UNL     1      16.334  36.143  56.529  1.00  0.00     0.129 C
HETATM    4  O1  UNL     1      15.230  36.523  56.219  1.00  0.00    -0.298 OA
BRANCH   3   5
HETATM    5  C6  UNL     1      16.977  35.058  55.723  1.00  0.00     0.078 C
BRANCH   5   6
HETATM    6  C5  UNL     1      18.460  35.430  55.679  1.00  0.00     0.007 C
BRANCH   6   7
HETATM    7  C4  UNL     1      19.310  34.213  55.464  1.00  0.00     0.000 C
BRANCH   7   8
HETATM    8  C3  UNL     1      20.759  34.603  55.568  1.00  0.00    -0.000 C
BRANCH   8   9
HETATM    9  C2  UNL     1      21.619  33.736  54.704  1.00  0.00    -0.005 C
HETATM   10  C1  UNL     1      23.034  33.698  55.265  1.00  0.00     0.005 C
ENDBRANCH   8   9
ENDBRANCH   7   8
ENDBRANCH   6   7
ENDBRANCH   5   6
ENDBRANCH   3   5
ENDBRANCH   2   3
ENDBRANCH   1   2
BRANCH   1  11
HETATM   11  O2  UNL     1      15.165  35.857  58.840  1.00  0.00    -0.395 OA
ATOM     12  H2  UNL     1      14.982  35.008  59.225  1.00  0.00     0.210 HD
ENDBRANCH   1  11
BRANCH   1  13
HETATM   13  C10 UNL     1      17.243  34.759  59.149  1.00  0.00     0.070 C
BRANCH  13  14
HETATM   14  C11 UNL     1      18.574  34.949  59.763  1.00  0.00    -0.055 A
HETATM   15  C12 UNL     1      18.867  35.713  60.846  1.00  0.00     0.013 A
HETATM   16  C13 UNL     1      20.153  35.845  61.356  1.00  0.00    -0.061 A
HETATM   17  C14 UNL     1      20.430  36.694  62.545  1.00  0.00     0.048 C
HETATM   18  C15 UNL     1      21.171  35.167  60.730  1.00  0.00     0.013 A
HETATM   19  C16 UNL     1      20.916  34.372  59.616  1.00  0.00    -0.061 A
HETATM   20  C17 UNL     1      22.024  33.629  58.929  1.00  0.00     0.048 C
HETATM   21  C18 UNL     1      19.626  34.267  59.142  1.00  0.00     0.013 A
ENDBRANCH  13  14
ENDBRANCH   1  13
TORSDOF 10
ENDMDL