MODEL 3
REMARK VINA RESULT: -8.727018302      2.323      2.988
REMARK  5 active torsions:
REMARK  status: ('A' for Active; 'I' for Inactive)
REMARK    1  A    between atoms: C2_2  and  C5_5
REMARK    2  A    between atoms: C6_10  and  O1_11
REMARK    3  A    between atoms: C7_13  and  C8_14
REMARK    4  A    between atoms: C8_14  and  C9_15
REMARK    5  A    between atoms: C9_15  and  C10_16
ROOT
HETATM    1  C10 UNL     1      20.707  36.644  55.336  1.00  0.00     0.123 A
HETATM    2  N3  UNL     1      19.590  37.218  54.777  1.00  0.00    -0.284 N
ATOM      3  H3  UNL     1      18.628  36.930  54.953  1.00  0.00     0.188 HD
HETATM    4  N4  UNL     1      19.954  38.191  53.984  1.00  0.00    -0.285 N
ATOM      5  H4  UNL     1      19.316  38.778  53.447  1.00  0.00     0.188 HD
HETATM    6  C11 UNL     1      21.288  38.303  53.981  1.00  0.00     0.136 A
HETATM    7  N5  UNL     1      21.745  37.356  54.805  1.00  0.00    -0.317 N
HETATM    8  C12 UNL     1      23.159  37.194  54.994  1.00  0.00     0.159 C
HETATM    9  C13 UNL     1      23.955  38.041  54.074  1.00  0.00     0.254 C
HETATM   10  N6  UNL     1      23.450  39.341  53.828  1.00  0.00    -0.058 N
ATOM     11  H61 UNL     1      24.090  39.887  53.251  1.00  0.00     0.278 HD
ATOM     12  H62 UNL     1      23.469  39.914  54.671  1.00  0.00     0.278 HD
HETATM   13  C14 UNL     1      22.111  39.293  53.242  1.00  0.00     0.184 C
HETATM   14  C15 UNL     1      21.513  40.667  53.425  1.00  0.00     0.047 C
HETATM   15  C16 UNL     1      21.402  41.356  52.062  1.00  0.00     0.003 C
HETATM   16  C17 UNL     1      20.452  40.518  51.241  1.00  0.00     0.000 C
HETATM   17  C18 UNL     1      21.107  39.209  50.942  1.00  0.00     0.003 C
HETATM   18  C19 UNL     1      22.292  38.900  51.797  1.00  0.00     0.047 C
ENDROOT
BRANCH   1  19
HETATM   19  C9  UNL     1      20.663  35.531  56.268  1.00  0.00     0.051 C
BRANCH  19  20
HETATM   20  C8  UNL     1      19.651  34.869  56.707  1.00  0.00     0.022 C
BRANCH  20  21
HETATM   21  C7  UNL     1      19.272  34.687  58.101  1.00  0.00     0.041 A
HETATM   22  C5  UNL     1      18.040  35.060  58.655  1.00  0.00     0.048 A
HETATM   23  N1  UNL     1      18.090  34.728  59.945  1.00  0.00    -0.301 N
HETATM   24  N2  UNL     1      19.236  34.188  60.230  1.00  0.00    -0.279 N
ATOM     25  H1  UNL     1      17.334  34.876  60.614  1.00  0.00     0.186 HD
HETATM   26  C6  UNL     1      20.021  34.138  59.107  1.00  0.00     0.167 A
ATOM     27  H2  UNL     1      19.512  33.851  61.153  1.00  0.00     0.189 HD
BRANCH  22  28
HETATM   28  C2  UNL     1      16.952  35.683  57.917  1.00  0.00    -0.006 C
HETATM   29  C1  UNL     1      15.736  35.778  58.844  1.00  0.00     0.021 C
HETATM   30  C3  UNL     1      16.504  34.819  56.735  1.00  0.00     0.021 C
HETATM   31  C4  UNL     1      17.249  37.100  57.475  1.00  0.00     0.021 C
ENDBRANCH  22  28
BRANCH  26  32
HETATM   32  O1  UNL     1      21.317  33.611  59.088  1.00  0.00    -0.344 OA
ATOM     33  H1  UNL     1      21.933  33.702  59.804  1.00  0.00     0.219 HD
ENDBRANCH  26  32
ENDBRANCH  20  21
ENDBRANCH  19  20
ENDBRANCH   1  19
TORSDOF 5
ENDMDL