MODEL 4
REMARK VINA RESULT: -7.104932815      2.407      6.269
REMARK  9 active torsions:
REMARK  status: ('A' for Active; 'I' for Inactive)
REMARK    1  A    between atoms: C2_2  and  C3_3
REMARK    2  A    between atoms: C3_3  and  C6_6
REMARK    3  A    between atoms: C6_6  and  C7_7
REMARK    4  A    between atoms: C7_7  and  O1_8
REMARK    5  A    between atoms: C7_7  and  C8_10
REMARK    6  A    between atoms: C8_10  and  C9_11
REMARK    7  A    between atoms: C9_11  and  C10_12
REMARK    8  A    between atoms: C10_12  and  O2_13
REMARK    9  A    between atoms: O2_13  and  C11_14
ROOT
HETATM    1  C9  UNL     1      22.473  34.105  59.661  1.00  0.00     0.029 C
ENDROOT
BRANCH   1   2
HETATM    2  C8  UNL     1      22.610  35.491  59.077  1.00  0.00     0.034 C
BRANCH   2   3
HETATM    3  C7  UNL     1      23.201  35.475  57.687  1.00  0.00     0.122 C
BRANCH   3   4
HETATM    4  C6  UNL     1      22.848  34.151  57.069  1.00  0.00     0.070 C
BRANCH   4   5
HETATM    5  C3  UNL     1      21.951  34.192  55.921  1.00  0.00    -0.061 C
HETATM    6  C4  UNL     1      20.690  34.543  55.998  1.00  0.00    -0.024 C
HETATM    7  C5  UNL     1      19.864  34.565  54.745  1.00  0.00     0.036 C
BRANCH   5   8
HETATM    8  C2  UNL     1      22.508  33.833  54.617  1.00  0.00    -0.004 C
HETATM    9  C1  UNL     1      23.729  34.186  54.279  1.00  0.00     0.012 C
ENDBRANCH   5   8
ENDBRANCH   4   5
ENDBRANCH   3   4
BRANCH   3  10
HETATM   10  O1  UNL     1      24.584  35.595  57.709  1.00  0.00    -0.395 OA
ATOM     11  H1  UNL     1      24.948  34.994  57.070  1.00  0.00     0.210 HD
ENDBRANCH   3  10
ENDBRANCH   2   3
ENDBRANCH   1   2
BRANCH   1  12
HETATM   12  C10 UNL     1      21.898  34.089  61.032  1.00  0.00     0.175 C
BRANCH  12  13
HETATM   13  O2  UNL     1      20.540  33.876  61.002  1.00  0.00    -0.351 OA
BRANCH  13  14
HETATM   14  C11 UNL     1      19.512  34.278  60.224  1.00  0.00     0.075 A
HETATM   15  C12 UNL     1      18.964  33.592  59.170  1.00  0.00     0.044 A
HETATM   16  C13 UNL     1      17.900  34.068  58.404  1.00  0.00    -0.059 A
HETATM   17  C14 UNL     1      17.342  33.282  57.269  1.00  0.00     0.048 C
HETATM   18  C15 UNL     1      17.389  35.300  58.747  1.00  0.00     0.007 A
HETATM   19  C16 UNL     1      17.928  35.999  59.800  1.00  0.00     0.010 A
HETATM   20  C17 UNL     1      18.971  35.535  60.553  1.00  0.00    -0.029 A
HETATM   21  C18 UNL     1      19.520  36.338  61.690  1.00  0.00     0.051 C
ENDBRANCH  13  14
ENDBRANCH  12  13
ENDBRANCH   1  12
TORSDOF 9
ENDMDL