MODEL 1
REMARK VINA RESULT: -6.714892996      0.000      0.000
REMARK  9 active torsions:
REMARK  status: ('A' for Active; 'I' for Inactive)
REMARK    1  A    between atoms: C2_2  and  C3_3
REMARK    2  A    between atoms: C4_4  and  C5_5
REMARK    3  A    between atoms: C4_4  and  C8_8
REMARK    4  A    between atoms: C5_5  and  C6_6
REMARK    5  A    between atoms: C10_10  and  C11_11
REMARK    6  A    between atoms: C11_11  and  C12_12
REMARK    7  A    between atoms: C11_11  and  O2_15
REMARK    8  A    between atoms: C12_12  and  O1_13
REMARK    9  A    between atoms: O2_15  and  C13_16
ROOT
HETATM    1  C8  UNL     1      19.694  34.877  58.677  1.00  0.00    -0.024 A
HETATM    2  C9  UNL     1      20.813  34.739  57.814  1.00  0.00     0.022 A
HETATM    3  C10 UNL     1      22.120  34.946  58.225  1.00  0.00    -0.026 A
HETATM    4  C15 UNL     1      22.289  35.300  59.547  1.00  0.00     0.010 A
HETATM    5  C16 UNL     1      21.220  35.440  60.419  1.00  0.00     0.008 A
HETATM    6  C17 UNL     1      19.885  35.219  59.964  1.00  0.00    -0.051 A
HETATM    7  C18 UNL     1      18.849  35.234  61.002  1.00  0.00     0.049 C
ENDROOT
BRANCH   1   8
HETATM    8  C4  UNL     1      18.311  34.818  58.050  1.00  0.00    -0.051 C
HETATM    9  C3  UNL     1      17.897  36.125  57.589  1.00  0.00    -0.019 C
BRANCH   9  10
HETATM   10  C2  UNL     1      16.627  36.814  57.575  1.00  0.00     0.023 C
HETATM   11  C1  UNL     1      15.718  36.473  56.412  1.00  0.00     0.009 C
ENDBRANCH   9  10
BRANCH   8  12
HETATM   12  C5  UNL     1      17.792  33.498  57.743  1.00  0.00     0.039 C
BRANCH  12  13
HETATM   13  C6  UNL     1      16.314  33.257  58.059  1.00  0.00     0.000 C
HETATM   14  C7  UNL     1      15.917  33.672  59.443  1.00  0.00     0.005 C
ENDBRANCH  12  13
ENDBRANCH   8  12
ENDBRANCH   1   8
BRANCH   3  15
HETATM   15  C11 UNL     1      23.254  34.854  57.274  1.00  0.00     0.177 C
BRANCH  15  16
HETATM   16  C12 UNL     1      23.441  36.099  56.433  1.00  0.00     0.201 C
BRANCH  16  17
HETATM   17  O1  UNL     1      24.201  37.017  57.144  1.00  0.00    -0.398 OA
ATOM     18  H1  UNL     1      24.243  37.831  56.656  1.00  0.00     0.209 HD
ENDBRANCH  16  17
ENDBRANCH  15  16
BRANCH  15  19
HETATM   19  O2  UNL     1      23.041  33.779  56.428  1.00  0.00    -0.379 OA
BRANCH  19  20
HETATM   20  C13 UNL     1      23.223  34.081  55.092  1.00  0.00     0.164 C
HETATM   21  C14 UNL     1      22.008  33.484  54.375  1.00  0.00     0.033 C
ENDBRANCH  19  20
ENDBRANCH  15  19
ENDBRANCH   3  15
TORSDOF 9
ENDMDL