MODEL 5
REMARK VINA RESULT: -6.518499423      2.058      4.997
REMARK  9 active torsions:
REMARK  status: ('A' for Active; 'I' for Inactive)
REMARK    1  A    between atoms: C2_2  and  C3_3
REMARK    2  A    between atoms: C3_3  and  C6_6
REMARK    3  A    between atoms: C6_6  and  C7_7
REMARK    4  A    between atoms: C7_7  and  C8_8
REMARK    5  A    between atoms: C8_8  and  C9_9
REMARK    6  A    between atoms: C9_9  and  C10_10
REMARK    7  A    between atoms: C9_9  and  C13_15
REMARK    8  A    between atoms: C10_10  and  O2_12
REMARK    9  A    between atoms: O2_12  and  C11_13
ROOT
HETATM    1  C9  UNL     1      18.911  34.074  58.201  1.00  0.00     0.089 C
ENDROOT
BRANCH   1   2
HETATM    2  C8  UNL     1      18.982  35.398  57.487  1.00  0.00     0.015 C
BRANCH   2   3
HETATM    3  C7  UNL     1      20.141  35.550  56.543  1.00  0.00     0.005 C
BRANCH   3   4
HETATM    4  C6  UNL     1      20.882  34.241  56.391  1.00  0.00     0.038 C
BRANCH   4   5
HETATM    5  C3  UNL     1      22.328  34.336  56.257  1.00  0.00    -0.063 C
HETATM    6  C4  UNL     1      22.820  34.469  55.022  1.00  0.00    -0.024 C
HETATM    7  C5  UNL     1      24.289  34.543  54.816  1.00  0.00     0.036 C
BRANCH   5   8
HETATM    8  C2  UNL     1      23.248  34.267  57.356  1.00  0.00    -0.004 C
HETATM    9  C1  UNL     1      23.501  33.277  58.156  1.00  0.00     0.012 C
ENDBRANCH   5   8
ENDBRANCH   4   5
ENDBRANCH   3   4
ENDBRANCH   2   3
ENDBRANCH   1   2
BRANCH   1  10
HETATM   10  C10 UNL     1      17.684  33.401  57.831  1.00  0.00     0.263 C
HETATM   11  O1  UNL     1      17.432  33.144  56.622  1.00  0.00    -0.265 OA
BRANCH  10  12
HETATM   12  O2  UNL     1      16.670  32.956  58.654  1.00  0.00    -0.322 OA
BRANCH  12  13
HETATM   13  C11 UNL     1      15.831  33.744  59.443  1.00  0.00     0.174 C
HETATM   14  C12 UNL     1      15.447  35.057  58.860  1.00  0.00     0.034 C
ENDBRANCH  12  13
ENDBRANCH  10  12
ENDBRANCH   1  10
BRANCH   1  15
HETATM   15  C13 UNL     1      19.187  34.288  59.634  1.00  0.00    -0.001 C
HETATM   16  C14 UNL     1      20.551  34.008  60.140  1.00  0.00     0.005 C
HETATM   17  C15 UNL     1      21.333  35.283  60.522  1.00  0.00     0.000 C
HETATM   18  C16 UNL     1      20.674  36.020  61.632  1.00  0.00     0.000 C
HETATM   19  C17 UNL     1      19.190  35.926  61.501  1.00  0.00     0.000 C
HETATM   20  C18 UNL     1      18.871  35.718  60.006  1.00  0.00     0.005 C
ENDBRANCH   1  15
TORSDOF 9
ENDMDL