MODEL 5
REMARK VINA RESULT: -6.667466779      3.455      5.366
REMARK  10 active torsions:
REMARK  status: ('A' for Active; 'I' for Inactive)
REMARK    1  A    between atoms: C2_2  and  C3_3
REMARK    2  A    between atoms: C3_3  and  C4_4
REMARK    3  A    between atoms: C4_4  and  C5_5
REMARK    4  A    between atoms: C9_9  and  C10_10
REMARK    5  A    between atoms: C10_10  and  C11_11
REMARK    6  A    between atoms: C11_11  and  C12_12
REMARK    7  A    between atoms: C12_12  and  O1_13
REMARK    8  A    between atoms: C13_15  and  C14_16
REMARK    9  A    between atoms: C14_16  and  C15_17
REMARK   10  A    between atoms: C15_17  and  O2_20
ROOT
HETATM    1  C5  UNL     1      19.049  35.053  57.167  1.00  0.00    -0.057 A
HETATM    2  C6  UNL     1      18.845  36.108  56.346  1.00  0.00     0.014 A
HETATM    3  C7  UNL     1      19.922  36.607  55.611  1.00  0.00    -0.055 A
HETATM    4  C8  UNL     1      19.643  37.778  54.724  1.00  0.00     0.049 C
HETATM    5  C9  UNL     1      21.186  36.064  55.691  1.00  0.00    -0.046 A
HETATM    6  C13 UNL     1      21.343  34.998  56.540  1.00  0.00    -0.048 A
HETATM    7  C18 UNL     1      20.282  34.472  57.292  1.00  0.00     0.014 A
ENDROOT
BRANCH   6   8
HETATM    8  C14 UNL     1      22.653  34.415  56.814  1.00  0.00     0.076 C
BRANCH   8   9
HETATM    9  C15 UNL     1      23.307  34.860  58.092  1.00  0.00     0.054 C
HETATM   10  C16 UNL     1      22.540  35.725  59.003  1.00  0.00     0.045 C
HETATM   11  C17 UNL     1      23.821  33.678  58.897  1.00  0.00     0.045 C
BRANCH   9  12
HETATM   12  O2  UNL     1      24.473  35.569  57.712  1.00  0.00    -0.390 OA
ATOM     13  H2  UNL     1      24.185  36.440  57.467  1.00  0.00     0.210 HD
ENDBRANCH   9  12
ENDBRANCH   8   9
ENDBRANCH   6   8
BRANCH   5  14
HETATM   14  C10 UNL     1      22.253  36.572  54.847  1.00  0.00     0.042 C
BRANCH  14  15
HETATM   15  C11 UNL     1      23.010  37.728  55.523  1.00  0.00     0.030 C
BRANCH  15  16
HETATM   16  C12 UNL     1      24.277  38.059  54.765  1.00  0.00     0.164 C
BRANCH  16  17
HETATM   17  O1  UNL     1      25.403  37.496  55.323  1.00  0.00    -0.401 OA
ATOM     18  H1  UNL     1      25.929  38.118  55.811  1.00  0.00     0.209 HD
ENDBRANCH  16  17
ENDBRANCH  15  16
ENDBRANCH  14  15
ENDBRANCH   5  14
BRANCH   1  19
HETATM   19  C4  UNL     1      17.909  34.513  57.951  1.00  0.00     0.038 C
BRANCH  19  20
HETATM   20  C3  UNL     1      18.255  34.452  59.435  1.00  0.00     0.004 C
BRANCH  20  21
HETATM   21  C2  UNL     1      17.945  35.810  60.031  1.00  0.00    -0.004 C
HETATM   22  C1  UNL     1      18.996  36.186  61.051  1.00  0.00     0.005 C
ENDBRANCH  20  21
ENDBRANCH  19  20
ENDBRANCH   1  19
TORSDOF 10
ENDMDL