MODEL 2
REMARK VINA RESULT: -7.200309691      2.043      4.681
REMARK  7 active torsions:
REMARK  status: ('A' for Active; 'I' for Inactive)
REMARK    1  A    between atoms: C3_3  and  C4_4
REMARK    2  A    between atoms: C3_3  and  C5_6
REMARK    3  A    between atoms: C6_7  and  C7_8
REMARK    4  A    between atoms: C6_7  and  O2_16
REMARK    5  A    between atoms: C7_8  and  C8_9
REMARK    6  A    between atoms: O2_16  and  C15_17
REMARK    7  A    between atoms: C15_17  and  C16_18
ROOT
HETATM    1  C5  UNL     1      18.101  35.259  55.902  1.00  0.00     0.046 C
HETATM    2  C6  UNL     1      18.772  34.402  56.557  1.00  0.00     0.047 C
ENDROOT
BRANCH   2   3
HETATM    3  C7  UNL     1      18.900  34.010  57.944  1.00  0.00     0.070 C
BRANCH   3   4
HETATM    4  C8  UNL     1      19.333  35.132  58.840  1.00  0.00     0.002 C
HETATM    5  C9  UNL     1      18.200  35.714  59.704  1.00  0.00     0.084 C
HETATM    6  C10 UNL     1      18.798  36.112  60.924  1.00  0.00    -0.183 C
HETATM    7  C11 UNL     1      19.491  36.466  62.087  1.00  0.00     0.080 C
HETATM    8  C12 UNL     1      20.940  35.879  61.929  1.00  0.00     0.011 C
HETATM    9  C13 UNL     1      21.271  35.558  60.488  1.00  0.00     0.001 C
HETATM   10  C14 UNL     1      20.500  34.635  59.681  1.00  0.00     0.006 C
ENDBRANCH   3   4
ENDBRANCH   2   3
BRANCH   2  11
HETATM   11  O2  UNL     1      19.642  33.602  55.683  1.00  0.00    -0.355 OA
BRANCH  11  12
HETATM   12  C15 UNL     1      20.648  34.319  54.992  1.00  0.00     0.179 C
BRANCH  12  13
HETATM   13  C16 UNL     1      21.921  34.140  55.789  1.00  0.00     0.002 C
HETATM   14  C17 UNL     1      23.019  33.670  54.877  1.00  0.00     0.011 C
HETATM   15  C18 UNL     1      22.241  35.475  56.436  1.00  0.00     0.011 C
ENDBRANCH  12  13
ENDBRANCH  11  12
ENDBRANCH   2  11
BRANCH   1  16
HETATM   16  C3  UNL     1      17.125  36.280  56.170  1.00  0.00    -0.000 C
HETATM   17  C2  UNL     1      17.573  37.581  56.140  1.00  0.00    -0.017 C
HETATM   18  C1  UNL     1      16.691  38.728  56.373  1.00  0.00     0.037 C
BRANCH  16  19
HETATM   19  C4  UNL     1      15.720  36.189  56.450  1.00  0.00     0.269 C
HETATM   20  O1  UNL     1      15.103  35.386  57.137  1.00  0.00    -0.301 OA
ENDBRANCH  16  19
ENDBRANCH   1  16
TORSDOF 7
ENDMDL