MODEL 4
REMARK VINA RESULT: -6.684572768      1.806      4.292
REMARK  10 active torsions:
REMARK  status: ('A' for Active; 'I' for Inactive)
REMARK    1  A    between atoms: C3_3  and  C4_4
REMARK    2  A    between atoms: C3_3  and  C9_11
REMARK    3  A    between atoms: C4_4  and  O2_6
REMARK    4  A    between atoms: O2_6  and  C5_7
REMARK    5  A    between atoms: C5_7  and  C6_8
REMARK    6  A    between atoms: C9_11  and  C15_17
REMARK    7  A    between atoms: C10_12  and  C11_13
REMARK    8  A    between atoms: C11_13  and  C12_14
REMARK    9  A    between atoms: C15_17  and  C16_18
REMARK   10  A    between atoms: C16_18  and  C17_19
ROOT
HETATM    1  C1  UNL     1      19.404  36.489  54.651  1.00  0.00     0.037 C
HETATM    2  C2  UNL     1      20.006  36.085  55.925  1.00  0.00    -0.013 C
HETATM    3  C3  UNL     1      19.691  34.942  56.540  1.00  0.00     0.041 C
ENDROOT
BRANCH   3   4
HETATM    4  C4  UNL     1      18.726  34.055  55.934  1.00  0.00     0.293 C
HETATM    5  O1  UNL     1      19.124  33.123  55.141  1.00  0.00    -0.259 OA
BRANCH   4   6
HETATM    6  O2  UNL     1      17.356  34.049  56.080  1.00  0.00    -0.317 OA
BRANCH   6   7
HETATM    7  C5  UNL     1      16.697  33.316  57.096  1.00  0.00     0.183 C
BRANCH   7   8
HETATM    8  C6  UNL     1      15.777  34.155  57.911  1.00  0.00     0.002 C
HETATM    9  C7  UNL     1      16.126  35.621  57.772  1.00  0.00     0.011 C
HETATM   10  C8  UNL     1      15.913  33.705  59.360  1.00  0.00     0.011 C
ENDBRANCH   7   8
ENDBRANCH   6   7
ENDBRANCH   4   6
ENDBRANCH   3   4
BRANCH   3  11
HETATM   11  C9  UNL     1      20.302  34.688  57.865  1.00  0.00    -0.046 C
HETATM   12  C10 UNL     1      19.575  34.264  58.855  1.00  0.00    -0.018 C
BRANCH  12  13
HETATM   13  C11 UNL     1      20.137  34.003  60.201  1.00  0.00     0.031 C
BRANCH  13  14
HETATM   14  C12 UNL     1      19.686  35.050  61.197  1.00  0.00    -0.019 C
HETATM   15  C13 UNL     1      20.836  35.937  61.587  1.00  0.00     0.010 C
HETATM   16  C14 UNL     1      18.579  35.919  60.667  1.00  0.00     0.010 C
ENDBRANCH  13  14
ENDBRANCH  12  13
BRANCH  11  17
HETATM   17  C15 UNL     1      21.742  34.871  58.050  1.00  0.00     0.039 C
BRANCH  17  18
HETATM   18  C16 UNL     1      22.629  33.949  57.254  1.00  0.00     0.004 C
BRANCH  18  19
HETATM   19  C17 UNL     1      23.548  33.269  58.263  1.00  0.00    -0.004 C
HETATM   20  C18 UNL     1      23.752  34.124  59.484  1.00  0.00     0.005 C
ENDBRANCH  18  19
ENDBRANCH  17  18
ENDBRANCH  11  17
ENDBRANCH   3  11
TORSDOF 10
ENDMDL