MODEL 4
REMARK VINA RESULT: -6.169096031      2.251      4.564
REMARK  11 active torsions:
REMARK  status: ('A' for Active; 'I' for Inactive)
REMARK    1  A    between atoms: C2_2  and  C3_3
REMARK    2  A    between atoms: C3_3  and  C4_4
REMARK    3  A    between atoms: C4_4  and  C5_5
REMARK    4  A    between atoms: C5_5  and  C6_6
REMARK    5  A    between atoms: C6_6  and  C7_7
REMARK    6  A    between atoms: C7_7  and  O1_8
REMARK    7  A    between atoms: O1_8  and  C8_9
REMARK    8  A    between atoms: C11_12  and  C12_13
REMARK    9  A    between atoms: C12_13  and  O2_14
REMARK   10  A    between atoms: C12_13  and  C13_16
REMARK   11  A    between atoms: C13_16  and  C14_17
ROOT
HETATM    1  C8  UNL     1      20.176  35.723  59.981  1.00  0.00     0.069 A
HETATM    2  C9  UNL     1      19.041  36.008  60.702  1.00  0.00     0.037 A
HETATM    3  C10 UNL     1      17.809  35.885  60.117  1.00  0.00     0.013 A
HETATM    4  C11 UNL     1      17.653  35.474  58.793  1.00  0.00    -0.023 A
HETATM    5  C16 UNL     1      18.769  35.192  58.073  1.00  0.00    -0.051 A
HETATM    6  C17 UNL     1      18.704  34.757  56.688  1.00  0.00     0.049 C
HETATM    7  C18 UNL     1      20.023  35.318  58.673  1.00  0.00     0.044 A
ENDROOT
BRANCH   1   8
HETATM    8  O1  UNL     1      21.406  35.855  60.595  1.00  0.00    -0.351 OA
BRANCH   8   9
HETATM    9  C7  UNL     1      21.799  34.910  61.570  1.00  0.00     0.175 C
BRANCH   9  10
HETATM   10  C6  UNL     1      22.453  33.718  60.895  1.00  0.00     0.027 C
BRANCH  10  11
HETATM   11  C5  UNL     1      23.379  34.184  59.842  1.00  0.00     0.002 C
BRANCH  11  12
HETATM   12  C4  UNL     1      23.388  33.478  58.548  1.00  0.00     0.004 C
BRANCH  12  13
HETATM   13  C3  UNL     1      23.491  34.242  57.297  1.00  0.00     0.026 C
BRANCH  13  14
HETATM   14  C2  UNL     1      22.734  33.844  56.121  1.00  0.00    -0.037 C
HETATM   15  C1  UNL     1      23.264  33.890  54.885  1.00  0.00     0.007 C
ENDBRANCH  13  14
ENDBRANCH  12  13
ENDBRANCH  11  12
ENDBRANCH  10  11
ENDBRANCH   9  10
ENDBRANCH   8   9
ENDBRANCH   1   8
BRANCH   4  16
HETATM   16  C12 UNL     1      16.334  35.343  58.168  1.00  0.00     0.155 C
BRANCH  16  17
HETATM   17  O2  UNL     1      15.670  36.565  58.016  1.00  0.00    -0.391 OA
ATOM     18  H2  UNL     1      15.933  37.217  58.654  1.00  0.00     0.210 HD
ENDBRANCH  16  17
BRANCH  16  19
HETATM   19  C13 UNL     1      15.461  34.300  58.817  1.00  0.00     0.062 C
BRANCH  19  20
HETATM   20  C14 UNL     1      16.164  32.996  58.699  1.00  0.00    -0.034 C
HETATM   21  C15 UNL     1      16.086  32.278  57.589  1.00  0.00     0.007 C
ENDBRANCH  19  20
ENDBRANCH  16  19
ENDBRANCH   4  16
TORSDOF 11
ENDMDL