MODEL 4
REMARK VINA RESULT: -7.058423419      2.185      6.271
REMARK  8 active torsions:
REMARK  status: ('A' for Active; 'I' for Inactive)
REMARK    1  A    between atoms: C2_2  and  C3_3
REMARK    2  A    between atoms: C3_3  and  C4_4
REMARK    3  A    between atoms: C7_7  and  O1_8
REMARK    4  A    between atoms: O1_8  and  C8_9
REMARK    5  A    between atoms: C8_9  and  C9_10
REMARK    6  A    between atoms: C9_10  and  C10_11
REMARK    7  A    between atoms: C10_11  and  C11_12
REMARK    8  A    between atoms: C11_12  and  O2_13
ROOT
HETATM    1  O1  UNL     1      19.721  33.676  59.368  1.00  0.00    -0.350 OA
ENDROOT
BRANCH   1   2
HETATM    2  C7  UNL     1      20.903  34.243  58.964  1.00  0.00     0.077 A
HETATM    3  C5  UNL     1      21.256  34.719  57.638  1.00  0.00    -0.025 A
HETATM    4  C4  UNL     1      22.482  35.212  57.593  1.00  0.00    -0.064 A
HETATM    5  C6  UNL     1      20.371  34.682  56.414  1.00  0.00     0.051 C
HETATM    6  C18 UNL     1      23.037  35.082  58.966  1.00  0.00     0.071 A
HETATM    7  C16 UNL     1      21.941  34.453  59.745  1.00  0.00    -0.046 A
HETATM    8  C17 UNL     1      22.086  34.139  61.201  1.00  0.00     0.046 C
BRANCH   4   9
HETATM    9  C3  UNL     1      23.214  35.794  56.437  1.00  0.00     0.061 C
BRANCH   9  10
HETATM   10  C2  UNL     1      24.090  34.788  55.781  1.00  0.00    -0.033 C
HETATM   11  C1  UNL     1      23.612  34.031  54.807  1.00  0.00     0.007 C
ENDBRANCH   9  10
ENDBRANCH   4   9
ENDBRANCH   1   2
BRANCH   1  12
HETATM   12  C8  UNL     1      18.678  34.428  60.002  1.00  0.00     0.176 C
BRANCH  12  13
HETATM   13  C9  UNL     1      18.035  35.256  58.949  1.00  0.00     0.038 C
BRANCH  13  14
HETATM   14  C10 UNL     1      16.635  34.872  58.607  1.00  0.00    -0.017 C
HETATM   15  C12 UNL     1      16.245  33.546  59.200  1.00  0.00     0.012 C
HETATM   16  C13 UNL     1      16.411  32.503  58.138  1.00  0.00     0.001 C
HETATM   17  C14 UNL     1      17.091  33.225  56.995  1.00  0.00     0.001 C
HETATM   18  C15 UNL     1      16.493  34.623  57.125  1.00  0.00     0.012 C
BRANCH  14  19
HETATM   19  C11 UNL     1      15.611  35.884  59.038  1.00  0.00     0.173 C
BRANCH  19  20
HETATM   20  O2  UNL     1      15.327  36.675  57.905  1.00  0.00    -0.400 OA
ATOM     21  H2  UNL     1      14.638  37.277  58.162  1.00  0.00     0.209 HD
ENDBRANCH  19  20
ENDBRANCH  14  19
ENDBRANCH  13  14
ENDBRANCH  12  13
ENDBRANCH   1  12
TORSDOF 8
ENDMDL