MODEL 3
REMARK VINA RESULT: -6.088668682      1.597      2.667
REMARK  10 active torsions:
REMARK  status: ('A' for Active; 'I' for Inactive)
REMARK    1  A    between atoms: O1_2  and  C2_3
REMARK    2  A    between atoms: C2_3  and  C5_6
REMARK    3  A    between atoms: C5_6  and  O2_7
REMARK    4  A    between atoms: C5_6  and  C6_9
REMARK    5  A    between atoms: C5_6  and  C14_17
REMARK    6  A    between atoms: C6_9  and  C7_10
REMARK    7  A    between atoms: C7_10  and  C8_11
REMARK    8  A    between atoms: C8_11  and  C9_12
REMARK    9  A    between atoms: C9_12  and  C10_13
REMARK   10  A    between atoms: C10_13  and  C11_14
ROOT
HETATM    1  C5  UNL     1      17.874  35.094  58.062  1.00  0.00     0.092 C
ENDROOT
BRANCH   1   2
HETATM    2  C2  UNL     1      16.526  34.513  57.718  1.00  0.00     0.084 C
HETATM    3  C3  UNL     1      15.674  34.463  58.953  1.00  0.00     0.049 C
HETATM    4  C4  UNL     1      15.828  35.538  56.799  1.00  0.00     0.049 C
BRANCH   2   5
HETATM    5  O1  UNL     1      16.583  33.326  57.049  1.00  0.00    -0.383 OA
HETATM    6  C1  UNL     1      16.253  32.219  57.770  1.00  0.00     0.202 C
ENDBRANCH   2   5
ENDBRANCH   1   2
BRANCH   1   7
HETATM    7  O2  UNL     1      17.808  36.460  57.748  1.00  0.00    -0.386 OA
ATOM      8  H2  UNL     1      18.413  36.599  57.029  1.00  0.00     0.210 HD
ENDBRANCH   1   7
BRANCH   1   9
HETATM    9  C6  UNL     1      18.924  34.558  57.074  1.00  0.00     0.041 C
BRANCH   9  10
HETATM   10  C7  UNL     1      19.567  35.636  56.249  1.00  0.00     0.003 C
BRANCH  10  11
HETATM   11  C8  UNL     1      21.076  35.552  56.350  1.00  0.00     0.000 C
BRANCH  11  12
HETATM   12  C9  UNL     1      21.585  34.210  55.912  1.00  0.00     0.000 C
BRANCH  12  13
HETATM   13  C10 UNL     1      22.413  34.299  54.663  1.00  0.00     0.004 C
BRANCH  13  14
HETATM   14  C11 UNL     1      21.697  33.678  53.478  1.00  0.00    -0.023 C
HETATM   15  C12 UNL     1      20.607  32.746  53.895  1.00  0.00     0.009 C
HETATM   16  C13 UNL     1      21.100  34.787  52.642  1.00  0.00     0.009 C
ENDBRANCH  13  14
ENDBRANCH  12  13
ENDBRANCH  11  12
ENDBRANCH  10  11
ENDBRANCH   9  10
ENDBRANCH   1   9
BRANCH   1  17
HETATM   17  C14 UNL     1      18.374  34.933  59.418  1.00  0.00     0.023 C
HETATM   18  C15 UNL     1      18.723  36.181  60.186  1.00  0.00     0.007 C
HETATM   19  C16 UNL     1      19.200  35.549  61.505  1.00  0.00     0.001 C
HETATM   20  C17 UNL     1      19.726  34.172  61.134  1.00  0.00     0.001 C
HETATM   21  C18 UNL     1      19.636  34.128  59.594  1.00  0.00     0.007 C
ENDBRANCH   1  17
TORSDOF 10
ENDMDL