MODEL 3
REMARK VINA RESULT: -6.461504282      2.072      4.896
REMARK  10 active torsions:
REMARK  status: ('A' for Active; 'I' for Inactive)
REMARK    1  A    between atoms: C2_2  and  C3_3
REMARK    2  A    between atoms: C3_3  and  C4_4
REMARK    3  A    between atoms: C4_4  and  C5_5
REMARK    4  A    between atoms: C5_5  and  O1_6
REMARK    5  A    between atoms: O1_6  and  C6_7
REMARK    6  A    between atoms: C9_10  and  C10_11
REMARK    7  A    between atoms: C10_11  and  O2_13
REMARK    8  A    between atoms: C13_16  and  C14_17
REMARK    9  A    between atoms: C14_17  and  C16_19
REMARK   10  A    between atoms: C16_19  and  C17_20
ROOT
HETATM    1  C6  UNL     1      20.525  34.946  57.298  1.00  0.00     0.075 A
HETATM    2  C7  UNL     1      19.596  34.511  56.373  1.00  0.00     0.038 A
HETATM    3  C8  UNL     1      18.403  33.998  56.861  1.00  0.00     0.012 A
HETATM    4  C9  UNL     1      18.165  33.929  58.222  1.00  0.00    -0.029 A
HETATM    5  C12 UNL     1      19.144  34.384  59.085  1.00  0.00     0.020 A
HETATM    6  C13 UNL     1      20.352  34.903  58.652  1.00  0.00    -0.020 A
ENDROOT
BRANCH   1   7
HETATM    7  O1  UNL     1      21.715  35.495  56.802  1.00  0.00    -0.351 OA
BRANCH   7   8
HETATM    8  C5  UNL     1      21.906  35.592  55.390  1.00  0.00     0.175 C
BRANCH   8   9
HETATM    9  C4  UNL     1      23.159  34.790  55.039  1.00  0.00     0.027 C
BRANCH   9  10
HETATM   10  C3  UNL     1      22.706  33.447  54.494  1.00  0.00     0.002 C
BRANCH  10  11
HETATM   11  C2  UNL     1      21.712  33.554  53.367  1.00  0.00    -0.004 C
HETATM   12  C1  UNL     1      20.616  32.544  53.401  1.00  0.00     0.005 C
ENDBRANCH  10  11
ENDBRANCH   9  10
ENDBRANCH   8   9
ENDBRANCH   7   8
ENDBRANCH   1   7
BRANCH   6  13
HETATM   13  C14 UNL     1      21.477  35.202  59.554  1.00  0.00     0.017 C
HETATM   14  C15 UNL     1      20.831  35.608  60.925  1.00  0.00     0.015 C
BRANCH  13  15
HETATM   15  C16 UNL     1      22.215  33.891  59.905  1.00  0.00     0.009 C
BRANCH  15  16
HETATM   16  C17 UNL     1      23.597  33.840  59.346  1.00  0.00    -0.004 C
HETATM   17  C18 UNL     1      23.629  32.910  58.158  1.00  0.00     0.005 C
ENDBRANCH  15  16
ENDBRANCH  13  15
ENDBRANCH   6  13
BRANCH   4  18
HETATM   18  C10 UNL     1      16.880  33.360  58.616  1.00  0.00     0.147 C
HETATM   19  C11 UNL     1      15.808  34.467  58.559  1.00  0.00     0.044 C
BRANCH  18  20
HETATM   20  O2  UNL     1      16.448  32.363  57.739  1.00  0.00    -0.391 OA
ATOM     21  H2  UNL     1      15.722  31.862  58.091  1.00  0.00     0.210 HD
ENDBRANCH  18  20
ENDBRANCH   4  18
TORSDOF 10
ENDMDL