MODEL 5
REMARK VINA RESULT: -6.882918609      2.290      3.257
REMARK  9 active torsions:
REMARK  status: ('A' for Active; 'I' for Inactive)
REMARK    1  A    between atoms: O1_2  and  C2_3
REMARK    2  A    between atoms: C9_10  and  C10_11
REMARK    3  A    between atoms: C10_11  and  C11_12
REMARK    4  A    between atoms: C11_12  and  C12_13
REMARK    5  A    between atoms: C12_13  and  C13_14
REMARK    6  A    between atoms: C13_14  and  C14_15
REMARK    7  A    between atoms: C14_15  and  C15_16
REMARK    8  A    between atoms: C15_16  and  C16_17
REMARK    9  A    between atoms: C16_17  and  O2_20
ROOT
HETATM    1  C10 UNL     1      18.195  34.985  59.737  1.00  0.00     0.041 C
ENDROOT
BRANCH   1   2
HETATM    2  C9  UNL     1      17.335  35.365  58.581  1.00  0.00    -0.024 A
HETATM    3  C2  UNL     1      16.399  34.525  58.037  1.00  0.00     0.075 A
HETATM    4  C3  UNL     1      15.647  34.959  56.973  1.00  0.00     0.044 A
HETATM    5  C4  UNL     1      15.785  36.219  56.412  1.00  0.00    -0.053 A
HETATM    6  C5  UNL     1      14.966  36.674  55.262  1.00  0.00     0.049 C
HETATM    7  C6  UNL     1      16.731  37.039  56.978  1.00  0.00    -0.055 A
HETATM    8  C7  UNL     1      16.910  38.407  56.398  1.00  0.00     0.049 C
HETATM    9  C8  UNL     1      17.489  36.618  58.040  1.00  0.00     0.017 A
BRANCH   3  10
HETATM   10  O1  UNL     1      16.216  33.255  58.556  1.00  0.00    -0.355 OA
HETATM   11  C1  UNL     1      16.369  32.112  57.725  1.00  0.00     0.210 C
ENDBRANCH   3  10
ENDBRANCH   1   2
BRANCH   1  12
HETATM   12  C11 UNL     1      19.637  34.931  59.334  1.00  0.00     0.005 C
BRANCH  12  13
HETATM   13  C12 UNL     1      19.918  33.904  58.279  1.00  0.00     0.000 C
BRANCH  13  14
HETATM   14  C13 UNL     1      20.633  34.466  57.058  1.00  0.00     0.000 C
BRANCH  14  15
HETATM   15  C14 UNL     1      19.722  34.893  55.970  1.00  0.00     0.003 C
BRANCH  15  16
HETATM   16  C15 UNL     1      18.922  33.882  55.261  1.00  0.00     0.037 C
BRANCH  16  17
HETATM   17  C16 UNL     1      19.054  33.724  53.802  1.00  0.00     0.051 C
HETATM   18  C17 UNL     1      20.235  32.743  53.583  1.00  0.00     0.045 C
HETATM   19  C18 UNL     1      19.383  34.913  52.970  1.00  0.00     0.045 C
BRANCH  17  20
HETATM   20  O2  UNL     1      17.947  33.094  53.216  1.00  0.00    -0.391 OA
ATOM     21  H2  UNL     1      17.995  32.146  53.253  1.00  0.00     0.210 HD
ENDBRANCH  17  20
ENDBRANCH  16  17
ENDBRANCH  15  16
ENDBRANCH  14  15
ENDBRANCH  13  14
ENDBRANCH  12  13
ENDBRANCH   1  12
TORSDOF 9
ENDMDL