MODEL 4
REMARK VINA RESULT: -7.205116015      1.750      6.308
REMARK  9 active torsions:
REMARK  status: ('A' for Active; 'I' for Inactive)
REMARK    1  A    between atoms: C2_2  and  C3_3
REMARK    2  A    between atoms: C3_3  and  C6_6
REMARK    3  A    between atoms: C6_6  and  C7_7
REMARK    4  A    between atoms: C7_7  and  O1_8
REMARK    5  A    between atoms: C7_7  and  C8_10
REMARK    6  A    between atoms: C8_10  and  C9_11
REMARK    7  A    between atoms: C9_11  and  C10_12
REMARK    8  A    between atoms: C10_12  and  O2_13
REMARK    9  A    between atoms: O2_13  and  C11_14
ROOT
HETATM    1  C9  UNL     1      19.746  33.813  59.802  1.00  0.00     0.029 C
ENDROOT
BRANCH   1   2
HETATM    2  C8  UNL     1      21.202  33.885  59.408  1.00  0.00     0.034 C
BRANCH   2   3
HETATM    3  C7  UNL     1      21.483  35.011  58.440  1.00  0.00     0.122 C
BRANCH   3   4
HETATM    4  C6  UNL     1      22.020  34.391  57.181  1.00  0.00     0.070 C
BRANCH   4   5
HETATM    5  C3  UNL     1      21.088  34.279  56.067  1.00  0.00    -0.061 C
HETATM    6  C4  UNL     1      19.811  34.564  56.157  1.00  0.00    -0.024 C
HETATM    7  C5  UNL     1      18.947  34.427  54.938  1.00  0.00     0.036 C
BRANCH   5   8
HETATM    8  C2  UNL     1      21.625  33.837  54.780  1.00  0.00    -0.004 C
HETATM    9  C1  UNL     1      22.873  33.438  54.666  1.00  0.00     0.012 C
ENDBRANCH   5   8
ENDBRANCH   4   5
ENDBRANCH   3   4
BRANCH   3  10
HETATM   10  O1  UNL     1      22.431  35.895  58.935  1.00  0.00    -0.395 OA
ATOM     11  H1  UNL     1      23.248  35.425  59.053  1.00  0.00     0.210 HD
ENDBRANCH   3  10
ENDBRANCH   2   3
ENDBRANCH   1   2
BRANCH   1  12
HETATM   12  C10 UNL     1      19.160  35.130  60.164  1.00  0.00     0.175 C
BRANCH  12  13
HETATM   13  O2  UNL     1      17.856  35.231  59.738  1.00  0.00    -0.351 OA
BRANCH  13  14
HETATM   14  C11 UNL     1      17.234  35.566  58.587  1.00  0.00     0.075 A
HETATM   15  C12 UNL     1      17.374  36.740  57.891  1.00  0.00     0.044 A
HETATM   16  C13 UNL     1      16.698  37.024  56.704  1.00  0.00    -0.059 A
HETATM   17  C14 UNL     1      16.887  38.315  55.987  1.00  0.00     0.048 C
HETATM   18  C15 UNL     1      15.846  36.053  56.227  1.00  0.00     0.007 A
HETATM   19  C16 UNL     1      15.695  34.872  56.914  1.00  0.00     0.010 A
HETATM   20  C17 UNL     1      16.357  34.591  58.077  1.00  0.00    -0.029 A
HETATM   21  C18 UNL     1      16.155  33.288  58.785  1.00  0.00     0.051 C
ENDBRANCH  13  14
ENDBRANCH  12  13
ENDBRANCH   1  12
TORSDOF 9
ENDMDL