MODEL 3
REMARK VINA RESULT: -7.099872961      0.585      1.279
REMARK  10 active torsions:
REMARK  status: ('A' for Active; 'I' for Inactive)
REMARK    1  A    between atoms: C2_2  and  C3_3
REMARK    2  A    between atoms: C5_5  and  C6_6
REMARK    3  A    between atoms: C6_6  and  C7_7
REMARK    4  A    between atoms: C7_7  and  C8_8
REMARK    5  A    between atoms: C14_14  and  O1_15
REMARK    6  A    between atoms: O1_15  and  C15_16
REMARK    7  A    between atoms: C15_16  and  C16_17
REMARK    8  A    between atoms: C16_17  and  C17_18
REMARK    9  A    between atoms: C17_18  and  C18_19
REMARK   10  A    between atoms: C18_19  and  O2_20
ROOT
HETATM    1  C8  UNL     1      21.043  34.522  58.744  1.00  0.00    -0.024 A
HETATM    2  C9  UNL     1      21.953  34.136  59.699  1.00  0.00     0.010 A
HETATM    3  C10 UNL     1      23.184  33.623  59.404  1.00  0.00     0.001 A
HETATM    4  C11 UNL     1      23.531  33.486  58.097  1.00  0.00     0.009 A
HETATM    5  C12 UNL     1      22.621  33.870  57.100  1.00  0.00    -0.028 A
HETATM    6  C13 UNL     1      23.111  33.672  55.723  1.00  0.00     0.051 C
HETATM    7  C14 UNL     1      21.376  34.387  57.377  1.00  0.00     0.081 A
ENDROOT
BRANCH   1   8
HETATM    8  C7  UNL     1      19.792  35.117  59.241  1.00  0.00     0.045 C
BRANCH   8   9
HETATM    9  C6  UNL     1      18.841  34.065  59.788  1.00  0.00     0.032 C
BRANCH   9  10
HETATM   10  C5  UNL     1      18.231  33.342  58.643  1.00  0.00    -0.024 C
HETATM   11  C3  UNL     1      16.963  33.366  58.304  1.00  0.00    -0.088 C
HETATM   12  C4  UNL     1      16.528  32.558  57.097  1.00  0.00     0.043 C
BRANCH  11  13
HETATM   13  C2  UNL     1      15.881  34.111  58.980  1.00  0.00     0.029 C
HETATM   14  C1  UNL     1      15.838  35.583  58.595  1.00  0.00     0.010 C
ENDBRANCH  11  13
ENDBRANCH   9  10
ENDBRANCH   8   9
ENDBRANCH   1   8
BRANCH   7  15
HETATM   15  O1  UNL     1      20.482  34.756  56.493  1.00  0.00    -0.350 OA
BRANCH  15  16
HETATM   16  C15 UNL     1      19.846  35.637  55.757  1.00  0.00     0.176 C
BRANCH  16  17
HETATM   17  C16 UNL     1      18.480  36.158  55.926  1.00  0.00     0.029 C
BRANCH  17  18
HETATM   18  C17 UNL     1      18.209  37.561  55.487  1.00  0.00     0.028 C
BRANCH  18  19
HETATM   19  C18 UNL     1      17.110  38.213  56.323  1.00  0.00     0.164 C
BRANCH  19  20
HETATM   20  O2  UNL     1      16.268  39.001  55.559  1.00  0.00    -0.401 OA
ATOM     21  H2  UNL     1      16.747  39.587  54.984  1.00  0.00     0.209 HD
ENDBRANCH  19  20
ENDBRANCH  18  19
ENDBRANCH  17  18
ENDBRANCH  16  17
ENDBRANCH  15  16
ENDBRANCH   7  15
TORSDOF 10
ENDMDL