MODEL 2
REMARK VINA RESULT: -6.754891494      1.774      2.888
REMARK  10 active torsions:
REMARK  status: ('A' for Active; 'I' for Inactive)
REMARK    1  A    between atoms: C2_2  and  C3_3
REMARK    2  A    between atoms: C3_3  and  C4_4
REMARK    3  A    between atoms: C6_6  and  C7_7
REMARK    4  A    between atoms: C10_10  and  C11_11
REMARK    5  A    between atoms: C11_11  and  O1_12
REMARK    6  A    between atoms: O1_12  and  C12_13
REMARK    7  A    between atoms: C12_13  and  C14_15
REMARK    8  A    between atoms: C14_15  and  O2_16
REMARK    9  A    between atoms: C14_15  and  C15_18
REMARK   10  A    between atoms: C15_18  and  C16_19
ROOT
HETATM    1  C4  UNL     1      22.595  34.356  55.420  1.00  0.00    -0.057 A
HETATM    2  C5  UNL     1      22.929  34.022  56.727  1.00  0.00     0.014 A
HETATM    3  C6  UNL     1      22.023  34.034  57.758  1.00  0.00    -0.057 A
HETATM    4  C9  UNL     1      20.727  34.400  57.451  1.00  0.00     0.016 A
HETATM    5  C10 UNL     1      20.321  34.744  56.178  1.00  0.00    -0.034 A
HETATM    6  C18 UNL     1      21.286  34.713  55.172  1.00  0.00     0.016 A
ENDROOT
BRANCH   5   7
HETATM    7  C11 UNL     1      18.914  35.131  55.897  1.00  0.00     0.207 C
BRANCH   7   8
HETATM    8  O1  UNL     1      18.080  34.186  56.447  1.00  0.00    -0.379 OA
BRANCH   8   9
HETATM    9  C12 UNL     1      16.781  34.604  56.610  1.00  0.00     0.146 C
HETATM   10  C13 UNL     1      15.921  33.598  57.342  1.00  0.00     0.042 C
BRANCH   9  11
HETATM   11  C14 UNL     1      16.816  35.859  57.489  1.00  0.00     0.146 C
BRANCH  11  12
HETATM   12  O2  UNL     1      15.670  36.576  57.220  1.00  0.00    -0.393 OA
ATOM     13  H2  UNL     1      15.841  37.478  57.460  1.00  0.00     0.210 HD
ENDBRANCH  11  12
BRANCH  11  14
HETATM   14  C15 UNL     1      16.771  35.379  58.928  1.00  0.00     0.034 C
BRANCH  14  15
HETATM   15  C16 UNL     1      18.089  35.725  59.584  1.00  0.00    -0.002 C
HETATM   16  C17 UNL     1      18.639  34.577  60.388  1.00  0.00     0.005 C
ENDBRANCH  14  15
ENDBRANCH  11  14
ENDBRANCH   9  11
ENDBRANCH   8   9
ENDBRANCH   7   8
ENDBRANCH   5   7
BRANCH   3  17
HETATM   17  C7  UNL     1      22.405  33.676  59.131  1.00  0.00     0.034 C
HETATM   18  C8  UNL     1      23.874  33.680  59.376  1.00  0.00     0.010 C
ENDBRANCH   3  17
BRANCH   1  19
HETATM   19  C3  UNL     1      23.631  34.318  54.367  1.00  0.00     0.038 C
BRANCH  19  20
HETATM   20  C2  UNL     1      24.869  35.102  54.776  1.00  0.00     0.000 C
HETATM   21  C1  UNL     1      24.675  36.588  54.509  1.00  0.00     0.005 C
ENDBRANCH  19  20
ENDBRANCH   1  19
TORSDOF 10
ENDMDL