MODEL 3
REMARK VINA RESULT: -6.602969008      0.500      1.927
REMARK  7 active torsions:
REMARK  status: ('A' for Active; 'I' for Inactive)
REMARK    1  A    between atoms: C2_2  and  C3_3
REMARK    2  A    between atoms: C3_3  and  C4_4
REMARK    3  A    between atoms: C4_4  and  C5_5
REMARK    4  A    between atoms: C6_7  and  C7_8
REMARK    5  A    between atoms: C6_7  and  O2_10
REMARK    6  A    between atoms: O2_10  and  C9_11
REMARK    7  A    between atoms: C9_11  and  C10_12
ROOT
HETATM    1  O2  UNL     1      17.895  34.541  55.579  1.00  0.00    -0.350 OA
ENDROOT
BRANCH   1   2
HETATM    2  C6  UNL     1      18.525  35.342  54.693  1.00  0.00     0.055 C
HETATM    3  C4  UNL     1      18.903  34.958  53.466  1.00  0.00     0.009 C
BRANCH   3   4
HETATM    4  C3  UNL     1      19.626  35.867  52.532  1.00  0.00     0.044 C
BRANCH   4   5
HETATM    5  C2  UNL     1      20.926  35.284  52.021  1.00  0.00     0.000 C
HETATM    6  C1  UNL     1      21.895  35.181  53.195  1.00  0.00     0.005 C
ENDBRANCH   4   5
ENDBRANCH   3   4
BRANCH   3   7
HETATM    7  C5  UNL     1      18.537  33.634  52.983  1.00  0.00     0.268 C
HETATM    8  O1  UNL     1      19.212  32.594  53.263  1.00  0.00    -0.302 OA
ENDBRANCH   3   7
BRANCH   2   9
HETATM    9  C7  UNL     1      18.808  36.735  55.182  1.00  0.00     0.061 C
HETATM   10  C8  UNL     1      17.640  37.208  56.047  1.00  0.00     0.012 C
ENDBRANCH   2   9
ENDBRANCH   1   2
BRANCH   1  11
HETATM   11  C9  UNL     1      18.191  33.632  56.533  1.00  0.00     0.215 C
BRANCH  11  12
HETATM   12  C10 UNL     1      18.685  34.098  57.847  1.00  0.00    -0.022 A
HETATM   13  C11 UNL     1      17.886  34.380  58.910  1.00  0.00    -0.053 A
HETATM   14  C12 UNL     1      16.470  33.990  58.882  1.00  0.00     0.049 C
HETATM   15  C13 UNL     1      18.377  34.984  60.087  1.00  0.00     0.014 A
HETATM   16  C14 UNL     1      19.701  35.313  60.204  1.00  0.00    -0.061 A
HETATM   17  C15 UNL     1      20.212  35.968  61.444  1.00  0.00     0.048 C
HETATM   18  C16 UNL     1      20.528  35.028  59.129  1.00  0.00     0.014 A
HETATM   19  C17 UNL     1      20.037  34.433  57.972  1.00  0.00    -0.053 A
HETATM   20  C18 UNL     1      21.000  34.155  56.870  1.00  0.00     0.049 C
ENDBRANCH  11  12
ENDBRANCH   1  11
TORSDOF 7
ENDMDL