MODEL 5
REMARK VINA RESULT: -6.621515093      2.687      4.895
REMARK  9 active torsions:
REMARK  status: ('A' for Active; 'I' for Inactive)
REMARK    1  A    between atoms: C2_2  and  C3_3
REMARK    2  A    between atoms: C3_3  and  C4_4
REMARK    3  A    between atoms: C6_6  and  C7_7
REMARK    4  A    between atoms: C7_7  and  O1_8
REMARK    5  A    between atoms: C7_7  and  C8_10
REMARK    6  A    between atoms: C11_13  and  O2_14
REMARK    7  A    between atoms: O2_14  and  C12_15
REMARK    8  A    between atoms: C14_17  and  C15_18
REMARK    9  A    between atoms: C16_19  and  C17_20
ROOT
HETATM    1  C4  UNL     1      19.998  34.658  56.457  1.00  0.00    -0.041 A
HETATM    2  C5  UNL     1      21.401  34.823  56.018  1.00  0.00     0.022 A
HETATM    3  C6  UNL     1      22.406  34.589  56.984  1.00  0.00     0.000 A
HETATM    4  C10 UNL     1      22.028  34.218  58.235  1.00  0.00     0.052 A
HETATM    5  C11 UNL     1      20.689  34.056  58.636  1.00  0.00     0.080 A
HETATM    6  C14 UNL     1      19.737  34.305  57.694  1.00  0.00     0.004 A
ENDROOT
BRANCH   3   7
HETATM    7  C7  UNL     1      23.685  34.878  56.621  1.00  0.00     0.075 C
BRANCH   7   8
HETATM    8  O1  UNL     1      24.582  35.364  57.593  1.00  0.00    -0.360 OA
ATOM      9  H1  UNL     1      25.202  34.766  57.992  1.00  0.00     0.217 HD
ENDBRANCH   7   8
BRANCH   7  10
HETATM   10  C8  UNL     1      24.531  34.829  55.387  1.00  0.00     0.027 C
HETATM   11  C9  UNL     1      25.023  35.717  54.657  1.00  0.00     0.014 C
ENDBRANCH   7  10
ENDBRANCH   3   7
BRANCH   1  12
HETATM   12  C3  UNL     1      19.043  34.709  55.339  1.00  0.00     0.066 C
BRANCH  12  13
HETATM   13  C2  UNL     1      18.528  36.047  55.024  1.00  0.00    -0.032 C
HETATM   14  C1  UNL     1      18.067  37.030  55.681  1.00  0.00     0.007 C
ENDBRANCH  12  13
ENDBRANCH   1  12
BRANCH   5  15
HETATM   15  O2  UNL     1      20.378  33.653  59.954  1.00  0.00    -0.351 OA
BRANCH  15  16
HETATM   16  C12 UNL     1      21.040  34.458  60.963  1.00  0.00     0.171 C
HETATM   17  C13 UNL     1      20.188  35.739  61.153  1.00  0.00     0.034 C
ENDBRANCH  15  16
ENDBRANCH   5  15
BRANCH   6  18
HETATM   18  C15 UNL     1      18.316  34.260  58.229  1.00  0.00     0.011 C
HETATM   19  C16 UNL     1      17.350  33.457  58.293  1.00  0.00    -0.026 C
BRANCH  19  20
HETATM   20  C17 UNL     1      16.076  33.996  58.968  1.00  0.00     0.022 C
HETATM   21  C18 UNL     1      15.891  35.458  58.659  1.00  0.00     0.009 C
ENDBRANCH  19  20
ENDBRANCH   6  18
TORSDOF 9
ENDMDL