MODEL 2
REMARK VINA RESULT: -6.558449189      1.921      4.088
REMARK  10 active torsions:
REMARK  status: ('A' for Active; 'I' for Inactive)
REMARK    1  A    between atoms: C2_2  and  C3_3
REMARK    2  A    between atoms: C3_3  and  C4_4
REMARK    3  A    between atoms: C4_4  and  C5_5
REMARK    4  A    between atoms: C5_5  and  C6_6
REMARK    5  A    between atoms: C6_6  and  C7_7
REMARK    6  A    between atoms: C7_7  and  C8_9
REMARK    7  A    between atoms: C8_9  and  C9_10
REMARK    8  A    between atoms: C9_10  and  O2_11
REMARK    9  A    between atoms: C9_10  and  C10_13
REMARK   10  A    between atoms: C10_13  and  C11_14
ROOT
HETATM    1  C9  UNL     1      16.166  35.682  56.021  1.00  0.00     0.129 C
ENDROOT
BRANCH   1   2
HETATM    2  C8  UNL     1      16.115  34.722  57.168  1.00  0.00     0.110 C
BRANCH   2   3
HETATM    3  C7  UNL     1      16.105  35.462  58.446  1.00  0.00     0.129 C
HETATM    4  O1  UNL     1      15.095  36.005  58.829  1.00  0.00    -0.298 OA
BRANCH   3   5
HETATM    5  C6  UNL     1      17.339  35.554  59.288  1.00  0.00     0.078 C
BRANCH   5   6
HETATM    6  C5  UNL     1      17.869  34.122  59.361  1.00  0.00     0.007 C
BRANCH   6   7
HETATM    7  C4  UNL     1      19.261  34.095  59.920  1.00  0.00     0.000 C
BRANCH   7   8
HETATM    8  C3  UNL     1      19.612  35.466  60.427  1.00  0.00    -0.000 C
BRANCH   8   9
HETATM    9  C2  UNL     1      21.006  35.505  60.970  1.00  0.00    -0.005 C
HETATM   10  C1  UNL     1      21.628  34.118  60.881  1.00  0.00     0.005 C
ENDBRANCH   8   9
ENDBRANCH   7   8
ENDBRANCH   6   7
ENDBRANCH   5   6
ENDBRANCH   3   5
ENDBRANCH   2   3
ENDBRANCH   1   2
BRANCH   1  11
HETATM   11  O2  UNL     1      15.098  36.629  56.197  1.00  0.00    -0.395 OA
ATOM     12  H2  UNL     1      15.475  37.500  56.153  1.00  0.00     0.210 HD
ENDBRANCH   1  11
BRANCH   1  13
HETATM   13  C10 UNL     1      17.455  36.452  56.010  1.00  0.00     0.070 C
BRANCH  13  14
HETATM   14  C11 UNL     1      18.578  35.543  55.703  1.00  0.00    -0.055 A
HETATM   15  C12 UNL     1      19.698  35.357  56.447  1.00  0.00     0.013 A
HETATM   16  C13 UNL     1      20.717  34.485  56.080  1.00  0.00    -0.061 A
HETATM   17  C14 UNL     1      21.928  34.311  56.925  1.00  0.00     0.048 C
HETATM   18  C15 UNL     1      20.577  33.782  54.907  1.00  0.00     0.013 A
HETATM   19  C16 UNL     1      19.445  33.942  54.113  1.00  0.00    -0.061 A
HETATM   20  C17 UNL     1      19.287  33.177  52.832  1.00  0.00     0.048 C
HETATM   21  C18 UNL     1      18.457  34.816  54.513  1.00  0.00     0.013 A
ENDBRANCH  13  14
ENDBRANCH   1  13
TORSDOF 10
ENDMDL