MODEL 5
REMARK VINA RESULT: -8.559155332      2.803      7.590
REMARK  5 active torsions:
REMARK  status: ('A' for Active; 'I' for Inactive)
REMARK    1  A    between atoms: C2_2  and  C5_5
REMARK    2  A    between atoms: C6_10  and  O1_11
REMARK    3  A    between atoms: C7_13  and  C8_14
REMARK    4  A    between atoms: C8_14  and  C9_15
REMARK    5  A    between atoms: C9_15  and  C10_16
ROOT
HETATM    1  C10 UNL     1      21.050  34.164  55.777  1.00  0.00     0.123 A
HETATM    2  N3  UNL     1      21.042  34.367  57.137  1.00  0.00    -0.284 N
ATOM      3  H3  UNL     1      21.864  34.355  57.740  1.00  0.00     0.188 HD
HETATM    4  N4  UNL     1      19.815  34.579  57.535  1.00  0.00    -0.285 N
ATOM      5  H4  UNL     1      19.536  34.757  58.500  1.00  0.00     0.188 HD
HETATM    6  C11 UNL     1      18.980  34.527  56.491  1.00  0.00     0.136 A
HETATM    7  N5  UNL     1      19.736  34.271  55.419  1.00  0.00    -0.317 N
HETATM    8  C12 UNL     1      19.122  34.121  54.130  1.00  0.00     0.159 C
HETATM    9  C13 UNL     1      17.642  34.112  54.204  1.00  0.00     0.254 C
HETATM   10  N6  UNL     1      17.057  35.008  55.131  1.00  0.00    -0.058 N
ATOM     11  H61 UNL     1      16.039  34.999  55.068  1.00  0.00     0.278 HD
ATOM     12  H62 UNL     1      17.223  35.979  54.868  1.00  0.00     0.278 HD
HETATM   13  C14 UNL     1      17.511  34.739  56.495  1.00  0.00     0.184 C
HETATM   14  C15 UNL     1      17.193  35.972  57.305  1.00  0.00     0.047 C
HETATM   15  C16 UNL     1      16.062  35.655  58.288  1.00  0.00     0.003 C
HETATM   16  C17 UNL     1      16.596  34.589  59.216  1.00  0.00     0.000 C
HETATM   17  C18 UNL     1      16.775  33.326  58.437  1.00  0.00     0.003 C
HETATM   18  C19 UNL     1      16.771  33.507  56.955  1.00  0.00     0.047 C
ENDROOT
BRANCH   1  19
HETATM   19  C9  UNL     1      22.252  33.900  55.007  1.00  0.00     0.051 C
BRANCH  19  20
HETATM   20  C8  UNL     1      22.801  34.601  54.078  1.00  0.00     0.022 C
BRANCH  20  21
HETATM   21  C7  UNL     1      23.499  35.868  54.244  1.00  0.00     0.041 A
HETATM   22  C5  UNL     1      23.006  37.117  53.845  1.00  0.00     0.048 A
HETATM   23  N1  UNL     1      23.937  38.013  54.171  1.00  0.00    -0.301 N
HETATM   24  N2  UNL     1      24.952  37.428  54.732  1.00  0.00    -0.279 N
ATOM     25  H1  UNL     1      23.863  39.016  54.004  1.00  0.00     0.186 HD
HETATM   26  C6  UNL     1      24.731  36.076  54.804  1.00  0.00     0.167 A
ATOM     27  H2  UNL     1      25.789  37.903  55.069  1.00  0.00     0.189 HD
BRANCH  22  28
HETATM   28  C2  UNL     1      21.718  37.335  53.203  1.00  0.00    -0.006 C
HETATM   29  C1  UNL     1      21.768  38.680  52.472  1.00  0.00     0.021 C
HETATM   30  C3  UNL     1      20.591  37.466  54.232  1.00  0.00     0.021 C
HETATM   31  C4  UNL     1      21.379  36.302  52.150  1.00  0.00     0.021 C
ENDBRANCH  22  28
BRANCH  26  32
HETATM   32  O1  UNL     1      25.642  35.169  55.357  1.00  0.00    -0.344 OA
ATOM     33  H1  UNL     1      26.129  34.534  54.846  1.00  0.00     0.219 HD
ENDBRANCH  26  32
ENDBRANCH  20  21
ENDBRANCH  19  20
ENDBRANCH   1  19
TORSDOF 5
ENDMDL