MODEL 5
REMARK VINA RESULT: -6.354855018      2.010      2.587
REMARK  1 active torsions:
REMARK  status: ('A' for Active; 'I' for Inactive)
REMARK    1  A    between atoms: C4_8  and  N4_9
ROOT
HETATM    1  N1  UNL     1      -7.398  67.804  17.270  1.00  0.00    -0.191 NA
HETATM    2  C1  UNL     1      -6.974  67.791  16.187  1.00  0.00     0.108 C
HETATM    3  C2  UNL     1      -6.434  67.748  14.862  1.00  0.00     0.154 A
HETATM    4  C3  UNL     1      -6.849  66.748  14.011  1.00  0.00     0.158 A
HETATM    5  N2  UNL     1      -7.788  65.803  14.471  1.00  0.00    -0.080 NA
HETATM    6  N3  UNL     1      -6.316  66.741  12.774  1.00  0.00    -0.177 N
ATOM      7  H3  UNL     1      -6.601  66.015  12.116  1.00  0.00     0.185 HD
HETATM    8  C4  UNL     1      -5.421  67.661  12.380  1.00  0.00     0.684 A
HETATM    9  N6  UNL     1      -5.010  68.636  13.196  1.00  0.00    -0.155 N
ATOM     10  H6  UNL     1      -4.329  69.320  12.868  1.00  0.00     0.187 HD
HETATM   11  C9  UNL     1      -5.502  68.718  14.472  1.00  0.00     0.283 A
HETATM   12  O1  UNL     1      -5.147  69.617  15.273  1.00  0.00    -0.266 OA
ENDROOT
BRANCH   8  13
HETATM   13  N4  UNL     1      -4.901  67.551  11.070  1.00  0.00    -0.214 N
HETATM   14  C5  UNL     1      -5.808  67.087  10.009  1.00  0.00     0.168 C
HETATM   15  C6  UNL     1      -5.673  67.948   8.800  1.00  0.00     0.252 C
HETATM   16  N5  UNL     1      -4.296  68.025   8.410  1.00  0.00    -0.072 N
HETATM   17  C7  UNL     1      -3.406  67.281   9.255  1.00  0.00     0.252 C
ATOM     18  H52 UNL     1      -4.184  67.744   7.436  1.00  0.00     0.277 HD
ATOM     19  H51 UNL     1      -3.998  68.998   8.344  1.00  0.00     0.277 HD
HETATM   20  C8  UNL     1      -3.547  67.857  10.679  1.00  0.00     0.168 C
ENDBRANCH   8  13
TORSDOF 1
ENDMDL