MODEL 2
REMARK VINA RESULT: -5.781744082      1.098      1.110
REMARK  3 active torsions:
REMARK  status: ('A' for Active; 'I' for Inactive)
REMARK       I    between atoms: N1_2  and  C2_4
REMARK    1  A    between atoms: N3_6  and  C3_8
REMARK    2  A    between atoms: C4_9  and  N4_10
REMARK    3  A    between atoms: N4_10  and  O1_12
ROOT
HETATM    1  C3  UNL     1      -5.473  68.766  12.903  1.00  0.00     0.148 A
HETATM    2  C4  UNL     1      -4.493  69.724  12.797  1.00  0.00     0.166 A
HETATM    3  C5  UNL     1      -3.938  70.362  13.905  1.00  0.00     0.281 A
HETATM    4  O2  UNL     1      -3.039  71.236  13.792  1.00  0.00    -0.265 OA
HETATM    5  N5  UNL     1      -4.410  69.997  15.112  1.00  0.00    -0.273 N
ATOM      6  H5  UNL     1      -4.036  70.434  15.954  1.00  0.00     0.173 HD
HETATM    7  C6  UNL     1      -5.367  69.066  15.218  1.00  0.00     0.330 A
HETATM    8  O3  UNL     1      -5.773  68.765  16.394  1.00  0.00    -0.246 OA
HETATM    9  N6  UNL     1      -5.909  68.444  14.162  1.00  0.00    -0.287 N
HETATM   10  C7  UNL     1      -6.949  67.437  14.343  1.00  0.00     0.163 C
ENDROOT
BRANCH   1  11
HETATM   11  N3  UNL     1      -6.021  68.105  11.818  1.00  0.00    -0.315 N
HETATM   12  C2  UNL     1      -5.538  67.285  10.985  1.00  0.00     0.189 C
HETATM   13  N1  UNL     1      -6.296  66.717   9.918  1.00  0.00    -0.369 N
HETATM   14  N2  UNL     1      -4.192  66.860  11.089  1.00  0.00    -0.064 NA
HETATM   15  C1  UNL     1      -5.853  65.565   9.165  1.00  0.00     0.148 C
ATOM     16  H1  UNL     1      -7.191  67.142   9.677  1.00  0.00     0.161 HD
ATOM     17  H3  UNL     1      -7.004  68.322  11.659  1.00  0.00     0.170 HD
ENDBRANCH   1  11
BRANCH   2  18
HETATM   18  N4  UNL     1      -3.966  70.171  11.543  1.00  0.00    -0.260 N
ATOM     19  H4  UNL     1      -3.575  69.492  10.892  1.00  0.00     0.194 HD
BRANCH  18  20
HETATM   20  O1  UNL     1      -3.981  71.392  11.233  1.00  0.00    -0.289 OA
ATOM     21  H1  UNL     1      -4.647  71.742  10.652  1.00  0.00     0.244 HD
ENDBRANCH  18  20
ENDBRANCH   2  18
TORSDOF 3
ENDMDL