MODEL 4
REMARK VINA RESULT: -5.929225947      1.200      3.766
REMARK  0 active torsions:
REMARK  status: ('A' for Active; 'I' for Inactive)
REMARK       I    between atoms: C1_2  and  N2_4
ROOT
HETATM    1  N1  UNL     1      -3.224  71.886  14.245  1.00  0.00    -0.039 NA
HETATM    2  C1  UNL     1      -3.640  70.896  13.279  1.00  0.00     0.340 C
HETATM    3  O1  UNL     1      -3.216  71.071  12.167  1.00  0.00    -0.250 OA
HETATM    4  N2  UNL     1      -4.468  69.873  13.743  1.00  0.00    -0.258 N
HETATM    5  C2  UNL     1      -4.906  69.750  15.043  1.00  0.00     0.193 A
HETATM    6  N3  UNL     1      -5.676  68.685  15.185  1.00  0.00    -0.345 N
ATOM      7  H3  UNL     1      -6.119  68.384  16.053  1.00  0.00     0.167 HD
HETATM    8  C3  UNL     1      -5.778  68.074  14.020  1.00  0.00     0.132 A
HETATM    9  C4  UNL     1      -6.460  66.937  13.658  1.00  0.00     0.276 A
HETATM   10  O2  UNL     1      -7.142  66.283  14.515  1.00  0.00    -0.266 OA
HETATM   11  N4  UNL     1      -6.406  66.516  12.402  1.00  0.00    -0.306 N
ATOM     12  H4  UNL     1      -6.909  65.673  12.123  1.00  0.00     0.170 HD
HETATM   13  C5  UNL     1      -5.675  67.215  11.480  1.00  0.00     0.138 A
HETATM   14  N5  UNL     1      -5.472  66.989  10.168  1.00  0.00    -0.337 N
ATOM     15  H5  UNL     1      -5.861  66.210   9.636  1.00  0.00     0.168 HD
HETATM   16  C6  UNL     1      -4.685  67.939   9.676  1.00  0.00     0.182 A
HETATM   17  N6  UNL     1      -4.389  68.782  10.710  1.00  0.00    -0.347 N
ATOM     18  H6  UNL     1      -3.800  69.612  10.641  1.00  0.00     0.167 HD
HETATM   19  C7  UNL     1      -4.982  68.358  11.820  1.00  0.00     0.108 A
HETATM   20  C8  UNL     1      -5.016  68.823  13.115  1.00  0.00     0.107 A
ENDROOT
TORSDOF 0
ENDMDL