MODEL 5
REMARK VINA RESULT: -6.817302626      2.078      5.408
REMARK  4 active torsions:
REMARK  status: ('A' for Active; 'I' for Inactive)
REMARK    1  A    between atoms: O1_1  and  N1_3
REMARK    2  A    between atoms: C3_10  and  N4_11
REMARK    3  A    between atoms: N4_11  and  N5_13
REMARK    4  A    between atoms: N5_13  and  C4_15
ROOT
HETATM    1  N4  UNL     1      -3.264  68.167  10.634  1.00  0.00    -0.269 N
ATOM      2  H4  UNL     1      -2.366  67.845  10.995  1.00  0.00     0.189 HD
ENDROOT
BRANCH   1   3
HETATM    3  C3  UNL     1      -3.991  68.843  11.429  1.00  0.00     0.155 A
HETATM    4  N3  UNL     1      -3.841  70.164  11.588  1.00  0.00    -0.335 N
HETATM    5  C2  UNL     1      -4.655  70.828  12.458  1.00  0.00     0.183 A
ATOM      6  H3  UNL     1      -3.125  70.668  11.066  1.00  0.00     0.168 HD
HETATM    7  N2  UNL     1      -5.608  70.203  13.164  1.00  0.00    -0.335 N
HETATM    8  C1  UNL     1      -5.788  68.882  13.033  1.00  0.00     0.168 A
ATOM      9  H2  UNL     1      -6.197  70.735  13.805  1.00  0.00     0.168 HD
HETATM   10  N1  UNL     1      -5.961  67.466  12.872  1.00  0.00    -0.198 N
HETATM   11  C8  UNL     1      -4.968  68.205  12.154  1.00  0.00     0.156 A
BRANCH  10  12
HETATM   12  O1  UNL     1      -6.644  66.369  13.236  1.00  0.00    -0.281 OA
ATOM     13  H1  UNL     1      -6.921  65.804  13.948  1.00  0.00     0.245 HD
ENDBRANCH  10  12
ENDBRANCH   1   3
BRANCH   1  14
HETATM   14  N5  UNL     1      -3.567  67.825   9.339  1.00  0.00    -0.130 N
ATOM     15  H5  UNL     1      -2.999  68.258   8.611  1.00  0.00     0.205 HD
BRANCH  14  16
HETATM   16  C4  UNL     1      -4.475  67.031   8.949  1.00  0.00     0.696 A
HETATM   17  N6  UNL     1      -4.524  65.786   9.452  1.00  0.00    -0.200 N
HETATM   18  C5  UNL     1      -5.452  64.879   9.094  1.00  0.00     0.107 A
ATOM     19  H6  UNL     1      -3.823  65.515  10.141  1.00  0.00     0.183 HD
HETATM   20  C6  UNL     1      -6.405  65.238   8.161  1.00  0.00     0.035 A
HETATM   21  C7  UNL     1      -6.351  66.516   7.647  1.00  0.00     0.107 A
HETATM   22  N7  UNL     1      -5.399  67.378   8.044  1.00  0.00    -0.200 N
ATOM     23  H7  UNL     1      -5.380  68.318   7.646  1.00  0.00     0.183 HD
ENDBRANCH  14  16
ENDBRANCH   1  14
TORSDOF 4
ENDMDL