MODEL 5
REMARK VINA RESULT: -5.530470849      2.202      3.047
REMARK  4 active torsions:
REMARK  status: ('A' for Active; 'I' for Inactive)
REMARK    1  A    between atoms: C2_2  and  O1_4
REMARK    2  A    between atoms: O1_4  and  C4_5
REMARK    3  A    between atoms: C4_5  and  C5_7
REMARK    4  A    between atoms: C7_12  and  N3_13
ROOT
HETATM    1  C5  UNL     1      -5.153  68.209  12.622  1.00  0.00     0.149 A
HETATM    2  C6  UNL     1      -5.952  67.586  13.585  1.00  0.00     0.153 A
HETATM    3  N1  UNL     1      -6.597  66.355  13.291  1.00  0.00    -0.081 NA
HETATM    4  N2  UNL     1      -6.074  68.193  14.772  1.00  0.00    -0.178 N
ATOM      5  H2  UNL     1      -6.650  67.762  15.495  1.00  0.00     0.185 HD
HETATM    6  C7  UNL     1      -5.455  69.364  15.037  1.00  0.00     0.681 A
HETATM    7  N4  UNL     1      -4.680  69.959  14.089  1.00  0.00    -0.151 N
HETATM    8  C8  UNL     1      -4.016  71.226  14.393  1.00  0.00     0.179 C
HETATM    9  C9  UNL     1      -4.516  69.406  12.885  1.00  0.00     0.281 A
HETATM   10  O3  UNL     1      -3.790  69.960  11.988  1.00  0.00    -0.266 OA
ENDROOT
BRANCH   1  11
HETATM   11  C4  UNL     1      -4.975  67.607  11.312  1.00  0.00     0.307 C
HETATM   12  O2  UNL     1      -4.000  66.853  11.117  1.00  0.00    -0.259 OA
BRANCH  11  13
HETATM   13  O1  UNL     1      -5.854  67.847  10.282  1.00  0.00    -0.280 OA
BRANCH  13  14
HETATM   14  C2  UNL     1      -5.895  66.940   9.229  1.00  0.00     0.044 C
HETATM   15  C1  UNL     1      -5.368  67.283   8.086  1.00  0.00     0.046 C
HETATM   16  C3  UNL     1      -6.517  65.598   9.364  1.00  0.00     0.076 C
ENDBRANCH  13  14
ENDBRANCH  11  13
ENDBRANCH   1  11
BRANCH   6  17
HETATM   17  N3  UNL     1      -5.586  69.930  16.185  1.00  0.00    -0.234 N
ATOM     18  H32 UNL     1      -6.441  70.448  16.388  1.00  0.00     0.174 HD
ATOM     19  H31 UNL     1      -4.846  69.863  16.884  1.00  0.00     0.174 HD
ENDBRANCH   6  17
TORSDOF 4
ENDMDL