MODEL 2
REMARK VINA RESULT: -5.857396171      2.012      3.057
REMARK  3 active torsions:
REMARK  status: ('A' for Active; 'I' for Inactive)
REMARK    1  A    between atoms: C3_4  and  N2_5
REMARK    2  A    between atoms: C9_16  and  N6_17
REMARK    3  A    between atoms: N6_17  and  N7_19
ROOT
HETATM    1  N1  UNL     1      -3.630  70.180  11.786  1.00  0.00    -0.191 NA
HETATM    2  C1  UNL     1      -4.320  69.437  12.330  1.00  0.00     0.107 C
HETATM    3  C2  UNL     1      -5.192  68.498  12.981  1.00  0.00     0.133 A
HETATM    4  C3  UNL     1      -5.638  67.441  12.216  1.00  0.00     0.130 A
HETATM    5  N3  UNL     1      -6.478  66.529  12.754  1.00  0.00    -0.315 N
ATOM      6  H3  UNL     1      -6.805  65.751  12.181  1.00  0.00     0.170 HD
HETATM    7  C8  UNL     1      -6.894  66.628  14.035  1.00  0.00     0.195 A
HETATM    8  N4  UNL     1      -7.774  65.634  14.543  1.00  0.00    -0.063 NA
HETATM    9  N5  UNL     1      -6.462  67.654  14.781  1.00  0.00    -0.314 N
ATOM     10  H5  UNL     1      -6.776  67.729  15.748  1.00  0.00     0.170 HD
HETATM   11  C9  UNL     1      -5.607  68.609  14.279  1.00  0.00     0.146 A
ENDROOT
BRANCH   4  12
HETATM   12  N2  UNL     1      -5.220  67.261  10.846  1.00  0.00    -0.366 N
HETATM   13  C4  UNL     1      -5.826  67.801   9.661  1.00  0.00     0.124 C
HETATM   14  C5  UNL     1      -4.724  67.752   8.615  1.00  0.00     0.021 C
HETATM   15  C6  UNL     1      -3.588  66.962   9.183  1.00  0.00     0.021 C
HETATM   16  C7  UNL     1      -4.071  66.432  10.501  1.00  0.00     0.124 C
ENDBRANCH   4  12
BRANCH  11  17
HETATM   17  N6  UNL     1      -5.206  69.553  15.018  1.00  0.00    -0.291 N
ATOM     18  H6  UNL     1      -4.734  70.306  14.516  1.00  0.00     0.188 HD
BRANCH  17  19
HETATM   19  N7  UNL     1      -5.294  69.744  16.361  1.00  0.00    -0.344 N
ATOM     20  H72 UNL     1      -5.940  69.099  16.814  1.00  0.00     0.176 HD
ATOM     21  H71 UNL     1      -4.831  70.410  16.980  1.00  0.00     0.176 HD
ENDBRANCH  17  19
ENDBRANCH  11  17
TORSDOF 3
ENDMDL