MODEL 5
REMARK VINA RESULT: -6.425911342      2.703      5.081
REMARK  1 active torsions:
REMARK  status: ('A' for Active; 'I' for Inactive)
REMARK    1  A    between atoms: C5_11  and  C6_12
ROOT
HETATM    1  O1  UNL     1      -7.800  65.628  14.518  1.00  0.00    -0.245 OA
HETATM    2  C1  UNL     1      -7.001  66.571  14.186  1.00  0.00     0.342 A
HETATM    3  N1  UNL     1      -6.529  67.430  15.087  1.00  0.00    -0.271 N
ATOM      4  H1  UNL     1      -6.801  67.348  16.066  1.00  0.00     0.174 HD
HETATM    5  C2  UNL     1      -5.695  68.401  14.697  1.00  0.00     0.295 A
HETATM    6  O2  UNL     1      -5.260  69.204  15.572  1.00  0.00    -0.264 OA
HETATM    7  C3  UNL     1      -5.336  68.502  13.374  1.00  0.00     0.197 A
HETATM    8  N2  UNL     1      -4.528  69.372  12.734  1.00  0.00    -0.344 N
ATOM      9  H2  UNL     1      -4.017  70.148  13.156  1.00  0.00     0.167 HD
HETATM   10  C4  UNL     1      -4.521  69.025  11.444  1.00  0.00     0.122 A
HETATM   11  C5  UNL     1      -5.343  67.903  11.228  1.00  0.00     0.087 A
HETATM   12  N5  UNL     1      -5.818  67.623  12.449  1.00  0.00    -0.229 N
HETATM   13  N6  UNL     1      -6.630  66.697  12.899  1.00  0.00    -0.242 N
ATOM     14  H6  UNL     1      -7.006  66.027  12.228  1.00  0.00     0.192 HD
ENDROOT
BRANCH  11  15
HETATM   15  C6  UNL     1      -5.564  67.263   9.942  1.00  0.00     0.028 A
HETATM   16  C7  UNL     1      -5.871  65.979   9.603  1.00  0.00     0.122 A
HETATM   17  N3  UNL     1      -5.972  65.906   8.233  1.00  0.00    -0.311 N
HETATM   18  N4  UNL     1      -5.738  67.094   7.732  1.00  0.00    -0.311 N
ATOM     19  H3  UNL     1      -6.194  65.067   7.696  1.00  0.00     0.186 HD
HETATM   20  C8  UNL     1      -5.487  67.947   8.730  1.00  0.00     0.122 A
ATOM     21  H4  UNL     1      -5.745  67.331   6.740  1.00  0.00     0.186 HD
ENDBRANCH  11  15
TORSDOF 1
ENDMDL