MODEL 1
REMARK VINA RESULT: -6.087257338      0.000      0.000
REMARK  3 active torsions:
REMARK  status: ('A' for Active; 'I' for Inactive)
REMARK    1  A    between atoms: N2_3  and  N3_4
REMARK    2  A    between atoms: N2_3  and  C2_7
REMARK    3  A    between atoms: C3_10  and  N5_11
REMARK       I    between atoms: N5_11  and  C4_13
ROOT
HETATM    1  N1  UNL     1      -3.019  70.790  14.710  1.00  0.00    -0.169 NA
HETATM    2  C1  UNL     1      -3.445  70.604  13.645  1.00  0.00     0.220 C
HETATM    3  N2  UNL     1      -3.983  70.388  12.367  1.00  0.00    -0.021 N
ENDROOT
BRANCH   3   4
HETATM    4  N3  UNL     1      -3.858  71.380  11.395  1.00  0.00    -0.315 N
ATOM      5  H32 UNL     1      -3.054  72.006  11.435  1.00  0.00     0.178 HD
ATOM      6  H31 UNL     1      -4.568  71.460  10.668  1.00  0.00     0.178 HD
ENDBRANCH   3   4
BRANCH   3   7
HETATM    7  C2  UNL     1      -4.653  69.185  12.031  1.00  0.00     0.729 A
HETATM    8  N4  UNL     1      -4.626  68.633  10.795  1.00  0.00    -0.019 N
HETATM    9  C3  UNL     1      -5.287  67.466  10.549  1.00  0.00     0.704 A
ATOM     10  H4  UNL     1      -4.110  69.091  10.044  1.00  0.00     0.203 HD
HETATM   11  N6  UNL     1      -5.985  66.829  11.529  1.00  0.00    -0.165 N
HETATM   12  C5  UNL     1      -6.011  67.379  12.755  1.00  0.00     0.205 A
ATOM     13  H6  UNL     1      -6.476  65.955  11.339  1.00  0.00     0.186 HD
HETATM   14  S1  UNL     1      -6.845  66.631  13.947  1.00  0.00    -0.040 SA
HETATM   15  N7  UNL     1      -5.350  68.537  12.979  1.00  0.00    -0.163 N
ATOM     16  H7  UNL     1      -5.384  68.940  13.916  1.00  0.00     0.187 HD
BRANCH   9  17
HETATM   17  N5  UNL     1      -5.308  66.902   9.404  1.00  0.00    -0.133 N
HETATM   18  C4  UNL     1      -5.166  67.678   8.239  1.00  0.00     0.302 C
HETATM   19  O1  UNL     1      -4.092  68.250   7.981  1.00  0.00    -0.629 OA
HETATM   20  O2  UNL     1      -6.233  67.809   7.373  1.00  0.00    -0.629 OA
ATOM     21  H5  UNL     1      -5.428  65.892   9.333  1.00  0.00     0.190 HD
ENDBRANCH   9  17
ENDBRANCH   3   7
TORSDOF 3
ENDMDL