MODEL 1
REMARK VINA RESULT: -6.890150122      0.000      0.000
REMARK  2 active torsions:
REMARK  status: ('A' for Active; 'I' for Inactive)
REMARK    1  A    between atoms: C6_10  and  N2_11
REMARK    2  A    between atoms: C7_18  and  N6_19
ROOT
HETATM    1  N2  UNL     1      -4.420  67.770   9.969  1.00  0.00    -0.069 N
HETATM    2  N3  UNL     1      -4.890  68.888  10.565  1.00  0.00    -0.206 N
ATOM      3  H3  UNL     1      -5.820  69.276  10.400  1.00  0.00     0.211 HD
HETATM    4  N4  UNL     1      -4.014  69.412  11.372  1.00  0.00    -0.213 N
ATOM      5  H4  UNL     1      -4.142  70.255  11.931  1.00  0.00     0.210 HD
HETATM    6  N5  UNL     1      -2.946  68.671  11.341  1.00  0.00    -0.115 N
ATOM      7  H5  UNL     1      -2.085  68.819  11.866  1.00  0.00     0.207 HD
HETATM    8  C7  UNL     1      -3.212  67.633  10.446  1.00  0.00     0.714 A
ENDROOT
BRANCH   1   9
HETATM    9  C6  UNL     1      -5.184  67.135   8.975  1.00  0.00     0.094 A
HETATM   10  C2  UNL     1      -5.637  65.783   8.963  1.00  0.00     0.022 A
HETATM   11  C1  UNL     1      -5.420  64.956   9.984  1.00  0.00     0.029 C
HETATM   12  C3  UNL     1      -6.499  65.202   7.897  1.00  0.00     0.115 A
HETATM   13  S1  UNL     1      -6.960  63.650   7.955  1.00  0.00    -0.059 SA
HETATM   14  N1  UNL     1      -6.894  66.044   6.846  1.00  0.00    -0.314 N
HETATM   15  C4  UNL     1      -6.429  67.383   6.899  1.00  0.00     0.248 A
ATOM     16  H1  UNL     1      -7.483  65.711   6.083  1.00  0.00     0.170 HD
HETATM   17  O1  UNL     1      -6.769  68.174   5.966  1.00  0.00    -0.268 OA
HETATM   18  C5  UNL     1      -5.601  67.918   7.926  1.00  0.00     0.107 A
ENDBRANCH   1   9
BRANCH   8  19
HETATM   19  N6  UNL     1      -2.248  66.830  10.167  1.00  0.00    -0.231 N
ATOM     20  H62 UNL     1      -1.808  66.923   9.252  1.00  0.00     0.174 HD
ATOM     21  H61 UNL     1      -1.860  66.019  10.650  1.00  0.00     0.174 HD
ENDBRANCH   8  19
TORSDOF 2
ENDMDL