MODEL 5
REMARK VINA RESULT: -6.232051647      1.492      2.652
REMARK  2 active torsions:
REMARK  status: ('A' for Active; 'I' for Inactive)
REMARK    1  A    between atoms: C3_6  and  N3_7
REMARK    2  A    between atoms: C8_14  and  N5_15
ROOT
HETATM    1  N1  UNL     1      -2.711  71.893  13.972  1.00  0.00    -0.190 NA
HETATM    2  C1  UNL     1      -3.362  70.960  13.764  1.00  0.00     0.121 C
HETATM    3  C2  UNL     1      -4.202  69.800  13.503  1.00  0.00     0.153 A
HETATM    4  N2  UNL     1      -4.204  69.260  12.286  1.00  0.00    -0.328 N
ATOM      5  H2  UNL     1      -3.611  69.681  11.570  1.00  0.00     0.168 HD
HETATM    6  C3  UNL     1      -4.957  68.170  11.945  1.00  0.00     0.149 A
HETATM    7  C8  UNL     1      -5.737  67.642  12.942  1.00  0.00     0.144 A
HETATM    8  N6  UNL     1      -5.735  68.192  14.182  1.00  0.00    -0.329 N
ATOM      9  H6  UNL     1      -6.323  67.784  14.909  1.00  0.00     0.168 HD
HETATM   10  C9  UNL     1      -4.983  69.258  14.474  1.00  0.00     0.153 A
HETATM   11  C10 UNL     1      -4.959  69.864  15.778  1.00  0.00     0.121 C
HETATM   12  N7  UNL     1      -4.928  70.360  16.823  1.00  0.00    -0.190 NA
ENDROOT
BRANCH   6  13
HETATM   13  N3  UNL     1      -4.900  67.658  10.624  1.00  0.00    -0.361 N
HETATM   14  C4  UNL     1      -4.021  66.536  10.347  1.00  0.00     0.143 C
HETATM   15  C5  UNL     1      -4.881  65.495   9.658  1.00  0.00     0.133 C
HETATM   16  N4  UNL     1      -5.252  65.996   8.380  1.00  0.00    -0.418 N
HETATM   17  C6  UNL     1      -5.301  67.404   8.229  1.00  0.00     0.133 C
ATOM     18  H4  UNL     1      -5.473  65.370   7.606  1.00  0.00     0.153 HD
HETATM   19  C7  UNL     1      -5.647  68.158   9.504  1.00  0.00     0.143 C
ENDBRANCH   6  13
BRANCH   7  20
HETATM   20  N5  UNL     1      -6.477  66.624  12.724  1.00  0.00    -0.382 N
ATOM     21  H52 UNL     1      -6.395  66.141  11.829  1.00  0.00     0.157 HD
ATOM     22  H51 UNL     1      -7.139  66.298  13.429  1.00  0.00     0.157 HD
ENDBRANCH   7  20
TORSDOF 2
ENDMDL