MODEL 4
REMARK VINA RESULT: -7.204028082      1.890      2.913
REMARK  10 active torsions:
REMARK  status: ('A' for Active; 'I' for Inactive)
REMARK    1  A    between atoms: C2_2  and  C5_5
REMARK    2  A    between atoms: C5_5  and  O2_7
REMARK    3  A    between atoms: O2_7  and  C6_8
REMARK    4  A    between atoms: C6_8  and  C7_9
REMARK    5  A    between atoms: C9_11  and  O3_12
REMARK    6  A    between atoms: O3_12  and  C10_13
REMARK    7  A    between atoms: C10_13  and  C11_15
REMARK    8  A    between atoms: C11_15  and  C12_16
REMARK    9  A    between atoms: C12_16  and  C13_17
REMARK   10  A    between atoms: C18_24  and  O7_25
ROOT
HETATM    1  C7  UNL     1       8.904  26.409   4.318  1.00  0.00     0.010 C
HETATM    2  C8  UNL     1       8.465  25.482   5.436  1.00  0.00     0.020 C
HETATM    3  C9  UNL     1      10.057  25.699   3.664  1.00  0.00     0.142 C
HETATM    4  C14 UNL     1      10.092  25.844   2.152  1.00  0.00     0.034 C
HETATM    5  C15 UNL     1       8.900  25.029   1.807  1.00  0.00     0.014 C
HETATM    6  C16 UNL     1       7.754  25.997   2.077  1.00  0.00    -0.013 C
HETATM    7  C17 UNL     1       7.824  26.879   0.808  1.00  0.00     0.018 C
HETATM    8  C18 UNL     1       6.606  25.039   1.937  1.00  0.00     0.127 C
HETATM    9  C19 UNL     1       5.297  25.414   2.434  1.00  0.00     0.038 C
HETATM   10  C20 UNL     1       5.433  26.106   3.772  1.00  0.00     0.004 C
HETATM   11  C21 UNL     1       4.069  26.406   4.192  1.00  0.00    -0.043 C
HETATM   12  C22 UNL     1       3.061  26.433   3.021  1.00  0.00     0.015 C
HETATM   13  C23 UNL     1       3.525  25.164   4.958  1.00  0.00     0.015 C
HETATM   14  C24 UNL     1       3.825  27.539   5.122  1.00  0.00     0.009 C
HETATM   15  C25 UNL     1       4.880  28.558   5.207  1.00  0.00     0.002 C
HETATM   16  C26 UNL     1       6.276  28.091   4.906  1.00  0.00     0.010 C
HETATM   17  C27 UNL     1       6.469  27.200   3.741  1.00  0.00    -0.034 C
HETATM   18  C28 UNL     1       5.934  28.170   2.642  1.00  0.00     0.016 C
HETATM   19  C29 UNL     1       7.830  26.787   3.346  1.00  0.00     0.017 C
ENDROOT
BRANCH   1  20
HETATM   20  C6  UNL     1       9.548  27.570   5.047  1.00  0.00     0.191 C
BRANCH  20  21
HETATM   21  O2  UNL     1       9.003  28.235   6.038  1.00  0.00    -0.320 OA
BRANCH  21  22
HETATM   22  C5  UNL     1       8.699  28.811   7.132  1.00  0.00     0.266 C
HETATM   23  O1  UNL     1       8.511  30.048   7.124  1.00  0.00    -0.264 OA
BRANCH  22  24
HETATM   24  C2  UNL     1       8.558  28.063   8.429  1.00  0.00     0.037 C
HETATM   25  C1  UNL     1       9.863  27.341   8.757  1.00  0.00     0.025 C
HETATM   26  C3  UNL     1       7.487  27.008   8.309  1.00  0.00     0.025 C
HETATM   27  C4  UNL     1       8.263  29.022   9.534  1.00  0.00     0.025 C
ENDBRANCH  22  24
ENDBRANCH  21  22
ENDBRANCH  20  21
ENDBRANCH   1  20
BRANCH   3  28
HETATM   28  O3  UNL     1       9.987  24.289   3.871  1.00  0.00    -0.315 OA
BRANCH  28  29
HETATM   29  C10 UNL     1      11.078  23.511   4.178  1.00  0.00     0.259 C
HETATM   30  O4  UNL     1      11.968  23.315   3.316  1.00  0.00    -0.265 OA
BRANCH  29  31
HETATM   31  C11 UNL     1      11.231  22.890   5.518  1.00  0.00     0.121 C
BRANCH  31  32
HETATM   32  C12 UNL     1      11.341  23.849   6.644  1.00  0.00     0.123 C
BRANCH  32  33
HETATM   33  C13 UNL     1      12.517  24.722   6.658  1.00  0.00     0.172 C
HETATM   34  O5  UNL     1      13.629  24.187   6.899  1.00  0.00    -0.648 OA
HETATM   35  O6  UNL     1      12.451  26.075   6.423  1.00  0.00    -0.648 OA
ENDBRANCH  32  33
ENDBRANCH  31  32
ENDBRANCH  29  31
ENDBRANCH  28  29
ENDBRANCH   3  28
BRANCH   8  36
HETATM   36  O7  UNL     1       6.487  24.778   0.552  1.00  0.00    -0.395 OA
ATOM     37  H7  UNL     1       5.822  24.105   0.471  1.00  0.00     0.210 HD
ENDBRANCH   8  36
TORSDOF 10
ENDMDL