MODEL 2
REMARK VINA RESULT: -8.653170827      2.813      4.816
REMARK  9 active torsions:
REMARK  status: ('A' for Active; 'I' for Inactive)
REMARK    1  A    between atoms: C2_2  and  C3_3
REMARK    2  A    between atoms: C3_3  and  C5_5
REMARK    3  A    between atoms: C5_5  and  O2_7
REMARK    4  A    between atoms: O2_7  and  C6_8
REMARK    5  A    between atoms: C7_9  and  O3_10
REMARK    6  A    between atoms: C10_15  and  C11_16
REMARK    7  A    between atoms: C12_17  and  C13_18
REMARK    8  A    between atoms: C25_31  and  C27_33
REMARK    9  A    between atoms: C27_33  and  O6_34
ROOT
HETATM    1  C6  UNL     1       7.133  26.712   4.709  1.00  0.00     0.169 C
HETATM    2  C7  UNL     1       8.475  26.092   5.009  1.00  0.00     0.155 C
HETATM    3  C8  UNL     1       8.684  25.023   3.985  1.00  0.00     0.052 C
HETATM    4  C9  UNL     1       9.653  23.979   4.332  1.00  0.00     0.140 C
HETATM    5  O4  UNL     1      10.569  24.247   5.351  1.00  0.00    -0.375 OA
HETATM    6  C10 UNL     1      11.396  23.290   4.716  1.00  0.00     0.155 C
HETATM    7  C20 UNL     1      10.819  23.821   3.410  1.00  0.00     0.012 C
HETATM    8  C21 UNL     1      10.682  22.763   2.349  1.00  0.00     0.021 C
HETATM    9  C22 UNL     1      11.364  25.137   3.002  1.00  0.00     0.015 C
HETATM   10  C23 UNL     1      10.385  26.124   2.480  1.00  0.00     0.007 C
HETATM   11  C24 UNL     1       8.938  25.691   2.628  1.00  0.00     0.006 C
HETATM   12  C25 UNL     1       7.962  26.739   2.309  1.00  0.00    -0.009 C
HETATM   13  C26 UNL     1       8.656  28.030   1.869  1.00  0.00     0.018 C
HETATM   14  C28 UNL     1       6.875  27.006   3.289  1.00  0.00    -0.009 C
HETATM   15  C29 UNL     1       6.535  28.504   3.179  1.00  0.00     0.018 C
HETATM   16  C30 UNL     1       5.565  26.337   2.897  1.00  0.00     0.018 C
ENDROOT
BRANCH   6  17
HETATM   17  C11 UNL     1      12.831  23.471   4.921  1.00  0.00     0.005 C
HETATM   18  C12 UNL     1      13.503  22.617   5.678  1.00  0.00     0.009 C
BRANCH  18  19
HETATM   19  C13 UNL     1      14.971  22.749   5.924  1.00  0.00     0.075 C
HETATM   20  C14 UNL     1      15.590  23.486   4.758  1.00  0.00     0.050 C
HETATM   21  C15 UNL     1      15.170  23.553   7.161  1.00  0.00     0.042 C
HETATM   22  C16 UNL     1      16.567  23.458   7.723  1.00  0.00     0.006 C
HETATM   23  C17 UNL     1      17.138  22.064   7.601  1.00  0.00     0.032 C
HETATM   24  C18 UNL     1      16.927  21.624   6.168  1.00  0.00     0.119 C
HETATM   25  C19 UNL     1      17.684  20.358   5.842  1.00  0.00     0.039 C
HETATM   26  O5  UNL     1      15.559  21.491   5.978  1.00  0.00    -0.372 OA
ENDBRANCH  18  19
ENDBRANCH   6  17
BRANCH   2  27
HETATM   27  O3  UNL     1       9.503  27.007   5.099  1.00  0.00    -0.392 OA
ATOM     28  H3  UNL     1      10.014  27.089   4.302  1.00  0.00     0.210 HD
ENDBRANCH   2  27
BRANCH   1  29
HETATM   29  O2  UNL     1       7.053  27.887   5.533  1.00  0.00    -0.312 OA
BRANCH  29  30
HETATM   30  C5  UNL     1       6.649  27.830   6.858  1.00  0.00     0.263 C
HETATM   31  O1  UNL     1       5.465  27.473   7.057  1.00  0.00    -0.265 OA
BRANCH  30  32
HETATM   32  C3  UNL     1       7.518  28.161   7.996  1.00  0.00     0.081 C
HETATM   33  C4  UNL     1       8.486  29.278   7.687  1.00  0.00     0.020 C
BRANCH  32  34
HETATM   34  C2  UNL     1       8.325  26.985   8.483  1.00  0.00     0.010 C
HETATM   35  C1  UNL     1       9.778  27.300   8.657  1.00  0.00     0.006 C
ENDBRANCH  32  34
ENDBRANCH  30  32
ENDBRANCH  29  30
ENDBRANCH   1  29
BRANCH  12  36
HETATM   36  C27 UNL     1       7.258  26.332   0.993  1.00  0.00     0.174 C
BRANCH  36  37
HETATM   37  O6  UNL     1       7.712  27.269   0.047  1.00  0.00    -0.400 OA
ATOM     38  H6  UNL     1       7.391  26.940  -0.785  1.00  0.00     0.209 HD
ENDBRANCH  36  37
ENDBRANCH  12  36
TORSDOF 9
ENDMDL