MODEL 1
REMARK VINA RESULT: -7.674289054      0.000      0.000
REMARK  11 active torsions:
REMARK  status: ('A' for Active; 'I' for Inactive)
REMARK    1  A    between atoms: C2_2  and  C3_3
REMARK    2  A    between atoms: C4_4  and  C5_5
REMARK    3  A    between atoms: C4_4  and  C28_36
REMARK    4  A    between atoms: C5_5  and  O2_7
REMARK    5  A    between atoms: O2_7  and  C6_8
REMARK    6  A    between atoms: C16_18  and  O3_19
REMARK    7  A    between atoms: C19_23  and  O4_24
REMARK    8  A    between atoms: C20_26  and  O5_28
REMARK    9  A    between atoms: O5_28  and  C22_29
REMARK   10  A    between atoms: C22_29  and  C23_31
REMARK   11  A    between atoms: C23_31  and  C24_32
ROOT
HETATM    1  C6  UNL     1      10.407  25.060   4.462  1.00  0.00     0.190 C
HETATM    2  C7  UNL     1      11.378  25.835   3.694  1.00  0.00    -0.056 C
HETATM    3  C8  UNL     1      12.629  26.297   4.489  1.00  0.00     0.046 C
HETATM    4  C9  UNL     1      11.405  26.247   2.440  1.00  0.00    -0.022 C
HETATM    5  C10 UNL     1      10.382  26.040   1.344  1.00  0.00     0.028 C
HETATM    6  C11 UNL     1       9.117  26.205   2.015  1.00  0.00     0.009 C
HETATM    7  C12 UNL     1       7.833  26.786   1.813  1.00  0.00    -0.003 C
HETATM    8  C13 UNL     1       6.923  25.755   1.142  1.00  0.00    -0.012 C
HETATM    9  C14 UNL     1       5.591  26.342   0.783  1.00  0.00     0.010 C
HETATM   10  C15 UNL     1       6.832  24.466   1.880  1.00  0.00     0.037 C
HETATM   11  C16 UNL     1       6.660  24.563   3.379  1.00  0.00     0.123 C
HETATM   12  C17 UNL     1       6.973  25.819   4.013  1.00  0.00     0.031 C
HETATM   13  C18 UNL     1       8.049  26.200   4.929  1.00  0.00     0.059 C
HETATM   14  C19 UNL     1       9.305  25.620   5.262  1.00  0.00     0.159 C
HETATM   15  C20 UNL     1       7.755  27.569   4.355  1.00  0.00     0.078 C
HETATM   16  C21 UNL     1       8.747  28.649   4.450  1.00  0.00     0.047 C
HETATM   17  C27 UNL     1       7.158  27.059   3.114  1.00  0.00     0.032 C
ENDROOT
BRANCH   1  18
HETATM   18  O2  UNL     1      11.242  24.399   5.475  1.00  0.00    -0.305 OA
BRANCH  18  19
HETATM   19  C5  UNL     1      11.653  23.116   5.432  1.00  0.00     0.290 C
HETATM   20  O1  UNL     1      10.913  22.223   5.915  1.00  0.00    -0.260 OA
BRANCH  19  21
HETATM   21  C4  UNL     1      12.956  22.757   4.826  1.00  0.00     0.020 C
HETATM   22  C3  UNL     1      13.040  22.578   3.533  1.00  0.00     0.013 C
BRANCH  22  23
HETATM   23  C2  UNL     1      14.179  22.231   2.742  1.00  0.00    -0.010 C
HETATM   24  C1  UNL     1      14.346  21.006   2.295  1.00  0.00     0.011 C
ENDBRANCH  22  23
BRANCH  21  25
HETATM   25  C28 UNL     1      14.151  22.603   5.679  1.00  0.00     0.016 C
HETATM   26  C29 UNL     1      14.119  23.559   6.860  1.00  0.00     0.015 C
HETATM   27  C30 UNL     1      14.127  21.186   6.220  1.00  0.00     0.015 C
ENDBRANCH  21  25
ENDBRANCH  19  21
ENDBRANCH  18  19
ENDBRANCH   1  18
BRANCH  14  28
HETATM   28  O4  UNL     1       9.019  24.494   6.119  1.00  0.00    -0.392 OA
ATOM     29  H4  UNL     1       8.335  24.869   6.661  1.00  0.00     0.210 HD
ENDBRANCH  14  28
BRANCH  15  30
HETATM   30  O5  UNL     1       6.603  28.192   5.031  1.00  0.00    -0.310 OA
BRANCH  30  31
HETATM   31  C22 UNL     1       6.678  28.719   6.277  1.00  0.00     0.259 C
HETATM   32  O6  UNL     1       6.446  29.912   6.477  1.00  0.00    -0.265 OA
BRANCH  31  33
HETATM   33  C23 UNL     1       7.043  27.851   7.429  1.00  0.00     0.115 C
BRANCH  33  34
HETATM   34  C24 UNL     1       8.336  28.286   8.039  1.00  0.00    -0.013 C
HETATM   35  C25 UNL     1       8.001  29.200   9.219  1.00  0.00     0.010 C
HETATM   36  C26 UNL     1       9.069  27.082   8.584  1.00  0.00     0.010 C
ENDBRANCH  33  34
ENDBRANCH  31  33
ENDBRANCH  30  31
ENDBRANCH  15  30
BRANCH  11  37
HETATM   37  O3  UNL     1       7.336  23.489   4.024  1.00  0.00    -0.395 OA
ATOM     38  H3  UNL     1       7.067  22.659   3.648  1.00  0.00     0.210 HD
ENDBRANCH  11  37
TORSDOF 11
ENDMDL