MODEL 4
REMARK VINA RESULT: -8.079729141      3.380     11.692
REMARK  8 active torsions:
REMARK  status: ('A' for Active; 'I' for Inactive)
REMARK    1  A    between atoms: O1_2  and  C2_3
REMARK    2  A    between atoms: C3_4  and  O2_5
REMARK    3  A    between atoms: O2_5  and  C4_6
REMARK       I    between atoms: C4_6  and  N1_8
REMARK    4  A    between atoms: N1_8  and  C5_10
REMARK    5  A    between atoms: C5_10  and  C6_11
REMARK    6  A    between atoms: C6_11  and  O4_12
REMARK    7  A    between atoms: C18_25  and  O5_26
REMARK    8  A    between atoms: O5_26  and  C19_27
ROOT
HETATM    1  C2  UNL     1      14.665  22.309   4.626  1.00  0.00     0.159 C
HETATM    2  C3  UNL     1      13.375  22.870   5.155  1.00  0.00     0.163 C
HETATM    3  C7  UNL     1      12.948  22.072   6.339  1.00  0.00     0.036 C
HETATM    4  C8  UNL     1      13.992  21.133   6.845  1.00  0.00     0.013 C
HETATM    5  C9  UNL     1      15.343  21.817   7.006  1.00  0.00    -0.030 C
HETATM    6  C10 UNL     1      15.068  22.992   7.912  1.00  0.00     0.016 C
HETATM    7  C11 UNL     1      16.268  20.793   7.625  1.00  0.00    -0.001 C
HETATM    8  C12 UNL     1      16.082  20.535   9.047  1.00  0.00     0.006 C
HETATM    9  C13 UNL     1      17.139  20.971   9.997  1.00  0.00     0.007 C
HETATM   10  C14 UNL     1      18.548  20.827   9.550  1.00  0.00     0.004 C
HETATM   11  C15 UNL     1      19.446  20.090  10.513  1.00  0.00    -0.017 C
HETATM   12  C16 UNL     1      20.756  20.836  10.781  1.00  0.00     0.018 C
HETATM   13  C17 UNL     1      18.812  19.923  11.902  1.00  0.00     0.018 C
HETATM   14  C18 UNL     1      19.813  18.705  10.069  1.00  0.00     0.140 C
HETATM   15  C21 UNL     1      18.713  18.103   9.268  1.00  0.00     0.034 C
HETATM   16  C22 UNL     1      18.512  18.876   7.974  1.00  0.00     0.012 C
HETATM   17  C23 UNL     1      18.684  20.336   8.128  1.00  0.00    -0.035 C
HETATM   18  C24 UNL     1      20.017  20.725   7.498  1.00  0.00     0.016 C
HETATM   19  C25 UNL     1      17.668  21.156   7.313  1.00  0.00    -0.001 C
HETATM   20  C26 UNL     1      17.902  20.859   5.873  1.00  0.00     0.007 C
HETATM   21  C27 UNL     1      16.829  21.376   5.013  1.00  0.00     0.013 C
HETATM   22  C28 UNL     1      15.781  22.254   5.642  1.00  0.00    -0.008 C
HETATM   23  C29 UNL     1      16.336  23.660   5.733  1.00  0.00     0.019 C
ENDROOT
BRANCH   2  24
HETATM   24  O2  UNL     1      12.419  22.713   4.121  1.00  0.00    -0.296 OA
BRANCH  24  25
HETATM   25  C4  UNL     1      11.440  23.689   3.832  1.00  0.00     0.364 C
HETATM   26  O3  UNL     1      10.269  23.281   4.047  1.00  0.00    -0.238 OA
HETATM   27  N1  UNL     1      11.779  24.955   3.363  1.00  0.00    -0.314 N
ATOM     28  H1  UNL     1      12.775  25.146   3.248  1.00  0.00     0.170 HD
BRANCH  27  29
HETATM   29  C5  UNL     1      10.896  26.002   3.031  1.00  0.00     0.092 C
BRANCH  29  30
HETATM   30  C6  UNL     1      10.277  26.694   4.188  1.00  0.00     0.208 C
BRANCH  30  31
HETATM   31  O4  UNL     1       9.509  27.766   3.884  1.00  0.00    -0.396 OA
ATOM     32  H4  UNL     1       8.781  27.929   4.473  1.00  0.00     0.209 HD
ENDBRANCH  30  31
ENDBRANCH  29  30
ENDBRANCH  27  29
ENDBRANCH  24  25
ENDBRANCH   2  24
BRANCH   1  33
HETATM   33  O1  UNL     1      14.457  21.123   3.947  1.00  0.00    -0.387 OA
HETATM   34  C1  UNL     1      14.549  21.245   2.566  1.00  0.00     0.202 C
ENDBRANCH   1  33
BRANCH  14  35
HETATM   35  O5  UNL     1      20.037  17.868  11.215  1.00  0.00    -0.316 OA
BRANCH  35  36
HETATM   36  C19 UNL     1      21.177  17.099  11.370  1.00  0.00     0.255 C
HETATM   37  C20 UNL     1      21.184  15.716  11.859  1.00  0.00     0.126 C
HETATM   38  O6  UNL     1      22.278  17.630  11.070  1.00  0.00    -0.266 OA
ENDBRANCH  35  36
ENDBRANCH  14  35
TORSDOF 8
ENDMDL