MODEL 4
REMARK VINA RESULT: -9.418011982      2.712      5.797
REMARK  8 active torsions:
REMARK  status: ('A' for Active; 'I' for Inactive)
REMARK    1  A    between atoms: C3_3  and  C4_4
REMARK    2  A    between atoms: C5_6  and  C6_7
REMARK    3  A    between atoms: C6_7  and  C7_8
REMARK    4  A    between atoms: C7_8  and  O2_9
REMARK    5  A    between atoms: C16_21  and  C18_23
REMARK    6  A    between atoms: C18_23  and  O5_24
REMARK    7  A    between atoms: C18_23  and  O6_26
REMARK    8  A    between atoms: O6_26  and  C19_27
ROOT
HETATM    1  C7  UNL     1       9.241  24.840   4.310  1.00  0.00     0.074 C
HETATM    2  C8  UNL     1       8.683  23.922   3.306  1.00  0.00     0.066 C
HETATM    3  C9  UNL     1       9.762  22.852   3.262  1.00  0.00    -0.020 C
HETATM    4  C10 UNL     1      10.920  23.373   3.651  1.00  0.00    -0.068 C
HETATM    5  C11 UNL     1      12.292  22.785   3.800  1.00  0.00     0.020 C
HETATM    6  C12 UNL     1      13.128  22.951   2.572  1.00  0.00     0.013 C
HETATM    7  C13 UNL     1      14.290  21.961   2.657  1.00  0.00     0.044 C
HETATM    8  C14 UNL     1      14.559  21.605   4.091  1.00  0.00     0.120 A
HETATM    9  O3  UNL     1      14.205  20.338   4.496  1.00  0.00    -0.342 OA
HETATM   10  C15 UNL     1      15.491  20.786   4.657  1.00  0.00     0.297 A
HETATM   11  O4  UNL     1      15.863  21.296   5.896  1.00  0.00    -0.342 OA
HETATM   12  C16 UNL     1      14.918  22.233   6.295  1.00  0.00     0.117 C
HETATM   13  C17 UNL     1      13.866  21.596   7.163  1.00  0.00     0.052 C
HETATM   14  C21 UNL     1      14.407  22.793   5.016  1.00  0.00     0.069 C
HETATM   15  C22 UNL     1      12.991  23.295   5.047  1.00  0.00     0.004 C
HETATM   16  C23 UNL     1      12.994  24.800   5.008  1.00  0.00     0.007 C
HETATM   17  C24 UNL     1      11.545  25.237   5.127  1.00  0.00     0.017 C
HETATM   18  C25 UNL     1      10.723  24.810   3.960  1.00  0.00     0.011 C
HETATM   19  C26 UNL     1      11.011  25.593   2.705  1.00  0.00     0.023 C
ENDROOT
BRANCH   1  20
HETATM   20  C6  UNL     1       8.729  26.201   4.468  1.00  0.00     0.073 C
BRANCH  20  21
HETATM   21  C5  UNL     1       8.339  26.699   5.819  1.00  0.00     0.149 C
HETATM   22  O1  UNL     1       9.450  27.526   6.240  1.00  0.00    -0.371 OA
HETATM   23  C4  UNL     1       9.238  27.921   7.555  1.00  0.00     0.178 C
HETATM   24  C28 UNL     1       7.911  28.630   7.724  1.00  0.00     0.083 C
HETATM   25  O7  UNL     1       6.871  27.932   7.154  1.00  0.00    -0.376 OA
HETATM   26  C29 UNL     1       7.624  28.726   9.221  1.00  0.00     0.049 C
HETATM   27  C30 UNL     1       7.993  30.013   7.153  1.00  0.00     0.049 C
HETATM   28  C27 UNL     1       7.199  27.695   5.812  1.00  0.00     0.200 C
BRANCH  23  29
HETATM   29  C3  UNL     1       9.329  26.767   8.488  1.00  0.00     0.003 C
HETATM   30  C2  UNL     1      10.397  26.523   9.226  1.00  0.00    -0.032 C
HETATM   31  C1  UNL     1      11.568  27.418   9.142  1.00  0.00     0.036 C
ENDBRANCH  23  29
ENDBRANCH  20  21
ENDBRANCH   1  20
BRANCH   1  32
HETATM   32  O2  UNL     1       9.167  24.164   5.559  1.00  0.00    -0.388 OA
ATOM     33  H2  UNL     1       8.435  23.558   5.544  1.00  0.00     0.210 HD
ENDBRANCH   1  32
BRANCH  12  34
HETATM   34  C18 UNL     1      15.653  23.269   7.128  1.00  0.00     0.291 C
BRANCH  34  35
HETATM   35  O5  UNL     1      16.629  23.924   6.365  1.00  0.00    -0.368 OA
ATOM     36  H5  UNL     1      16.996  24.658   6.843  1.00  0.00     0.212 HD
ENDBRANCH  34  35
BRANCH  34  37
HETATM   37  O6  UNL     1      16.193  22.714   8.260  1.00  0.00    -0.359 OA
BRANCH  37  38
HETATM   38  C19 UNL     1      17.569  22.706   8.278  1.00  0.00     0.166 C
HETATM   39  C20 UNL     1      18.151  21.467   8.882  1.00  0.00     0.033 C
ENDBRANCH  37  38
ENDBRANCH  34  37
ENDBRANCH  12  34
TORSDOF 8
ENDMDL