MODEL 1
REMARK VINA RESULT: -7.502765844      0.000      0.000
REMARK  9 active torsions:
REMARK  status: ('A' for Active; 'I' for Inactive)
REMARK    1  A    between atoms: C13_13  and  O1_14
REMARK    2  A    between atoms: O1_14  and  C14_15
REMARK    3  A    between atoms: C14_15  and  C15_17
REMARK    4  A    between atoms: C23_25  and  O3_26
REMARK    5  A    between atoms: O3_26  and  C24_27
REMARK    6  A    between atoms: C24_27  and  C25_28
REMARK    7  A    between atoms: C25_28  and  C26_29
REMARK    8  A    between atoms: C26_29  and  C27_30
REMARK    9  A    between atoms: C29_34  and  O6_35
ROOT
HETATM    1  C1  UNL     1       9.422  21.854   1.254  1.00  0.00     0.019 C
HETATM    2  C2  UNL     1       9.471  22.943   2.094  1.00  0.00    -0.065 C
HETATM    3  C3  UNL     1       8.219  23.454   2.537  1.00  0.00     0.013 C
HETATM    4  C4  UNL     1       7.503  24.562   2.379  1.00  0.00    -0.061 C
HETATM    5  C5  UNL     1       6.168  24.474   3.170  1.00  0.00     0.048 C
HETATM    6  C6  UNL     1       7.689  25.764   1.608  1.00  0.00     0.013 C
HETATM    7  C7  UNL     1       8.339  26.893   1.613  1.00  0.00    -0.062 C
HETATM    8  C8  UNL     1       8.059  27.806   0.365  1.00  0.00     0.048 C
HETATM    9  C9  UNL     1       9.263  27.495   2.551  1.00  0.00     0.003 C
HETATM   10  C10 UNL     1       9.332  27.700   3.821  1.00  0.00    -0.019 C
HETATM   11  C11 UNL     1       8.432  27.386   4.932  1.00  0.00     0.034 C
HETATM   12  C12 UNL     1       7.725  28.674   5.297  1.00  0.00     0.017 C
HETATM   13  C13 UNL     1       9.144  26.772   6.144  1.00  0.00     0.140 C
HETATM   14  C19 UNL     1       9.467  25.321   5.971  1.00  0.00     0.043 C
HETATM   15  C20 UNL     1      10.798  24.800   5.939  1.00  0.00     0.028 C
HETATM   16  C21 UNL     1      12.037  25.484   5.665  1.00  0.00    -0.055 C
HETATM   17  C22 UNL     1      12.731  26.613   5.634  1.00  0.00     0.017 C
HETATM   18  C23 UNL     1      12.586  24.098   5.306  1.00  0.00     0.157 C
HETATM   19  C28 UNL     1      11.176  23.775   4.881  1.00  0.00     0.056 C
HETATM   20  C29 UNL     1      10.935  24.242   3.502  1.00  0.00     0.130 C
HETATM   21  C30 UNL     1      10.891  23.321   2.376  1.00  0.00     0.070 C
ENDROOT
BRANCH  13  22
HETATM   22  O1  UNL     1       8.243  27.005   7.217  1.00  0.00    -0.312 OA
BRANCH  22  23
HETATM   23  C14 UNL     1       8.367  27.869   8.233  1.00  0.00     0.283 C
HETATM   24  O2  UNL     1       7.337  28.206   8.852  1.00  0.00    -0.260 OA
BRANCH  23  25
HETATM   25  C15 UNL     1       9.642  28.418   8.631  1.00  0.00     0.084 C
HETATM   26  C16 UNL     1      10.555  27.659   9.199  1.00  0.00    -0.082 C
HETATM   27  C17 UNL     1      11.872  28.285   9.596  1.00  0.00     0.043 C
HETATM   28  C18 UNL     1      10.399  26.218   9.483  1.00  0.00     0.043 C
ENDBRANCH  23  25
ENDBRANCH  22  23
ENDBRANCH  13  22
BRANCH  18  29
HETATM   29  O3  UNL     1      12.974  23.497   6.482  1.00  0.00    -0.381 OA
BRANCH  29  30
HETATM   30  C24 UNL     1      14.259  22.960   6.413  1.00  0.00     0.169 C
BRANCH  30  31
HETATM   31  C25 UNL     1      14.773  22.947   4.991  1.00  0.00     0.037 C
BRANCH  31  32
HETATM   32  C26 UNL     1      15.133  21.525   4.613  1.00  0.00     0.115 C
BRANCH  32  33
HETATM   33  C27 UNL     1      14.686  21.235   3.231  1.00  0.00     0.172 C
HETATM   34  O4  UNL     1      14.117  22.137   2.569  1.00  0.00    -0.648 OA
HETATM   35  O5  UNL     1      14.863  20.006   2.615  1.00  0.00    -0.648 OA
ENDBRANCH  32  33
ENDBRANCH  31  32
ENDBRANCH  30  31
ENDBRANCH  29  30
ENDBRANCH  18  29
BRANCH  20  36
HETATM   36  O6  UNL     1      11.936  25.193   3.104  1.00  0.00    -0.395 OA
ATOM     37  H6  UNL     1      12.315  24.952   2.267  1.00  0.00     0.210 HD
ENDBRANCH  20  36
TORSDOF 9
ENDMDL