MODEL 3
REMARK VINA RESULT: -6.483050107      1.872      6.143
REMARK  8 active torsions:
REMARK  status: ('A' for Active; 'I' for Inactive)
REMARK    1  A    between atoms: C2_2  and  C3_3
REMARK    2  A    between atoms: C3_3  and  C4_4
REMARK    3  A    between atoms: C7_8  and  O2_9
REMARK    4  A    between atoms: C13_17  and  C14_18
REMARK    5  A    between atoms: C18_23  and  C19_24
REMARK    6  A    between atoms: C19_24  and  C20_25
REMARK    7  A    between atoms: C20_25  and  C21_26
REMARK    8  A    between atoms: C21_26  and  O5_29
ROOT
HETATM    1  C4  UNL     1      18.677  19.023   7.975  1.00  0.00     0.093 C
HETATM    2  O1  UNL     1      17.404  19.514   7.669  1.00  0.00    -0.359 OA
HETATM    3  C5  UNL     1      16.944  20.729   7.795  1.00  0.00     0.117 C
HETATM    4  C6  UNL     1      15.884  20.800   6.635  1.00  0.00     0.052 C
HETATM    5  C7  UNL     1      16.029  21.049   8.978  1.00  0.00     0.155 C
HETATM    6  C8  UNL     1      16.691  20.617  10.307  1.00  0.00     0.041 C
HETATM    7  C9  UNL     1      17.478  19.477   9.939  1.00  0.00     0.011 C
HETATM    8  C10 UNL     1      18.810  19.791   9.334  1.00  0.00     0.058 C
HETATM    9  C11 UNL     1      19.179  21.201   9.280  1.00  0.00     0.126 C
HETATM   10  C12 UNL     1      20.706  21.385   9.409  1.00  0.00     0.040 C
HETATM   11  O3  UNL     1      18.705  22.096   8.474  1.00  0.00    -0.370 OA
HETATM   12  C13 UNL     1      17.743  21.959   7.577  1.00  0.00     0.227 C
HETATM   13  C16 UNL     1      17.701  18.307  10.810  1.00  0.00    -0.005 C
HETATM   14  C17 UNL     1      16.327  17.743  11.204  1.00  0.00     0.021 C
HETATM   15  C18 UNL     1      18.573  18.565  11.979  1.00  0.00    -0.056 C
HETATM   16  C24 UNL     1      19.617  17.732  11.909  1.00  0.00    -0.018 C
HETATM   17  C25 UNL     1      19.557  16.850  10.722  1.00  0.00     0.038 C
HETATM   18  C26 UNL     1      18.343  17.301   9.942  1.00  0.00     0.035 C
HETATM   19  C27 UNL     1      18.740  17.659   8.478  1.00  0.00    -0.023 C
HETATM   20  C28 UNL     1      19.261  16.605   7.927  1.00  0.00     0.024 C
HETATM   21  C29 UNL     1      19.195  15.240   8.606  1.00  0.00     0.060 C
HETATM   22  C30 UNL     1      20.082  16.467   6.792  1.00  0.00     0.095 C
HETATM   23  N1  UNL     1      20.799  16.277   5.868  1.00  0.00    -0.192 NA
ENDROOT
BRANCH   1  24
HETATM   24  C3  UNL     1      19.655  19.487   7.018  1.00  0.00     0.043 C
BRANCH  24  25
HETATM   25  C2  UNL     1      19.149  20.000   5.696  1.00  0.00    -0.001 C
HETATM   26  C1  UNL     1      18.765  18.833   4.778  1.00  0.00     0.005 C
ENDBRANCH  24  25
ENDBRANCH   1  24
BRANCH  15  27
HETATM   27  C19 UNL     1      18.474  19.571  13.019  1.00  0.00    -0.016 C
BRANCH  27  28
HETATM   28  C20 UNL     1      19.292  19.615  14.209  1.00  0.00     0.064 C
BRANCH  28  29
HETATM   29  C21 UNL     1      20.484  20.498  14.308  1.00  0.00     0.054 C
HETATM   30  C22 UNL     1      21.099  21.073  13.109  1.00  0.00     0.045 C
HETATM   31  C23 UNL     1      21.577  19.608  14.971  1.00  0.00     0.045 C
BRANCH  29  32
HETATM   32  O5  UNL     1      20.231  21.557  15.221  1.00  0.00    -0.390 OA
ATOM     33  H5  UNL     1      20.738  22.323  14.979  1.00  0.00     0.210 HD
ENDBRANCH  29  32
ENDBRANCH  28  29
ENDBRANCH  27  28
ENDBRANCH  15  27
BRANCH   5  34
HETATM   34  O2  UNL     1      14.825  20.367   8.795  1.00  0.00    -0.392 OA
ATOM     35  H2  UNL     1      14.876  19.545   9.266  1.00  0.00     0.210 HD
ENDBRANCH   5  34
BRANCH  12  36
HETATM   36  C14 UNL     1      16.888  23.227   7.536  1.00  0.00     0.154 C
HETATM   37  C15 UNL     1      16.380  23.668   6.225  1.00  0.00     0.094 C
HETATM   38  O4  UNL     1      16.643  23.832   8.529  1.00  0.00    -0.295 OA
ENDBRANCH  12  36
TORSDOF 8
ENDMDL