MODEL 5
REMARK VINA RESULT: -8.099392401      4.623     11.743
REMARK  9 active torsions:
REMARK  status: ('A' for Active; 'I' for Inactive)
REMARK    1  A    between atoms: C2_2  and  C3_3
REMARK    2  A    between atoms: C5_5  and  C6_6
REMARK    3  A    between atoms: C7_7  and  C8_8
REMARK    4  A    between atoms: C10_10  and  O1_11
REMARK    5  A    between atoms: C12_14  and  C14_16
REMARK    6  A    between atoms: C14_16  and  O3_18
REMARK    7  A    between atoms: O3_18  and  C15_19
REMARK    8  A    between atoms: C15_19  and  C16_20
REMARK    9  A    between atoms: C29_35  and  O6_36
ROOT
HETATM    1  C8  UNL     1      11.582  25.275   4.789  1.00  0.00     0.012 C
HETATM    2  C9  UNL     1      12.602  26.350   4.656  1.00  0.00     0.023 C
HETATM    3  C10 UNL     1      10.833  25.142   3.483  1.00  0.00     0.132 C
HETATM    4  C11 UNL     1      10.087  26.409   3.200  1.00  0.00     0.052 C
HETATM    5  C12 UNL     1       9.009  26.697   4.246  1.00  0.00     0.053 C
HETATM    6  C13 UNL     1       8.708  28.189   3.931  1.00  0.00     0.026 C
HETATM    7  C20 UNL     1       9.614  26.658   5.571  1.00  0.00     0.040 C
HETATM    8  C21 UNL     1       8.839  27.099   6.770  1.00  0.00     0.071 C
HETATM    9  C22 UNL     1       7.392  26.954   6.753  1.00  0.00    -0.010 C
HETATM   10  C23 UNL     1       6.540  27.824   7.279  1.00  0.00    -0.025 C
HETATM   11  C24 UNL     1       6.954  29.076   7.966  1.00  0.00     0.004 C
HETATM   12  C25 UNL     1       6.819  30.297   7.086  1.00  0.00     0.014 C
HETATM   13  C26 UNL     1       8.424  28.991   8.369  1.00  0.00     0.009 C
HETATM   14  C27 UNL     1       9.143  28.565   7.130  1.00  0.00     0.025 C
HETATM   15  C28 UNL     1       9.288  26.377   8.029  1.00  0.00     0.274 C
HETATM   16  O4  UNL     1       8.458  25.955   8.891  1.00  0.00    -0.264 OA
HETATM   17  O5  UNL     1      10.628  26.195   8.206  1.00  0.00    -0.288 OA
HETATM   18  C29 UNL     1      11.419  25.999   7.056  1.00  0.00     0.276 C
HETATM   19  C30 UNL     1      10.556  25.497   5.878  1.00  0.00     0.026 C
HETATM   20  C31 UNL     1       9.896  24.216   6.206  1.00  0.00     0.022 C
ENDROOT
BRANCH   5  21
HETATM   21  C14 UNL     1       7.846  25.919   3.887  1.00  0.00     0.268 C
HETATM   22  O2  UNL     1       7.768  24.689   4.088  1.00  0.00    -0.264 OA
BRANCH  21  23
HETATM   23  O3  UNL     1       6.747  26.496   3.296  1.00  0.00    -0.317 OA
BRANCH  23  24
HETATM   24  C15 UNL     1       5.439  26.578   3.734  1.00  0.00     0.206 C
BRANCH  24  25
HETATM   25  C16 UNL     1       4.911  27.930   3.974  1.00  0.00     0.002 C
HETATM   26  C17 UNL     1       3.938  28.190   4.835  1.00  0.00    -0.089 C
HETATM   27  C18 UNL     1       3.294  27.121   5.633  1.00  0.00     0.042 C
HETATM   28  C19 UNL     1       3.437  29.575   5.046  1.00  0.00     0.042 C
ENDBRANCH  24  25
ENDBRANCH  23  24
ENDBRANCH  21  23
ENDBRANCH   5  21
BRANCH   3  29
HETATM   29  O1  UNL     1      11.785  24.989   2.477  1.00  0.00    -0.394 OA
ATOM     30  H1  UNL     1      11.411  25.347   1.680  1.00  0.00     0.210 HD
ENDBRANCH   3  29
BRANCH   1  31
HETATM   31  C7  UNL     1      12.291  24.012   5.048  1.00  0.00    -0.014 C
HETATM   32  C6  UNL     1      13.564  23.889   4.714  1.00  0.00    -0.003 C
BRANCH  32  33
HETATM   33  C5  UNL     1      14.291  22.645   4.961  1.00  0.00     0.006 C
HETATM   34  C3  UNL     1      14.575  21.743   4.041  1.00  0.00    -0.063 C
HETATM   35  C4  UNL     1      14.209  21.830   2.612  1.00  0.00     0.048 C
BRANCH  34  36
HETATM   36  C2  UNL     1      15.316  20.550   4.473  1.00  0.00    -0.004 C
HETATM   37  C1  UNL     1      14.697  19.460   4.804  1.00  0.00     0.012 C
ENDBRANCH  34  36
ENDBRANCH  32  33
ENDBRANCH   1  31
BRANCH  18  38
HETATM   38  O6  UNL     1      12.396  25.075   7.371  1.00  0.00    -0.370 OA
ATOM     39  H6  UNL     1      12.103  24.226   7.061  1.00  0.00     0.212 HD
ENDBRANCH  18  38
TORSDOF 9
ENDMDL