MODEL 5
REMARK VINA RESULT: -6.028185349     11.736     16.337
REMARK  8 active torsions:
REMARK  status: ('A' for Active; 'I' for Inactive)
REMARK    1  A    between atoms: C2_2  and  C4_4
REMARK    2  A    between atoms: C13_14  and  C14_15
REMARK    3  A    between atoms: C14_15  and  C15_16
REMARK    4  A    between atoms: C17_19  and  N1_20
REMARK       I    between atoms: N1_20  and  C18_21
REMARK    5  A    between atoms: C18_21  and  O4_23
REMARK    6  A    between atoms: O4_23  and  C19_24
REMARK    7  A    between atoms: C23_28  and  C24_29
REMARK    8  A    between atoms: C25_30  and  O5_31
ROOT
HETATM    1  C4  UNL     1      17.621  21.265   7.006  1.00  0.00     0.054 C
HETATM    2  C5  UNL     1      17.415  20.288   5.843  1.00  0.00     0.047 C
HETATM    3  C6  UNL     1      18.619  19.676   5.225  1.00  0.00     0.152 A
HETATM    4  O1  UNL     1      18.086  18.582   4.342  1.00  0.00    -0.375 OA
HETATM    5  C7  UNL     1      18.965  18.274   5.330  1.00  0.00     0.155 A
HETATM    6  C8  UNL     1      18.700  17.566   6.571  1.00  0.00     0.026 C
HETATM    7  C9  UNL     1      18.590  16.107   6.738  1.00  0.00     0.009 C
HETATM    8  C10 UNL     1      18.397  16.133   8.280  1.00  0.00     0.011 C
HETATM    9  C11 UNL     1      19.213  17.233   8.863  1.00  0.00    -0.029 C
HETATM   10  C12 UNL     1      20.446  16.520   9.505  1.00  0.00     0.016 C
HETATM   11  C13 UNL     1      18.656  18.166   9.857  1.00  0.00     0.046 C
HETATM   12  C17 UNL     1      19.042  19.630   9.799  1.00  0.00     0.133 C
HETATM   13  C22 UNL     1      17.840  20.640   9.625  1.00  0.00     0.092 C
HETATM   14  C23 UNL     1      17.292  20.583   8.278  1.00  0.00     0.092 C
HETATM   15  O6  UNL     1      18.098  19.532   8.011  1.00  0.00    -0.366 OA
HETATM   16  C26 UNL     1      19.415  19.896   8.398  1.00  0.00     0.166 C
HETATM   17  C27 UNL     1      20.414  19.059   7.741  1.00  0.00     0.046 C
HETATM   18  C28 UNL     1      19.779  17.739   7.569  1.00  0.00    -0.028 C
HETATM   19  C29 UNL     1      20.947  16.855   7.084  1.00  0.00     0.016 C
ENDROOT
BRANCH  12  20
HETATM   20  N1  UNL     1      19.775  20.098  10.862  1.00  0.00    -0.375 NA
HETATM   21  C18 UNL     1      20.499  20.563  11.919  1.00  0.00     0.435 C
HETATM   22  O3  UNL     1      20.170  20.722  13.133  1.00  0.00    -0.221 OA
BRANCH  21  23
HETATM   23  O4  UNL     1      21.880  20.965  11.742  1.00  0.00    -0.288 OA
BRANCH  23  24
HETATM   24  C19 UNL     1      22.245  22.271  12.056  1.00  0.00     0.126 C
HETATM   25  C20 UNL     1      21.987  23.211  10.895  1.00  0.00     0.040 C
HETATM   26  C21 UNL     1      23.747  22.328  12.358  1.00  0.00     0.040 C
ENDBRANCH  23  24
ENDBRANCH  21  23
ENDBRANCH  12  20
BRANCH  11  27
HETATM   27  C14 UNL     1      17.368  17.880  10.546  1.00  0.00     0.086 C
BRANCH  27  28
HETATM   28  C15 UNL     1      17.423  17.402  11.941  1.00  0.00     0.123 C
HETATM   29  C16 UNL     1      16.645  16.145  12.276  1.00  0.00     0.091 C
HETATM   30  O2  UNL     1      18.018  17.921  12.837  1.00  0.00    -0.298 OA
ENDBRANCH  27  28
ENDBRANCH  11  27
BRANCH  14  31
HETATM   31  C24 UNL     1      15.856  20.550   8.469  1.00  0.00     0.035 C
HETATM   32  C25 UNL     1      14.995  21.035   9.510  1.00  0.00     0.130 C
BRANCH  32  33
HETATM   33  O5  UNL     1      14.918  22.414   9.748  1.00  0.00    -0.373 OA
ATOM     34  H5  UNL     1      15.524  22.814  10.361  1.00  0.00     0.216 HD
ENDBRANCH  32  33
ENDBRANCH  14  31
BRANCH   1  35
HETATM   35  C2  UNL     1      16.964  22.568   6.811  1.00  0.00    -0.086 C
HETATM   36  C1  UNL     1      17.031  23.666   7.527  1.00  0.00     0.014 C
HETATM   37  C3  UNL     1      16.092  22.737   5.570  1.00  0.00     0.043 C
ENDBRANCH   1  35
TORSDOF 8
ENDMDL