MODEL 1
REMARK VINA RESULT: -8.478041828      0.000      0.000
REMARK  10 active torsions:
REMARK  status: ('A' for Active; 'I' for Inactive)
REMARK    1  A    between atoms: C5_5  and  C6_6
REMARK    2  A    between atoms: C6_6  and  O1_7
REMARK    3  A    between atoms: C6_6  and  C7_9
REMARK    4  A    between atoms: C6_6  and  C16_20
REMARK    5  A    between atoms: C7_9  and  C8_10
REMARK    6  A    between atoms: C10_12  and  C11_13
REMARK    7  A    between atoms: C11_13  and  O3_15
REMARK    8  A    between atoms: O3_15  and  C12_16
REMARK    9  A    between atoms: C16_20  and  O5_22
REMARK   10  A    between atoms: C22_29  and  C23_30
ROOT
HETATM    1  C1  UNL     1      15.118  21.251   8.260  1.00  0.00     0.015 C
HETATM    2  C2  UNL     1      15.505  21.640   7.067  1.00  0.00    -0.073 C
HETATM    3  C3  UNL     1      14.983  23.062   6.870  1.00  0.00     0.043 C
HETATM    4  C4  UNL     1      15.153  23.780   8.164  1.00  0.00     0.017 C
HETATM    5  C5  UNL     1      13.549  22.814   6.463  1.00  0.00     0.174 C
HETATM    6  O6  UNL     1      13.373  21.601   5.851  1.00  0.00    -0.376 OA
HETATM    7  C18 UNL     1      14.193  21.007   5.029  1.00  0.00     0.127 C
HETATM    8  C19 UNL     1      15.182  21.747   4.239  1.00  0.00     0.033 C
HETATM    9  C20 UNL     1      16.337  21.649   4.838  1.00  0.00     0.017 C
HETATM   10  C21 UNL     1      16.226  20.806   6.119  1.00  0.00    -0.007 C
HETATM   11  C22 UNL     1      17.512  20.232   6.334  1.00  0.00     0.002 C
HETATM   12  C26 UNL     1      17.745  18.948   5.504  1.00  0.00     0.006 C
HETATM   13  C27 UNL     1      16.989  18.931   4.236  1.00  0.00     0.005 C
HETATM   14  C28 UNL     1      15.522  18.901   4.586  1.00  0.00    -0.011 C
HETATM   15  C29 UNL     1      14.754  18.841   3.296  1.00  0.00     0.010 C
HETATM   16  C30 UNL     1      15.095  19.877   5.588  1.00  0.00     0.031 C
ENDROOT
BRANCH   5  17
HETATM   17  C6  UNL     1      12.867  23.951   5.764  1.00  0.00     0.175 C
BRANCH  17  18
HETATM   18  O1  UNL     1      13.686  24.621   4.860  1.00  0.00    -0.377 OA
ATOM     19  H1  UNL     1      13.223  25.259   4.330  1.00  0.00     0.211 HD
ENDBRANCH  17  18
BRANCH  17  20
HETATM   20  C7  UNL     1      11.713  23.263   4.979  1.00  0.00     0.085 C
BRANCH  20  21
HETATM   21  C8  UNL     1      11.635  23.677   3.605  1.00  0.00    -0.074 C
HETATM   22  C9  UNL     1      12.462  22.882   2.616  1.00  0.00     0.043 C
HETATM   23  C10 UNL     1      10.926  24.656   3.130  1.00  0.00     0.084 C
BRANCH  23  24
HETATM   24  C11 UNL     1      10.044  25.572   3.816  1.00  0.00     0.283 C
HETATM   25  O2  UNL     1      10.470  26.757   4.106  1.00  0.00    -0.260 OA
BRANCH  24  26
HETATM   26  O3  UNL     1       8.755  25.337   4.215  1.00  0.00    -0.308 OA
BRANCH  26  27
HETATM   27  C12 UNL     1       7.606  25.480   3.435  1.00  0.00     0.060 C
HETATM   28  C13 UNL     1       6.753  24.234   3.408  1.00  0.00     0.046 C
HETATM   29  C14 UNL     1       6.767  26.589   4.042  1.00  0.00     0.046 C
HETATM   30  C15 UNL     1       7.911  25.884   2.004  1.00  0.00     0.046 C
ENDBRANCH  26  27
ENDBRANCH  24  26
ENDBRANCH  23  24
ENDBRANCH  20  21
ENDBRANCH  17  20
BRANCH  17  31
HETATM   31  C16 UNL     1      12.240  24.943   6.647  1.00  0.00     0.296 C
HETATM   32  O4  UNL     1      12.852  25.985   7.044  1.00  0.00    -0.262 OA
BRANCH  31  33
HETATM   33  O5  UNL     1      10.954  24.792   7.086  1.00  0.00    -0.324 OA
HETATM   34  C17 UNL     1      10.198  25.898   7.543  1.00  0.00     0.213 C
ENDBRANCH  31  33
ENDBRANCH  17  31
ENDBRANCH   5  17
BRANCH  11  35
HETATM   35  C23 UNL     1      18.173  19.929   7.614  1.00  0.00    -0.018 C
HETATM   36  C24 UNL     1      18.817  18.587   7.765  1.00  0.00     0.010 C
HETATM   37  C25 UNL     1      18.878  21.057   8.326  1.00  0.00     0.010 C
ENDBRANCH  11  35
TORSDOF 10
ENDMDL