MODEL 1
REMARK VINA RESULT: -6.396527122      0.000      0.000
REMARK  18 active torsions:
REMARK  status: ('A' for Active; 'I' for Inactive)
REMARK    1  A    between atoms: C2_2  and  C3_3
REMARK    2  A    between atoms: C3_3  and  C4_4
REMARK    3  A    between atoms: C3_3  and  C6_6
REMARK    4  A    between atoms: C7_8  and  C8_9
REMARK    5  A    between atoms: C8_9  and  C9_10
REMARK    6  A    between atoms: C9_10  and  C10_11
REMARK       I    between atoms: C10_11  and  N1_13
REMARK    7  A    between atoms: N1_13  and  C11_15
REMARK    8  A    between atoms: C11_15  and  C12_16
REMARK    9  A    between atoms: C12_16  and  C13_17
REMARK   10  A    between atoms: C13_17  and  C14_18
REMARK   11  A    between atoms: C14_18  and  C15_19
REMARK   12  A    between atoms: C15_19  and  C16_20
REMARK   13  A    between atoms: C16_20  and  C17_21
REMARK   14  A    between atoms: C17_21  and  N2_22
REMARK   15  A    between atoms: C26_31  and  C27_32
REMARK   16  A    between atoms: C30_35  and  O3_36
REMARK   17  A    between atoms: C35_42  and  N3_43
REMARK   18  A    between atoms: C38_47  and  O4_48
ROOT
HETATM    1  C6  UNL     1     -13.112   9.728  35.044  1.00  0.00     0.154 C
HETATM    2  O1  UNL     1     -12.928   9.790  33.688  1.00  0.00    -0.378 OA
HETATM    3  C7  UNL     1     -13.731  10.389  32.855  1.00  0.00     0.122 C
HETATM    4  C20 UNL     1     -15.193  10.065  32.858  1.00  0.00     0.032 C
HETATM    5  C21 UNL     1     -15.616   8.860  32.104  1.00  0.00     0.007 C
HETATM    6  C22 UNL     1     -16.934   8.284  32.579  1.00  0.00     0.033 C
HETATM    7  C23 UNL     1     -17.938   9.327  32.863  1.00  0.00    -0.087 C
HETATM    8  C24 UNL     1     -18.309  10.207  31.685  1.00  0.00     0.043 C
HETATM    9  C25 UNL     1     -18.543   9.580  33.988  1.00  0.00    -0.017 C
HETATM   10  C26 UNL     1     -18.377   8.877  35.286  1.00  0.00     0.044 C
HETATM   11  C30 UNL     1     -18.267   9.917  36.390  1.00  0.00     0.148 C
HETATM   12  C31 UNL     1     -17.225   9.638  37.381  1.00  0.00     0.002 C
HETATM   13  C32 UNL     1     -16.218  10.380  37.741  1.00  0.00    -0.022 C
HETATM   14  C33 UNL     1     -15.853  11.730  37.227  1.00  0.00     0.026 C
HETATM   15  C34 UNL     1     -16.650  12.704  38.066  1.00  0.00     0.016 C
HETATM   16  C35 UNL     1     -14.340  11.956  37.356  1.00  0.00     0.085 C
HETATM   17  C37 UNL     1     -13.688  12.002  35.993  1.00  0.00     0.059 C
HETATM   18  C38 UNL     1     -12.633  10.909  35.805  1.00  0.00     0.149 C
ENDROOT
BRANCH   3  19
HETATM   19  C8  UNL     1     -13.266  10.314  31.433  1.00  0.00     0.041 C
BRANCH  19  20
HETATM   20  C9  UNL     1     -13.097  11.589  30.698  1.00  0.00     0.105 C
BRANCH  20  21
HETATM   21  C10 UNL     1     -13.401  12.851  31.373  1.00  0.00     0.217 C
HETATM   22  O2  UNL     1     -14.540  13.349  31.386  1.00  0.00    -0.274 OA
HETATM   23  N1  UNL     1     -12.378  13.590  32.068  1.00  0.00    -0.361 N
ATOM     24  H1  UNL     1     -11.426  13.226  32.089  1.00  0.00     0.162 HD
BRANCH  23  25
HETATM   25  C11 UNL     1     -12.672  14.826  32.731  1.00  0.00     0.122 C
BRANCH  25  26
HETATM   26  C12 UNL     1     -12.188  14.765  34.152  1.00  0.00     0.020 C
BRANCH  26  27
HETATM   27  C13 UNL     1     -10.683  14.793  34.264  1.00  0.00     0.002 C
BRANCH  27  28
HETATM   28  C14 UNL     1     -10.220  16.103  34.829  1.00  0.00     0.000 C
BRANCH  28  29
HETATM   29  C15 UNL     1      -8.767  16.416  34.545  1.00  0.00     0.002 C
BRANCH  29  30
HETATM   30  C16 UNL     1      -8.432  15.751  33.225  1.00  0.00     0.030 C
BRANCH  30  31
HETATM   31  C17 UNL     1      -8.467  16.733  32.071  1.00  0.00     0.271 C
BRANCH  31  32
HETATM   32  N2  UNL     1      -9.565  16.417  31.182  1.00  0.00     0.080 N
HETATM   33  C18 UNL     1      -9.390  15.081  30.676  1.00  0.00     0.309 C
HETATM   34  C19 UNL     1      -9.573  17.328  30.058  1.00  0.00     0.309 C
ENDBRANCH  31  32
ENDBRANCH  30  31
ENDBRANCH  29  30
ENDBRANCH  28  29
ENDBRANCH  27  28
ENDBRANCH  26  27
ENDBRANCH  25  26
ENDBRANCH  23  25
ENDBRANCH  20  21
ENDBRANCH  19  20
ENDBRANCH   3  19
BRANCH   1  35
HETATM   35  C3  UNL     1     -12.271   8.505  35.449  1.00  0.00     0.016 C
BRANCH  35  36
HETATM   36  C2  UNL     1     -11.521   8.607  36.695  1.00  0.00     0.002 C
HETATM   37  C1  UNL     1     -11.211   7.433  37.520  1.00  0.00     0.005 C
ENDBRANCH  35  36
BRANCH  35  38
HETATM   38  C4  UNL     1     -13.111   7.258  35.411  1.00  0.00     0.002 C
HETATM   39  C5  UNL     1     -14.576   7.436  35.571  1.00  0.00     0.005 C
ENDBRANCH  35  38
ENDBRANCH   1  35
BRANCH  18  40
HETATM   40  O4  UNL     1     -11.504  11.508  35.177  1.00  0.00    -0.393 OA
ATOM     41  H4  UNL     1     -10.954  11.958  35.809  1.00  0.00     0.210 HD
ENDBRANCH  18  40
BRANCH  16  42
HETATM   42  N3  UNL     1     -14.018  13.190  38.013  1.00  0.00    -0.421 N
HETATM   43  C36 UNL     1     -13.120  13.088  39.119  1.00  0.00     0.140 C
ATOM     44  H3  UNL     1     -14.406  14.084  37.710  1.00  0.00     0.153 HD
ENDBRANCH  16  42
BRANCH  10  45
HETATM   45  C27 UNL     1     -19.485   7.897  35.542  1.00  0.00    -0.012 C
HETATM   46  C28 UNL     1     -19.008   6.470  35.663  1.00  0.00     0.010 C
HETATM   47  C29 UNL     1     -20.597   7.932  34.548  1.00  0.00     0.010 C
ENDBRANCH  10  45
BRANCH  11  48
HETATM   48  O3  UNL     1     -19.500  10.095  37.024  1.00  0.00    -0.391 OA
ATOM     49  H3  UNL     1     -19.557   9.557  37.805  1.00  0.00     0.210 HD
ENDBRANCH  11  48
TORSDOF 18
ENDMDL