MODEL 3
REMARK VINA RESULT: -8.545657985      4.269     13.515
REMARK  18 active torsions:
REMARK  status: ('A' for Active; 'I' for Inactive)
REMARK    1  A    between atoms: C2_2  and  N1_3
REMARK    2  A    between atoms: N2_6  and  C5_7
REMARK    3  A    between atoms: C5_7  and  C6_8
REMARK       I    between atoms: C6_8  and  N3_10
REMARK    4  A    between atoms: N3_10  and  C7_12
REMARK    5  A    between atoms: C7_12  and  C9_14
REMARK    6  A    between atoms: C15_20  and  O2_21
REMARK    7  A    between atoms: C17_26  and  N5_27
REMARK    8  A    between atoms: N5_27  and  C18_29
REMARK    9  A    between atoms: C18_29  and  C19_30
REMARK   10  A    between atoms: C19_30  and  C20_31
REMARK   11  A    between atoms: C20_31  and  C21_32
REMARK   12  A    between atoms: C21_32  and  C22_33
REMARK   13  A    between atoms: C22_33  and  C23_34
REMARK   14  A    between atoms: C23_34  and  C24_35
REMARK   15  A    between atoms: C24_35  and  C25_36
REMARK   16  A    between atoms: C25_36  and  C26_37
REMARK   17  A    between atoms: C26_37  and  C27_38
REMARK   18  A    between atoms: C27_38  and  N6_39
ROOT
HETATM    1  C9  UNL     1      -9.942  15.972  33.527  1.00  0.00     0.016 C
HETATM    2  C10 UNL     1     -11.373  15.807  33.073  1.00  0.00     0.008 C
HETATM    3  C11 UNL     1     -11.291  15.037  31.800  1.00  0.00     0.006 C
HETATM    4  C12 UNL     1      -9.861  15.004  31.356  1.00  0.00    -0.001 C
HETATM    5  C13 UNL     1      -9.634  15.428  29.938  1.00  0.00    -0.002 C
HETATM    6  C14 UNL     1     -10.630  16.390  29.403  1.00  0.00     0.039 C
HETATM    7  C15 UNL     1     -10.217  17.295  28.312  1.00  0.00     0.142 C
HETATM    8  C16 UNL     1      -8.919  17.068  27.656  1.00  0.00     0.120 C
HETATM    9  N4  UNL     1      -8.245  18.375  27.553  1.00  0.00    -0.372 N
ATOM     10  H4  UNL     1      -8.749  19.219  27.827  1.00  0.00     0.161 HD
HETATM   11  C17 UNL     1      -7.048  18.476  27.129  1.00  0.00     0.073 C
HETATM   12  C28 UNL     1      -6.339  17.223  26.782  1.00  0.00     0.076 C
HETATM   13  C29 UNL     1      -6.581  16.177  27.835  1.00  0.00     0.019 C
HETATM   14  C30 UNL     1      -8.019  16.028  28.227  1.00  0.00    -0.017 C
HETATM   15  C31 UNL     1      -8.460  14.695  27.589  1.00  0.00     0.018 C
HETATM   16  C32 UNL     1      -8.188  15.812  29.713  1.00  0.00     0.000 C
HETATM   17  C33 UNL     1      -7.739  16.930  30.577  1.00  0.00     0.006 C
HETATM   18  C34 UNL     1      -8.536  17.071  31.846  1.00  0.00     0.010 C
HETATM   19  C35 UNL     1      -9.035  15.735  32.384  1.00  0.00    -0.035 C
HETATM   20  C36 UNL     1      -7.803  14.970  32.781  1.00  0.00     0.016 C
ENDROOT
BRANCH  11  21
HETATM   21  N5  UNL     1      -6.414  19.720  27.033  1.00  0.00    -0.380 N
ATOM     22  H5  UNL     1      -6.975  20.503  27.368  1.00  0.00     0.160 HD
BRANCH  21  23
HETATM   23  C18 UNL     1      -5.137  20.087  26.554  1.00  0.00     0.121 C
BRANCH  23  24
HETATM   24  C19 UNL     1      -4.955  20.175  25.084  1.00  0.00     0.020 C
BRANCH  24  25
HETATM   25  C20 UNL     1      -4.014  19.193  24.500  1.00  0.00     0.002 C
BRANCH  25  26
HETATM   26  C21 UNL     1      -4.602  18.401  23.344  1.00  0.00     0.000 C
BRANCH  26  27
HETATM   27  C22 UNL     1      -6.104  18.609  23.272  1.00  0.00     0.000 C
BRANCH  27  28
HETATM   28  C23 UNL     1      -6.693  18.031  22.023  1.00  0.00     0.000 C
BRANCH  28  29
HETATM   29  C24 UNL     1      -7.946  17.221  22.266  1.00  0.00     0.000 C
BRANCH  29  30
HETATM   30  C25 UNL     1      -8.130  16.896  23.719  1.00  0.00     0.002 C
BRANCH  30  31
HETATM   31  C26 UNL     1      -8.669  15.527  23.968  1.00  0.00     0.027 C
BRANCH  31  32
HETATM   32  C27 UNL     1     -10.120  15.346  23.653  1.00  0.00     0.229 C
BRANCH  32  33
HETATM   33  N6  UNL     1     -10.866  16.088  24.658  1.00  0.00    -0.079 N
ATOM     34  H63 UNL     1     -10.378  16.923  24.984  1.00  0.00     0.274 HD
ATOM     35  H62 UNL     1     -11.690  16.557  24.281  1.00  0.00     0.274 HD
ATOM     36  H61 UNL     1     -11.085  15.433  25.408  1.00  0.00     0.274 HD
ENDBRANCH  32  33
ENDBRANCH  31  32
ENDBRANCH  30  31
ENDBRANCH  29  30
ENDBRANCH  28  29
ENDBRANCH  27  28
ENDBRANCH  26  27
ENDBRANCH  25  26
ENDBRANCH  24  25
ENDBRANCH  23  24
ENDBRANCH  21  23
ENDBRANCH  11  21
BRANCH   7  37
HETATM   37  O2  UNL     1     -11.233  17.263  27.313  1.00  0.00    -0.393 OA
ATOM     38  H2  UNL     1     -12.003  17.689  27.670  1.00  0.00     0.210 HD
ENDBRANCH   7  37
BRANCH   1  39
HETATM   39  C7  UNL     1      -9.747  15.158  34.757  1.00  0.00     0.085 C
HETATM   40  C8  UNL     1      -8.815  16.002  35.658  1.00  0.00     0.032 C
BRANCH  39  41
HETATM   41  N3  UNL     1     -10.921  14.926  35.550  1.00  0.00    -0.352 N
HETATM   42  C6  UNL     1     -11.544  13.649  35.667  1.00  0.00     0.256 C
HETATM   43  O1  UNL     1     -11.031  12.691  35.047  1.00  0.00    -0.267 OA
ATOM     44  H3  UNL     1     -11.329  15.713  36.054  1.00  0.00     0.163 HD
BRANCH  42  45
HETATM   45  C5  UNL     1     -12.752  13.426  36.481  1.00  0.00     0.160 C
BRANCH  45  46
HETATM   46  N2  UNL     1     -12.790  12.120  37.008  1.00  0.00    -0.382 N
HETATM   47  C4  UNL     1     -12.317  11.976  38.332  1.00  0.00     0.141 C
HETATM   48  C3  UNL     1     -11.943  10.532  38.655  1.00  0.00     0.136 C
HETATM   49  N1  UNL     1     -13.010   9.665  38.279  1.00  0.00    -0.410 N
HETATM   50  C38 UNL     1     -14.166  10.272  37.715  1.00  0.00     0.136 C
HETATM   51  C37 UNL     1     -13.867  11.280  36.613  1.00  0.00     0.141 C
BRANCH  49  52
HETATM   52  C2  UNL     1     -12.639   8.391  37.766  1.00  0.00     0.112 C
HETATM   53  C1  UNL     1     -11.347   8.383  36.976  1.00  0.00     0.026 C
ENDBRANCH  49  52
ENDBRANCH  45  46
ENDBRANCH  42  45
ENDBRANCH  39  41
ENDBRANCH   1  39
TORSDOF 18
ENDMDL