MODEL 5
REMARK VINA RESULT: -8.865378414      1.895      3.686
REMARK  17 active torsions:
REMARK  status: ('A' for Active; 'I' for Inactive)
REMARK    1  A    between atoms: C2_2  and  C3_3
REMARK    2  A    between atoms: C4_4  and  C5_5
REMARK    3  A    between atoms: C5_5  and  C8_8
REMARK    4  A    between atoms: C8_8  and  C9_9
REMARK    5  A    between atoms: C9_9  and  C10_10
REMARK       I    between atoms: C10_10  and  N1_12
REMARK    6  A    between atoms: N1_12  and  C11_14
REMARK    7  A    between atoms: C11_14  and  C12_15
REMARK    8  A    between atoms: C12_15  and  C13_16
REMARK    9  A    between atoms: C13_16  and  C14_17
REMARK   10  A    between atoms: C14_17  and  C15_18
REMARK   11  A    between atoms: C15_18  and  N2_21
REMARK       I    between atoms: N2_21  and  C18_23
REMARK       I    between atoms: C18_23  and  N3_25
REMARK       I    between atoms: N3_25  and  C19_27
REMARK   12  A    between atoms: C19_27  and  C20_29
REMARK   13  A    between atoms: C20_29  and  C21_30
REMARK   14  A    between atoms: C26_37  and  C28_39
REMARK   15  A    between atoms: C28_39  and  C29_40
REMARK   16  A    between atoms: C29_40  and  C30_41
REMARK   17  A    between atoms: C36_47  and  O6_49
ROOT
HETATM    1  N2  UNL     1      -5.820  18.044  28.242  1.00  0.00    -0.334 N
ATOM      2  H2  UNL     1      -5.355  17.601  29.035  1.00  0.00     0.165 HD
HETATM    3  C18 UNL     1      -7.147  18.429  28.364  1.00  0.00     0.323 C
HETATM    4  O2  UNL     1      -7.703  18.993  27.341  1.00  0.00    -0.247 OA
HETATM    5  N3  UNL     1      -7.995  18.292  29.470  1.00  0.00    -0.279 N
ATOM      6  H3  UNL     1      -8.933  18.686  29.399  1.00  0.00     0.173 HD
HETATM    7  C19 UNL     1      -7.636  17.634  30.699  1.00  0.00     0.226 C
HETATM    8  O3  UNL     1      -6.482  17.190  30.799  1.00  0.00    -0.273 OA
ENDROOT
BRANCH   7   9
HETATM    9  C20 UNL     1      -8.671  17.531  31.752  1.00  0.00     0.118 C
BRANCH   9  10
HETATM   10  C21 UNL     1      -8.816  16.344  32.555  1.00  0.00     0.105 C
HETATM   11  C22 UNL     1      -9.055  16.828  33.979  1.00  0.00     0.265 C
HETATM   12  O4  UNL     1      -8.214  17.329  34.763  1.00  0.00    -0.265 OA
HETATM   13  O5  UNL     1     -10.409  16.569  34.160  1.00  0.00    -0.310 OA
HETATM   14  C23 UNL     1     -10.743  15.356  33.506  1.00  0.00     0.071 C
HETATM   15  C24 UNL     1     -12.179  15.269  33.077  1.00  0.00     0.047 C
HETATM   16  C25 UNL     1     -10.672  14.305  34.633  1.00  0.00     0.047 C
HETATM   17  C26 UNL     1      -9.696  15.224  32.474  1.00  0.00     0.000 C
HETATM   18  C27 UNL     1      -8.814  14.041  33.066  1.00  0.00     0.019 C
BRANCH  17  19
HETATM   19  C28 UNL     1     -10.082  14.567  31.202  1.00  0.00     0.013 C
BRANCH  19  20
HETATM   20  C29 UNL     1     -10.491  15.349  30.031  1.00  0.00     0.008 C
BRANCH  20  21
HETATM   21  C30 UNL     1     -10.310  14.615  28.716  1.00  0.00     0.019 C
HETATM   22  C31 UNL     1     -11.562  14.029  28.145  1.00  0.00     0.008 C
HETATM   23  C32 UNL     1     -12.104  14.892  27.008  1.00  0.00     0.005 C
HETATM   24  C33 UNL     1     -11.064  15.066  25.957  1.00  0.00    -0.016 C
HETATM   25  C34 UNL     1     -11.101  16.474  25.443  1.00  0.00     0.010 C
HETATM   26  C35 UNL     1      -9.681  14.624  26.372  1.00  0.00     0.042 C
HETATM   27  C36 UNL     1      -9.389  15.248  27.740  1.00  0.00     0.058 C
HETATM   28  C37 UNL     1      -7.938  14.930  28.067  1.00  0.00     0.046 C
BRANCH  27  29
HETATM   29  O6  UNL     1      -9.467  16.593  27.550  1.00  0.00    -0.390 OA
ATOM     30  H6  UNL     1      -8.780  17.022  27.054  1.00  0.00     0.210 HD
ENDBRANCH  27  29
ENDBRANCH  20  21
ENDBRANCH  19  20
ENDBRANCH  17  19
ENDBRANCH   9  10
ENDBRANCH   7   9
BRANCH   1  31
HETATM   31  C15 UNL     1      -5.067  18.259  26.999  1.00  0.00     0.027 C
HETATM   32  C16 UNL     1      -5.233  19.671  26.553  1.00  0.00     0.038 C
HETATM   33  C17 UNL     1      -3.557  18.130  27.351  1.00  0.00     0.038 C
BRANCH  31  34
HETATM   34  C14 UNL     1      -5.440  17.191  26.028  1.00  0.00     0.030 C
BRANCH  34  35
HETATM   35  C13 UNL     1      -6.162  17.602  24.799  1.00  0.00     0.004 C
BRANCH  35  36
HETATM   36  C12 UNL     1      -7.434  16.901  24.558  1.00  0.00     0.020 C
BRANCH  36  37
HETATM   37  C11 UNL     1      -8.007  17.184  23.181  1.00  0.00     0.122 C
BRANCH  37  38
HETATM   38  N1  UNL     1      -7.100  16.667  22.192  1.00  0.00    -0.361 N
HETATM   39  C10 UNL     1      -7.243  16.918  20.808  1.00  0.00     0.217 C
HETATM   40  O1  UNL     1      -8.240  17.616  20.447  1.00  0.00    -0.274 OA
ATOM     41  H1  UNL     1      -6.317  16.093  22.505  1.00  0.00     0.162 HD
BRANCH  39  42
HETATM   42  C9  UNL     1      -6.314  16.423  19.772  1.00  0.00     0.103 C
BRANCH  42  43
HETATM   43  C8  UNL     1      -5.374  17.546  19.402  1.00  0.00     0.022 C
BRANCH  43  44
HETATM   44  C5  UNL     1      -3.952  17.146  19.223  1.00  0.00    -0.030 C
HETATM   45  C6  UNL     1      -3.225  18.272  18.529  1.00  0.00     0.019 C
HETATM   46  C7  UNL     1      -3.858  15.876  18.391  1.00  0.00     0.019 C
BRANCH  44  47
HETATM   47  C4  UNL     1      -3.354  16.870  20.556  1.00  0.00    -0.018 C
HETATM   48  C3  UNL     1      -3.440  17.761  21.523  1.00  0.00    -0.004 C
BRANCH  48  49
HETATM   49  C2  UNL     1      -2.887  17.571  22.844  1.00  0.00    -0.011 C
HETATM   50  C1  UNL     1      -2.829  18.583  23.695  1.00  0.00     0.011 C
ENDBRANCH  48  49
ENDBRANCH  44  47
ENDBRANCH  43  44
ENDBRANCH  42  43
ENDBRANCH  39  42
ENDBRANCH  37  38
ENDBRANCH  36  37
ENDBRANCH  35  36
ENDBRANCH  34  35
ENDBRANCH  31  34
ENDBRANCH   1  31
TORSDOF 17
ENDMDL