MODEL 2
REMARK VINA RESULT: -8.554796641      2.573     10.444
REMARK  18 active torsions:
REMARK  status: ('A' for Active; 'I' for Inactive)
REMARK    1  A    between atoms: C2_2  and  C3_3
REMARK    2  A    between atoms: C7_7  and  C9_9
REMARK       I    between atoms: C9_9  and  N1_11
REMARK    3  A    between atoms: N1_11  and  C10_13
REMARK    4  A    between atoms: C10_13  and  C13_16
REMARK       I    between atoms: C13_16  and  N2_18
REMARK    5  A    between atoms: N2_18  and  C14_20
REMARK    6  A    between atoms: C14_20  and  C15_21
REMARK    7  A    between atoms: C15_21  and  C16_22
REMARK    8  A    between atoms: C16_22  and  N3_23
REMARK    9  A    between atoms: N3_23  and  C17_26
REMARK   10  A    between atoms: C17_26  and  C18_27
REMARK   11  A    between atoms: C18_27  and  C19_28
REMARK   12  A    between atoms: C19_28  and  C20_29
REMARK   13  A    between atoms: C20_29  and  N4_30
REMARK   14  A    between atoms: N4_30  and  C21_32
REMARK   15  A    between atoms: C21_32  and  C22_33
REMARK   16  A    between atoms: C22_33  and  C23_34
REMARK   17  A    between atoms: C23_34  and  C24_35
REMARK   18  A    between atoms: C26_37  and  C27_38
ROOT
HETATM    1  C14 UNL     1      -7.039  17.107  30.290  1.00  0.00     0.065 C
ENDROOT
BRANCH   1   2
HETATM    2  N2  UNL     1      -7.852  16.192  30.948  1.00  0.00    -0.339 N
HETATM    3  C13 UNL     1      -8.566  16.311  32.189  1.00  0.00     0.248 C
HETATM    4  O2  UNL     1      -8.494  17.388  32.808  1.00  0.00    -0.270 OA
ATOM      5  H2  UNL     1      -7.959  15.295  30.476  1.00  0.00     0.167 HD
BRANCH   3   6
HETATM    6  C10 UNL     1      -9.358  15.197  32.706  1.00  0.00     0.106 C
HETATM    7  C11 UNL     1     -10.271  15.800  33.802  1.00  0.00     0.048 C
HETATM    8  C12 UNL     1      -8.474  14.216  33.490  1.00  0.00     0.048 C
BRANCH   6   9
HETATM    9  N1  UNL     1     -10.170  14.452  31.823  1.00  0.00    -0.341 N
HETATM   10  C9  UNL     1     -10.819  14.980  30.680  1.00  0.00     0.253 C
HETATM   11  O1  UNL     1     -10.704  16.200  30.437  1.00  0.00    -0.270 OA
ATOM     12  H1  UNL     1     -10.298  13.460  32.023  1.00  0.00     0.163 HD
BRANCH  10  13
HETATM   13  C7  UNL     1     -11.639  14.170  29.719  1.00  0.00     0.139 C
HETATM   14  C6  UNL     1     -12.964  14.790  29.532  1.00  0.00     0.054 C
HETATM   15  C5  UNL     1     -14.169  13.893  29.636  1.00  0.00     0.007 C
HETATM   16  C3  UNL     1     -13.878  12.606  30.324  1.00  0.00     0.008 C
HETATM   17  C38 UNL     1     -14.656  13.571  28.257  1.00  0.00    -0.013 C
HETATM   18  C4  UNL     1     -13.593  12.785  31.804  1.00  0.00     0.023 C
HETATM   19  C34 UNL     1     -12.638  12.044  29.645  1.00  0.00     0.070 C
HETATM   20  O3  UNL     1     -11.602  12.847  30.027  1.00  0.00    -0.359 OA
HETATM   21  C35 UNL     1     -12.376  10.699  30.348  1.00  0.00     0.047 C
HETATM   22  C36 UNL     1     -12.804  11.830  28.199  1.00  0.00     0.039 C
HETATM   23  C37 UNL     1     -13.896  12.552  27.510  1.00  0.00     0.007 C
HETATM   24  C39 UNL     1     -14.674  14.908  27.482  1.00  0.00     0.010 C
HETATM   25  C8  UNL     1     -10.836  14.323  28.402  1.00  0.00     0.056 C
BRANCH  16  26
HETATM   26  C2  UNL     1     -14.939  11.572  30.249  1.00  0.00    -0.024 C
HETATM   27  C1  UNL     1     -15.466  10.942  31.258  1.00  0.00     0.008 C
ENDBRANCH  16  26
ENDBRANCH  10  13
ENDBRANCH   6   9
ENDBRANCH   3   6
ENDBRANCH   1   2
BRANCH   1  28
HETATM   28  C15 UNL     1      -7.627  17.988  29.227  1.00  0.00     0.072 C
BRANCH  28  29
HETATM   29  C16 UNL     1      -6.925  17.643  27.879  1.00  0.00     0.237 C
BRANCH  29  30
HETATM   30  N3  UNL     1      -6.806  18.843  27.117  1.00  0.00    -0.075 N
ATOM     31  H32 UNL     1      -7.150  18.713  26.166  1.00  0.00     0.277 HD
ATOM     32  H31 UNL     1      -7.471  19.549  27.433  1.00  0.00     0.277 HD
BRANCH  30  33
HETATM   33  C17 UNL     1      -5.458  19.355  27.122  1.00  0.00     0.232 C
BRANCH  33  34
HETATM   34  C18 UNL     1      -4.493  18.210  27.366  1.00  0.00     0.029 C
BRANCH  34  35
HETATM   35  C19 UNL     1      -3.350  18.208  26.435  1.00  0.00     0.021 C
BRANCH  35  36
HETATM   36  C20 UNL     1      -3.378  17.040  25.472  1.00  0.00     0.113 C
BRANCH  36  37
HETATM   37  N4  UNL     1      -4.234  17.299  24.374  1.00  0.00    -0.421 N
ATOM     38  H4  UNL     1      -4.895  16.593  24.050  1.00  0.00     0.153 HD
BRANCH  37  39
HETATM   39  C21 UNL     1      -4.152  18.564  23.736  1.00  0.00     0.114 C
BRANCH  39  40
HETATM   40  C22 UNL     1      -5.519  19.154  23.452  1.00  0.00     0.025 C
BRANCH  40  41
HETATM   41  C23 UNL     1      -6.146  18.521  22.268  1.00  0.00     0.058 C
BRANCH  41  42
HETATM   42  C24 UNL     1      -7.310  17.670  22.478  1.00  0.00     0.009 A
HETATM   43  C25 UNL     1      -7.901  17.304  23.644  1.00  0.00     0.033 A
HETATM   44  C26 UNL     1      -8.979  16.438  23.718  1.00  0.00    -0.047 A
HETATM   45  C31 UNL     1      -9.464  15.930  22.519  1.00  0.00     0.032 A
HETATM   46  C32 UNL     1      -8.875  16.294  21.338  1.00  0.00     0.006 A
HETATM   47  C33 UNL     1      -9.399  15.738  20.054  1.00  0.00     0.068 C
HETATM   48  N5  UNL     1      -7.839  17.133  21.328  1.00  0.00    -0.363 N
ATOM     49  H5  UNL     1      -7.422  17.386  20.432  1.00  0.00     0.165 HD
BRANCH  44  50
HETATM   50  C27 UNL     1      -9.586  16.074  25.016  1.00  0.00    -0.024 C
HETATM   51  C28 UNL     1      -8.568  15.288  25.813  1.00  0.00     0.019 C
HETATM   52  C29 UNL     1     -10.851  15.275  24.776  1.00  0.00     0.019 C
HETATM   53  C30 UNL     1      -9.895  17.311  25.851  1.00  0.00     0.019 C
ENDBRANCH  44  50
ENDBRANCH  41  42
ENDBRANCH  40  41
ENDBRANCH  39  40
ENDBRANCH  37  39
ENDBRANCH  36  37
ENDBRANCH  35  36
ENDBRANCH  34  35
ENDBRANCH  33  34
ENDBRANCH  30  33
ENDBRANCH  29  30
ENDBRANCH  28  29
ENDBRANCH   1  28
TORSDOF 18
ENDMDL