MODEL 3
REMARK VINA RESULT: -8.168989742      1.978      4.628
REMARK  17 active torsions:
REMARK  status: ('A' for Active; 'I' for Inactive)
REMARK    1  A    between atoms: C2_2  and  C3_3
REMARK    2  A    between atoms: C3_3  and  C5_5
REMARK    3  A    between atoms: C5_5  and  N1_6
REMARK       I    between atoms: N1_6  and  C6_7
REMARK    4  A    between atoms: C6_7  and  C7_9
REMARK    5  A    between atoms: C7_9  and  C8_10
REMARK    6  A    between atoms: C8_10  and  C9_11
REMARK    7  A    between atoms: C8_10  and  C16_18
REMARK    8  A    between atoms: C9_11  and  C10_12
REMARK       I    between atoms: C16_18  and  N2_20
REMARK    9  A    between atoms: N2_20  and  C17_21
REMARK   10  A    between atoms: C17_21  and  C18_22
REMARK   11  A    between atoms: C18_22  and  C19_23
REMARK   12  A    between atoms: C19_23  and  C20_24
REMARK   13  A    between atoms: C24_28  and  C25_29
REMARK   14  A    between atoms: C24_28  and  C32_43
REMARK   15  A    between atoms: C25_29  and  C26_31
REMARK   16  A    between atoms: C26_31  and  N3_33
REMARK   17  A    between atoms: N3_33  and  C28_35
ROOT
HETATM    1  C20 UNL     1     -10.278  15.290  28.620  1.00  0.00     0.044 C
HETATM    2  C21 UNL     1     -10.517  16.473  29.528  1.00  0.00     0.064 C
HETATM    3  C22 UNL     1     -10.758  17.692  28.661  1.00  0.00     0.010 C
HETATM    4  C23 UNL     1      -9.720  17.880  27.585  1.00  0.00     0.047 C
HETATM    5  C24 UNL     1      -9.113  16.645  27.016  1.00  0.00     0.133 C
HETATM    6  O4  UNL     1      -9.958  15.588  27.361  1.00  0.00    -0.337 OA
ENDROOT
BRANCH   1   7
HETATM    7  C19 UNL     1     -11.200  14.154  28.758  1.00  0.00     0.008 C
BRANCH   7   8
HETATM    8  C18 UNL     1     -12.607  14.147  28.458  1.00  0.00     0.063 C
BRANCH   8   9
HETATM    9  C17 UNL     1     -13.388  12.834  28.586  1.00  0.00     0.225 C
BRANCH   9  10
HETATM   10  N2  UNL     1     -13.890  12.602  29.838  1.00  0.00    -0.415 NA
HETATM   11  C16 UNL     1     -14.406  12.366  31.112  1.00  0.00     0.291 C
HETATM   12  O2  UNL     1     -15.451  11.726  31.300  1.00  0.00    -0.257 OA
BRANCH  11  13
HETATM   13  C8  UNL     1     -13.684  12.893  32.273  1.00  0.00     0.103 C
BRANCH  13  14
HETATM   14  C7  UNL     1     -12.647  13.892  32.217  1.00  0.00     0.134 C
BRANCH  14  15
HETATM   15  C6  UNL     1     -12.762  15.157  33.038  1.00  0.00     0.291 C
HETATM   16  N1  UNL     1     -11.829  15.527  33.909  1.00  0.00    -0.387 NA
HETATM   17  O1  UNL     1     -13.828  15.790  32.783  1.00  0.00    -0.257 OA
BRANCH  16  18
HETATM   18  C5  UNL     1     -10.847  15.917  34.828  1.00  0.00     0.163 C
BRANCH  18  19
HETATM   19  C3  UNL     1      -9.513  15.245  34.730  1.00  0.00     0.033 C
HETATM   20  C4  UNL     1      -8.522  15.966  35.607  1.00  0.00     0.016 C
BRANCH  19  21
HETATM   21  C2  UNL     1      -8.965  15.088  33.360  1.00  0.00     0.006 C
HETATM   22  C1  UNL     1      -8.462  16.367  32.750  1.00  0.00     0.006 C
ENDBRANCH  19  21
ENDBRANCH  18  19
ENDBRANCH  16  18
ENDBRANCH  14  15
ENDBRANCH  13  14
BRANCH  13  23
HETATM   23  C9  UNL     1     -13.236  11.672  33.125  1.00  0.00     0.020 C
BRANCH  23  24
HETATM   24  C10 UNL     1     -13.384  12.034  34.580  1.00  0.00    -0.014 C
HETATM   25  C11 UNL     1     -14.277  11.049  35.308  1.00  0.00     0.005 C
HETATM   26  C12 UNL     1     -13.863  10.972  36.790  1.00  0.00     0.000 C
HETATM   27  C13 UNL     1     -13.425  12.326  37.276  1.00  0.00     0.000 C
HETATM   28  C14 UNL     1     -12.207  12.842  36.563  1.00  0.00     0.000 C
HETATM   29  C15 UNL     1     -12.054  12.067  35.257  1.00  0.00     0.005 C
ENDBRANCH  23  24
ENDBRANCH  13  23
ENDBRANCH  11  13
ENDBRANCH   9  10
ENDBRANCH   8   9
ENDBRANCH   7   8
ENDBRANCH   1   7
BRANCH   5  30
HETATM   30  C25 UNL     1      -7.712  16.466  27.405  1.00  0.00     0.183 C
HETATM   31  O3  UNL     1      -7.323  15.281  27.551  1.00  0.00    -0.292 OA
BRANCH  30  32
HETATM   32  C26 UNL     1      -6.627  17.429  27.650  1.00  0.00     0.146 C
HETATM   33  C27 UNL     1      -6.104  17.462  29.056  1.00  0.00     0.040 C
BRANCH  32  34
HETATM   34  N3  UNL     1      -5.484  17.037  26.807  1.00  0.00    -0.397 N
ATOM     35  H3  UNL     1      -4.958  16.178  26.972  1.00  0.00     0.155 HD
BRANCH  34  36
HETATM   36  C28 UNL     1      -5.163  17.918  25.761  1.00  0.00     0.165 C
HETATM   37  C29 UNL     1      -5.826  17.746  24.441  1.00  0.00     0.267 C
HETATM   38  N4  UNL     1      -6.221  19.034  23.861  1.00  0.00    -0.072 N
HETATM   39  C30 UNL     1      -5.116  19.887  23.540  1.00  0.00     0.242 C
ATOM     40  H42 UNL     1      -6.814  18.893  23.043  1.00  0.00     0.277 HD
ATOM     41  H41 UNL     1      -6.881  19.515  24.470  1.00  0.00     0.277 HD
HETATM   42  C31 UNL     1      -4.542  20.615  24.759  1.00  0.00     0.103 C
HETATM   43  S1  UNL     1      -5.163  19.694  26.224  1.00  0.00    -0.141 SA
ENDBRANCH  34  36
ENDBRANCH  32  34
ENDBRANCH  30  32
ENDBRANCH   5  30
BRANCH   5  44
HETATM   44  C32 UNL     1      -9.244  16.706  25.482  1.00  0.00     0.028 C
HETATM   45  C33 UNL     1      -8.572  15.477  24.924  1.00  0.00     0.008 C
HETATM   46  C34 UNL     1      -9.158  15.451  23.519  1.00  0.00     0.001 C
HETATM   47  C35 UNL     1     -10.632  15.539  23.850  1.00  0.00     0.001 C
HETATM   48  C36 UNL     1     -10.666  16.557  25.010  1.00  0.00     0.008 C
ENDBRANCH   5  44
TORSDOF 17
ENDMDL