MODEL 3
REMARK VINA RESULT: -7.265527858      0.883      1.530
REMARK  19 active torsions:
REMARK  status: ('A' for Active; 'I' for Inactive)
REMARK    1  A    between atoms: C2_2  and  C3_3
REMARK    2  A    between atoms: C3_3  and  C4_4
REMARK    3  A    between atoms: C4_4  and  C5_5
REMARK    4  A    between atoms: C5_5  and  C6_6
REMARK    5  A    between atoms: C6_6  and  C7_7
REMARK    6  A    between atoms: C7_7  and  C8_8
REMARK    7  A    between atoms: C8_8  and  C9_9
REMARK    8  A    between atoms: C9_9  and  C10_10
REMARK    9  A    between atoms: C10_10  and  C11_11
REMARK   10  A    between atoms: C11_11  and  C12_12
REMARK   11  A    between atoms: C12_12  and  C13_13
REMARK   12  A    between atoms: C13_13  and  C14_14
REMARK   13  A    between atoms: C14_14  and  C15_15
REMARK   14  A    between atoms: C15_15  and  C16_16
REMARK       I    between atoms: C16_16  and  N1_18
REMARK   15  A    between atoms: N1_18  and  C17_20
REMARK   16  A    between atoms: C17_20  and  C18_21
REMARK   17  A    between atoms: C20_23  and  O2_24
REMARK   18  A    between atoms: C31_36  and  O3_37
REMARK   19  A    between atoms: C36_45  and  O5_46
ROOT
HETATM    1  C18 UNL     1     -13.773  10.812  32.406  1.00  0.00     0.002 C
HETATM    2  C19 UNL     1     -13.529   9.688  31.469  1.00  0.00     0.020 C
HETATM    3  C20 UNL     1     -15.252  10.939  32.695  1.00  0.00     0.128 C
HETATM    4  C21 UNL     1     -15.757   9.658  33.231  1.00  0.00     0.033 C
HETATM    5  C22 UNL     1     -14.937   8.969  34.243  1.00  0.00     0.014 C
HETATM    6  C23 UNL     1     -13.662   9.626  34.671  1.00  0.00    -0.016 C
HETATM    7  C24 UNL     1     -12.619   8.455  34.629  1.00  0.00     0.017 C
HETATM    8  C25 UNL     1     -13.071  10.620  33.746  1.00  0.00     0.008 C
HETATM    9  C26 UNL     1     -12.642  11.924  34.365  1.00  0.00     0.007 C
HETATM   10  C27 UNL     1     -11.830  11.539  35.578  1.00  0.00     0.007 C
HETATM   11  C28 UNL     1     -12.674  10.930  36.616  1.00  0.00     0.017 C
HETATM   12  C29 UNL     1     -13.467  12.027  37.267  1.00  0.00     0.015 C
HETATM   13  C30 UNL     1     -12.791  12.872  38.258  1.00  0.00     0.060 C
HETATM   14  C31 UNL     1     -13.767  13.924  38.725  1.00  0.00     0.222 C
HETATM   15  N2  UNL     1     -15.135  13.487  38.722  1.00  0.00    -0.329 N
HETATM   16  C32 UNL     1     -16.141  14.441  39.169  1.00  0.00     0.155 C
HETATM   17  C33 UNL     1     -15.588  12.203  38.318  1.00  0.00     0.232 C
HETATM   18  O4  UNL     1     -16.790  11.875  38.261  1.00  0.00    -0.272 OA
HETATM   19  C34 UNL     1     -14.545  11.218  37.951  1.00  0.00     0.069 C
HETATM   20  C35 UNL     1     -14.133  10.467  39.143  1.00  0.00     0.028 C
HETATM   21  C36 UNL     1     -14.979  10.341  36.772  1.00  0.00     0.159 C
HETATM   22  C37 UNL     1     -13.707   9.951  36.140  1.00  0.00     0.087 C
HETATM   23  C38 UNL     1     -13.359   8.686  36.894  1.00  0.00     0.073 C
HETATM   24  N3  UNL     1     -13.070   7.698  37.469  1.00  0.00    -0.196 NA
ENDROOT
BRANCH  21  25
HETATM   25  O5  UNL     1     -15.921  11.056  36.148  1.00  0.00    -0.392 OA
ATOM     26  H5  UNL     1     -16.625  11.131  36.781  1.00  0.00     0.210 HD
ENDBRANCH  21  25
BRANCH   1  27
HETATM   27  C17 UNL     1     -13.256  12.089  31.828  1.00  0.00     0.134 C
BRANCH  27  28
HETATM   28  N1  UNL     1     -13.228  12.310  30.433  1.00  0.00    -0.360 N
HETATM   29  C16 UNL     1     -14.029  13.037  29.529  1.00  0.00     0.217 C
HETATM   30  O1  UNL     1     -15.046  13.700  29.788  1.00  0.00    -0.274 OA
ATOM     31  H1  UNL     1     -12.450  11.834  29.974  1.00  0.00     0.162 HD
BRANCH  29  32
HETATM   32  C15 UNL     1     -13.653  13.052  28.059  1.00  0.00     0.103 C
BRANCH  32  33
HETATM   33  C14 UNL     1     -12.207  12.922  27.824  1.00  0.00     0.009 C
BRANCH  33  34
HETATM   34  C13 UNL     1     -11.419  14.121  27.463  1.00  0.00     0.000 C
BRANCH  34  35
HETATM   35  C12 UNL     1     -10.560  14.632  28.597  1.00  0.00     0.000 C
BRANCH  35  36
HETATM   36  C11 UNL     1      -9.057  14.647  28.217  1.00  0.00     0.000 C
BRANCH  36  37
HETATM   37  C10 UNL     1      -8.688  16.079  28.167  1.00  0.00     0.000 C
BRANCH  37  38
HETATM   38  C9  UNL     1      -7.346  16.535  28.514  1.00  0.00     0.000 C
BRANCH  38  39
HETATM   39  C8  UNL     1      -7.044  17.284  29.734  1.00  0.00     0.000 C
BRANCH  39  40
HETATM   40  C7  UNL     1      -8.217  17.614  30.597  1.00  0.00     0.000 C
BRANCH  40  41
HETATM   41  C6  UNL     1      -8.121  16.966  31.955  1.00  0.00     0.000 C
BRANCH  41  42
HETATM   42  C5  UNL     1      -8.480  15.535  31.883  1.00  0.00     0.000 C
BRANCH  42  43
HETATM   43  C4  UNL     1      -9.780  15.271  32.610  1.00  0.00     0.000 C
BRANCH  43  44
HETATM   44  C3  UNL     1      -9.369  14.687  33.964  1.00  0.00    -0.000 C
BRANCH  44  45
HETATM   45  C2  UNL     1      -9.693  15.596  35.109  1.00  0.00    -0.005 C
HETATM   46  C1  UNL     1      -8.478  16.237  35.712  1.00  0.00     0.005 C
ENDBRANCH  44  45
ENDBRANCH  43  44
ENDBRANCH  42  43
ENDBRANCH  41  42
ENDBRANCH  40  41
ENDBRANCH  39  40
ENDBRANCH  38  39
ENDBRANCH  37  38
ENDBRANCH  36  37
ENDBRANCH  35  36
ENDBRANCH  34  35
ENDBRANCH  33  34
ENDBRANCH  32  33
ENDBRANCH  29  32
ENDBRANCH  27  28
ENDBRANCH   1  27
BRANCH   3  47
HETATM   47  O2  UNL     1     -15.981  11.277  31.559  1.00  0.00    -0.395 OA
ATOM     48  H2  UNL     1     -16.709  11.854  31.759  1.00  0.00     0.210 HD
ENDBRANCH   3  47
BRANCH  14  49
HETATM   49  O3  UNL     1     -13.377  14.379  39.994  1.00  0.00    -0.377 OA
ATOM     50  H3  UNL     1     -14.028  14.113  40.632  1.00  0.00     0.212 HD
ENDBRANCH  14  49
TORSDOF 19
ENDMDL