MODEL 3
REMARK VINA RESULT: -8.986009178      3.645     10.050
REMARK  17 active torsions:
REMARK  status: ('A' for Active; 'I' for Inactive)
REMARK    1  A    between atoms: C2_2  and  N1_4
REMARK       I    between atoms: N1_4  and  C4_6
REMARK       I    between atoms: C4_6  and  N2_8
REMARK    2  A    between atoms: N2_8  and  C5_10
REMARK    3  A    between atoms: C5_10  and  C6_11
REMARK    4  A    between atoms: C6_11  and  C7_12
REMARK    5  A    between atoms: C7_12  and  C8_13
REMARK    6  A    between atoms: C8_13  and  O2_14
REMARK    7  A    between atoms: C8_13  and  C9_16
REMARK    8  A    between atoms: C9_16  and  C10_17
REMARK    9  A    between atoms: C10_17  and  C11_18
REMARK   10  A    between atoms: C10_17  and  C13_22
REMARK   11  A    between atoms: C11_18  and  C12_19
REMARK   12  A    between atoms: C12_19  and  O3_20
REMARK   13  A    between atoms: C13_22  and  C14_23
REMARK   14  A    between atoms: C14_23  and  C15_24
REMARK   15  A    between atoms: C15_24  and  C16_25
REMARK   16  A    between atoms: C25_34  and  O4_35
REMARK   17  A    between atoms: O4_35  and  S1_36
ROOT
HETATM    1  C16 UNL     1      -8.527  15.563  25.298  1.00  0.00    -0.006 C
HETATM    2  C17 UNL     1      -9.366  16.287  24.251  1.00  0.00     0.006 C
HETATM    3  C18 UNL     1     -10.797  15.777  24.494  1.00  0.00     0.006 C
HETATM    4  C19 UNL     1     -10.665  15.011  25.744  1.00  0.00    -0.002 C
HETATM    5  C20 UNL     1     -11.828  14.678  26.537  1.00  0.00    -0.005 C
HETATM    6  C21 UNL     1     -12.764  15.740  26.949  1.00  0.00     0.006 C
HETATM    7  C22 UNL     1     -13.582  15.383  28.176  1.00  0.00     0.006 C
HETATM    8  C23 UNL     1     -13.736  13.861  28.304  1.00  0.00    -0.004 C
HETATM    9  C24 UNL     1     -14.722  13.615  29.382  1.00  0.00     0.039 C
HETATM   10  C25 UNL     1     -14.169  13.438  30.761  1.00  0.00     0.145 C
HETATM   11  C26 UNL     1     -13.170  12.321  30.665  1.00  0.00     0.034 C
HETATM   12  C27 UNL     1     -12.051  12.590  29.711  1.00  0.00     0.012 C
HETATM   13  C28 UNL     1     -12.417  13.163  28.400  1.00  0.00    -0.036 C
HETATM   14  C29 UNL     1     -12.598  11.911  27.485  1.00  0.00     0.016 C
HETATM   15  C30 UNL     1     -11.297  13.890  27.757  1.00  0.00    -0.002 C
HETATM   16  C31 UNL     1     -10.471  14.837  28.506  1.00  0.00     0.006 C
HETATM   17  C32 UNL     1      -9.166  15.028  27.697  1.00  0.00     0.010 C
HETATM   18  C33 UNL     1      -9.531  15.741  26.458  1.00  0.00    -0.036 C
HETATM   19  C34 UNL     1      -9.773  17.206  26.579  1.00  0.00     0.016 C
ENDROOT
BRANCH   1  20
HETATM   20  C15 UNL     1      -7.204  16.108  25.573  1.00  0.00     0.005 C
BRANCH  20  21
HETATM   21  C14 UNL     1      -6.790  17.170  24.544  1.00  0.00     0.001 C
BRANCH  21  22
HETATM   22  C13 UNL     1      -5.383  17.658  24.884  1.00  0.00     0.005 C
BRANCH  22  23
HETATM   23  C10 UNL     1      -5.382  19.112  25.272  1.00  0.00    -0.010 C
BRANCH  23  24
HETATM   24  C9  UNL     1      -5.166  19.293  26.762  1.00  0.00     0.036 C
BRANCH  24  25
HETATM   25  C8  UNL     1      -4.511  18.179  27.436  1.00  0.00     0.118 C
BRANCH  25  26
HETATM   26  C7  UNL     1      -5.162  17.690  28.669  1.00  0.00     0.033 C
BRANCH  26  27
HETATM   27  C6  UNL     1      -6.553  17.204  28.669  1.00  0.00     0.022 C
BRANCH  27  28
HETATM   28  C5  UNL     1      -7.559  17.895  29.528  1.00  0.00     0.124 C
BRANCH  28  29
HETATM   29  N2  UNL     1      -7.366  17.642  30.956  1.00  0.00    -0.343 N
HETATM   30  C4  UNL     1      -8.284  16.898  31.718  1.00  0.00     0.316 C
HETATM   31  N1  UNL     1      -8.065  16.653  33.115  1.00  0.00    -0.339 N
HETATM   32  O1  UNL     1      -9.328  16.413  31.237  1.00  0.00    -0.247 OA
ATOM     33  H1  UNL     1      -7.234  17.031  33.570  1.00  0.00     0.164 HD
ATOM     34  H2  UNL     1      -6.536  18.019  31.414  1.00  0.00     0.164 HD
BRANCH  31  35
HETATM   35  C2  UNL     1      -9.008  15.880  33.883  1.00  0.00     0.078 C
HETATM   36  C1  UNL     1      -8.978  16.237  35.359  1.00  0.00     0.032 C
HETATM   37  C3  UNL     1      -8.638  14.414  33.765  1.00  0.00     0.032 C
ENDBRANCH  31  35
ENDBRANCH  28  29
ENDBRANCH  27  28
ENDBRANCH  26  27
ENDBRANCH  25  26
BRANCH  25  38
HETATM   38  O2  UNL     1      -3.152  18.319  27.689  1.00  0.00    -0.396 OA
ATOM     39  H2  UNL     1      -3.049  18.815  28.492  1.00  0.00     0.210 HD
ENDBRANCH  25  38
ENDBRANCH  24  25
ENDBRANCH  23  24
BRANCH  23  40
HETATM   40  C11 UNL     1      -4.616  20.007  24.385  1.00  0.00     0.030 C
BRANCH  40  41
HETATM   41  C12 UNL     1      -5.515  21.025  23.672  1.00  0.00     0.164 C
BRANCH  41  42
HETATM   42  O3  UNL     1      -6.498  20.334  22.927  1.00  0.00    -0.401 OA
ATOM     43  H3  UNL     1      -6.490  20.652  22.032  1.00  0.00     0.209 HD
ENDBRANCH  41  42
ENDBRANCH  40  41
ENDBRANCH  23  40
ENDBRANCH  22  23
ENDBRANCH  21  22
ENDBRANCH  20  21
ENDBRANCH   1  20
BRANCH  10  44
HETATM   44  O4  UNL     1     -13.693  14.573  31.349  1.00  0.00    -0.252 OA
BRANCH  44  45
HETATM   45  S1  UNL     1     -13.055  14.210  32.857  1.00  0.00     0.251 S
HETATM   46  O5  UNL     1     -11.604  13.828  32.780  1.00  0.00    -0.572 OA
HETATM   47  O6  UNL     1     -13.111  15.497  33.670  1.00  0.00    -0.572 OA
HETATM   48  O7  UNL     1     -13.933  13.070  33.686  1.00  0.00    -0.572 OA
ENDBRANCH  44  45
ENDBRANCH  10  44
TORSDOF 17
ENDMDL