MODEL 5
REMARK VINA RESULT: -8.826649857      1.527      3.769
REMARK  18 active torsions:
REMARK  status: ('A' for Active; 'I' for Inactive)
REMARK    1  A    between atoms: C2_2  and  C3_3
REMARK    2  A    between atoms: C3_3  and  C4_4
REMARK    3  A    between atoms: C4_4  and  C5_5
REMARK    4  A    between atoms: C5_5  and  C6_6
REMARK    5  A    between atoms: C6_6  and  C7_7
REMARK    6  A    between atoms: C7_7  and  C8_8
REMARK    7  A    between atoms: C7_7  and  C11_11
REMARK    8  A    between atoms: C8_8  and  C9_9
REMARK    9  A    between atoms: C11_11  and  O1_12
REMARK   10  A    between atoms: C11_11  and  C12_14
REMARK   11  A    between atoms: C12_14  and  O2_15
REMARK   12  A    between atoms: C12_14  and  C13_17
REMARK   13  A    between atoms: C14_18  and  C15_19
REMARK   14  A    between atoms: C16_20  and  C17_21
REMARK   15  A    between atoms: C17_21  and  C19_23
REMARK   16  A    between atoms: C20_24  and  C21_25
REMARK   17  A    between atoms: C28_39  and  C29_40
REMARK   18  A    between atoms: C29_40  and  C30_41
ROOT
HETATM    1  C15 UNL     1      -9.997  15.044  32.158  1.00  0.00     0.018 C
HETATM    2  C16 UNL     1      -9.248  14.618  33.381  1.00  0.00     0.001 C
HETATM    3  C26 UNL     1      -7.998  15.404  33.212  1.00  0.00     0.006 C
HETATM    4  C27 UNL     1      -8.473  16.761  32.830  1.00  0.00     0.007 C
HETATM    5  C28 UNL     1      -9.538  16.496  31.856  1.00  0.00     0.009 C
ENDROOT
BRANCH   1   6
HETATM    6  C14 UNL     1     -11.446  14.990  32.147  1.00  0.00    -0.023 C
HETATM    7  C13 UNL     1     -12.186  13.942  31.794  1.00  0.00     0.003 C
BRANCH   7   8
HETATM    8  C12 UNL     1     -13.669  13.913  31.791  1.00  0.00     0.169 C
BRANCH   8   9
HETATM    9  C11 UNL     1     -14.204  14.545  30.532  1.00  0.00     0.154 C
BRANCH   9  10
HETATM   10  C7  UNL     1     -14.616  13.584  29.474  1.00  0.00     0.017 C
BRANCH  10  11
HETATM   11  C6  UNL     1     -14.401  12.146  29.782  1.00  0.00     0.007 C
BRANCH  11  12
HETATM   12  C5  UNL     1     -13.209  11.499  29.181  1.00  0.00     0.000 C
BRANCH  12  13
HETATM   13  C4  UNL     1     -12.634  10.531  30.202  1.00  0.00     0.000 C
BRANCH  13  14
HETATM   14  C3  UNL     1     -13.559  10.221  31.335  1.00  0.00    -0.000 C
BRANCH  14  15
HETATM   15  C2  UNL     1     -13.035   9.121  32.232  1.00  0.00    -0.005 C
HETATM   16  C1  UNL     1     -12.445   8.036  31.358  1.00  0.00     0.005 C
ENDBRANCH  14  15
ENDBRANCH  13  14
ENDBRANCH  12  13
ENDBRANCH  11  12
ENDBRANCH  10  11
BRANCH  10  17
HETATM   17  C8  UNL     1     -14.114  13.980  28.095  1.00  0.00     0.007 C
BRANCH  17  18
HETATM   18  C9  UNL     1     -12.963  14.953  28.214  1.00  0.00    -0.004 C
HETATM   19  C10 UNL     1     -11.834  14.436  27.326  1.00  0.00     0.005 C
ENDBRANCH  17  18
ENDBRANCH  10  17
ENDBRANCH   9  10
BRANCH   9  20
HETATM   20  O1  UNL     1     -15.193  15.481  30.853  1.00  0.00    -0.392 OA
ATOM     21  H1  UNL     1     -15.068  15.891  31.701  1.00  0.00     0.210 HD
ENDBRANCH   9  20
ENDBRANCH   8   9
BRANCH   8  22
HETATM   22  O2  UNL     1     -14.166  14.604  32.916  1.00  0.00    -0.389 OA
ATOM     23  H2  UNL     1     -13.556  14.515  33.640  1.00  0.00     0.210 HD
ENDBRANCH   8  22
ENDBRANCH   7   8
ENDBRANCH   1   6
BRANCH   2  24
HETATM   24  C17 UNL     1      -9.989  14.698  34.609  1.00  0.00     0.008 C
HETATM   25  C18 UNL     1     -10.915  15.896  34.640  1.00  0.00     0.014 C
BRANCH  24  26
HETATM   26  C19 UNL     1     -10.757  13.585  35.146  1.00  0.00    -0.024 C
HETATM   27  C20 UNL     1     -11.918  13.483  35.698  1.00  0.00    -0.002 C
BRANCH  27  28
HETATM   28  C21 UNL     1     -12.522  12.201  36.184  1.00  0.00     0.136 C
HETATM   29  C22 UNL     1     -11.723  11.069  35.537  1.00  0.00     0.040 C
HETATM   30  C23 UNL     1     -12.442  12.038  37.629  1.00  0.00     0.247 C
HETATM   31  O3  UNL     1     -11.371  11.696  38.179  1.00  0.00    -0.271 OA
HETATM   32  N1  UNL     1     -13.580  12.264  38.448  1.00  0.00    -0.278 N
HETATM   33  C24 UNL     1     -14.856  12.417  37.883  1.00  0.00     0.329 C
ATOM     34  H1  UNL     1     -13.468  12.315  39.461  1.00  0.00     0.173 HD
HETATM   35  O4  UNL     1     -15.902  12.620  38.587  1.00  0.00    -0.247 OA
HETATM   36  N2  UNL     1     -15.035  12.349  36.479  1.00  0.00    -0.278 N
HETATM   37  C25 UNL     1     -13.898  12.124  35.670  1.00  0.00     0.247 C
ATOM     38  H2  UNL     1     -15.960  12.458  36.063  1.00  0.00     0.173 HD
HETATM   39  O5  UNL     1     -14.065  11.847  34.456  1.00  0.00    -0.271 OA
ENDBRANCH  27  28
ENDBRANCH  24  26
ENDBRANCH   2  24
BRANCH   5  40
HETATM   40  C29 UNL     1      -9.315  16.759  30.420  1.00  0.00     0.018 C
HETATM   41  C31 UNL     1      -9.103  15.622  29.509  1.00  0.00     0.017 C
HETATM   42  C32 UNL     1      -7.615  15.514  29.148  1.00  0.00     0.007 C
HETATM   43  C33 UNL     1      -7.326  16.623  28.190  1.00  0.00    -0.002 A
HETATM   44  C34 UNL     1      -7.716  17.912  28.861  1.00  0.00    -0.001 A
HETATM   45  C36 UNL     1      -6.338  17.682  28.392  1.00  0.00    -0.040 A
HETATM   46  C35 UNL     1      -8.137  17.732  30.283  1.00  0.00     0.022 C
HETATM   47  C37 UNL     1      -5.187  17.435  29.294  1.00  0.00     0.015 C
HETATM   48  C38 UNL     1      -5.951  18.434  27.104  1.00  0.00     0.015 C
BRANCH  40  49
HETATM   49  C30 UNL     1     -10.473  17.562  29.853  1.00  0.00     0.241 C
HETATM   50  O6  UNL     1     -10.750  17.521  28.669  1.00  0.00    -0.306 OA
ENDBRANCH  40  49
ENDBRANCH   5  40
TORSDOF 18
ENDMDL