MODEL 5
REMARK VINA RESULT: -7.487608732      1.965      2.415
REMARK  12 active torsions:
REMARK  status: ('A' for Active; 'I' for Inactive)
REMARK    1  A    between atoms: C2_2  and  C3_3
REMARK    2  A    between atoms: C3_3  and  C4_4
REMARK    3  A    between atoms: C4_4  and  C5_5
REMARK    4  A    between atoms: C5_5  and  C6_6
REMARK    5  A    between atoms: N2_12  and  C9_13
REMARK    6  A    between atoms: C9_13  and  C10_14
REMARK       I    between atoms: C10_14  and  N3_16
REMARK    7  A    between atoms: N3_16  and  C11_18
REMARK    8  A    between atoms: C13_20  and  C14_21
REMARK       I    between atoms: C14_21  and  N4_23
REMARK    9  A    between atoms: N4_23  and  C15_25
REMARK   10  A    between atoms: C15_25  and  C16_26
REMARK   11  A    between atoms: C16_26  and  N5_27
REMARK   12  A    between atoms: C21_33  and  S1_34
ROOT
HETATM    1  C11 UNL     1      10.729  16.474   7.311  1.00  0.00     0.152 A
HETATM    2  C12 UNL     1      10.902  16.618   5.959  1.00  0.00     0.077 A
HETATM    3  C13 UNL     1      11.531  15.461   5.469  1.00  0.00     0.076 A
HETATM    4  C21 UNL     1      11.699  14.683   6.574  1.00  0.00     0.130 A
HETATM    5  O5  UNL     1      11.217  15.302   7.653  1.00  0.00    -0.286 OA
ENDROOT
BRANCH   1   6
HETATM    6  N3  UNL     1      10.137  17.397   8.211  1.00  0.00    -0.306 N
HETATM    7  C10 UNL     1       8.721  17.402   8.406  1.00  0.00     0.242 C
HETATM    8  O2  UNL     1       8.031  16.584   7.765  1.00  0.00    -0.271 OA
ATOM      9  H3  UNL     1      10.723  18.058   8.720  1.00  0.00     0.171 HD
BRANCH   7  10
HETATM   10  C9  UNL     1       8.060  18.337   9.335  1.00  0.00     0.240 C
BRANCH  10  11
HETATM   11  N2  UNL     1       7.912  17.669  10.625  1.00  0.00    -0.259 N
HETATM   12  C8  UNL     1       6.704  17.099  11.124  1.00  0.00     0.326 C
HETATM   13  N1  UNL     1       6.973  16.525  12.424  1.00  0.00    -0.324 N
HETATM   14  O1  UNL     1       5.619  17.127  10.490  1.00  0.00    -0.247 OA
HETATM   15  C4  UNL     1       8.242  16.960  12.899  1.00  0.00     0.116 C
ATOM     16  H1  UNL     1       6.344  15.898  12.927  1.00  0.00     0.165 HD
HETATM   17  C23 UNL     1       8.882  17.435  11.617  1.00  0.00     0.256 C
HETATM   18  O6  UNL     1      10.111  17.589  11.488  1.00  0.00    -0.270 OA
BRANCH  15  19
HETATM   19  C3  UNL     1       9.142  15.951  13.475  1.00  0.00     0.041 C
BRANCH  19  20
HETATM   20  C2  UNL     1      10.140  16.447  14.471  1.00  0.00    -0.002 C
HETATM   21  C1  UNL     1       9.963  15.908  15.865  1.00  0.00     0.005 C
ENDBRANCH  19  20
ENDBRANCH  15  19
BRANCH  15  22
HETATM   22  C5  UNL     1       8.121  18.215  13.742  1.00  0.00     0.041 C
BRANCH  22  23
HETATM   23  C6  UNL     1       6.837  18.304  14.510  1.00  0.00    -0.002 C
HETATM   24  C7  UNL     1       7.000  17.909  15.959  1.00  0.00     0.005 C
ENDBRANCH  22  23
ENDBRANCH  15  22
ENDBRANCH  10  11
ENDBRANCH   7  10
ENDBRANCH   1   6
BRANCH   3  25
HETATM   25  C14 UNL     1      11.873  15.225   4.093  1.00  0.00     0.255 C
HETATM   26  O3  UNL     1      12.757  15.998   3.576  1.00  0.00    -0.268 OA
HETATM   27  N4  UNL     1      11.355  14.245   3.235  1.00  0.00    -0.355 N
ATOM     28  H4  UNL     1      10.647  13.619   3.621  1.00  0.00     0.162 HD
BRANCH  27  29
HETATM   29  C15 UNL     1      11.730  14.039   1.856  1.00  0.00     0.153 C
BRANCH  29  30
HETATM   30  C16 UNL     1      12.846  13.075   1.735  1.00  0.00     0.292 C
BRANCH  30  31
HETATM   31  N5  UNL     1      12.860  12.406   0.433  1.00  0.00     0.094 N
HETATM   32  C17 UNL     1      13.354  13.238  -0.622  1.00  0.00     0.298 C
HETATM   33  C18 UNL     1      12.390  13.292  -1.786  1.00  0.00     0.198 C
HETATM   34  O4  UNL     1      12.054  12.027  -2.246  1.00  0.00    -0.388 OA
HETATM   35  C19 UNL     1      11.707  11.148  -1.241  1.00  0.00     0.198 C
HETATM   36  C20 UNL     1      11.553  11.924   0.055  1.00  0.00     0.298 C
ENDBRANCH  30  31
ENDBRANCH  29  30
ENDBRANCH  27  29
ENDBRANCH   3  25
BRANCH   4  37
HETATM   37  S1  UNL     1      12.434  13.071   6.706  1.00  0.00    -0.108 SA
HETATM   38  C22 UNL     1      12.390  12.575   8.458  1.00  0.00     0.097 C
ENDBRANCH   4  37
TORSDOF 12
ENDMDL