MODEL 4
REMARK VINA RESULT: -8.845588258      1.931      8.771
REMARK  12 active torsions:
REMARK  status: ('A' for Active; 'I' for Inactive)
REMARK    1  A    between atoms: C2_2  and  C3_3
REMARK    2  A    between atoms: C3_3  and  C4_4
REMARK    3  A    between atoms: C7_10  and  O2_11
REMARK    4  A    between atoms: C9_13  and  C10_14
REMARK       I    between atoms: C10_14  and  N2_16
REMARK       I    between atoms: N2_16  and  C11_18
REMARK    5  A    between atoms: C11_18  and  C12_20
REMARK    6  A    between atoms: C12_20  and  C13_21
REMARK    7  A    between atoms: C13_21  and  C14_22
REMARK    8  A    between atoms: C14_22  and  C15_23
REMARK    9  A    between atoms: C15_23  and  C16_24
REMARK   10  A    between atoms: C16_24  and  N3_25
REMARK       I    between atoms: N3_25  and  C18_27
REMARK       I    between atoms: C18_27  and  N4_29
REMARK   11  A    between atoms: N4_29  and  C19_31
REMARK   12  A    between atoms: C23_37  and  N6_38
ROOT
HETATM    1  C12 UNL     1      11.789  14.449   9.169  1.00  0.00     0.103 C
ENDROOT
BRANCH   1   2
HETATM    2  C11 UNL     1      10.332  14.650   9.154  1.00  0.00     0.224 C
HETATM    3  N2  UNL     1       9.763  15.497  10.190  1.00  0.00    -0.293 N
HETATM    4  C10 UNL     1       8.389  15.754  10.250  1.00  0.00     0.263 C
ATOM      5  H2  UNL     1      10.379  15.914  10.889  1.00  0.00     0.172 HD
HETATM    6  O3  UNL     1       7.676  15.140   9.377  1.00  0.00    -0.267 OA
HETATM    7  O4  UNL     1       9.529  14.151   8.319  1.00  0.00    -0.273 OA
BRANCH   4   8
HETATM    8  C9  UNL     1       7.797  16.634  11.222  1.00  0.00     0.089 A
HETATM    9  C4  UNL     1       7.610  16.396  12.555  1.00  0.00    -0.033 A
HETATM   10  C5  UNL     1       6.939  17.298  13.378  1.00  0.00     0.082 A
HETATM   11  C6  UNL     1       6.444  18.462  12.869  1.00  0.00     0.247 A
HETATM   12  O1  UNL     1       5.826  19.303  13.606  1.00  0.00    -0.268 OA
HETATM   13  N1  UNL     1       6.629  18.698  11.564  1.00  0.00    -0.303 N
HETATM   14  C7  UNL     1       7.271  17.844  10.752  1.00  0.00     0.161 A
ATOM     15  H1  UNL     1       6.266  19.565  11.170  1.00  0.00     0.171 HD
BRANCH   9  16
HETATM   16  C3  UNL     1       8.180  15.202  13.197  1.00  0.00     0.039 C
BRANCH  16  17
HETATM   17  C2  UNL     1       9.073  15.658  14.354  1.00  0.00     0.000 C
HETATM   18  C1  UNL     1      10.435  15.967  13.757  1.00  0.00     0.005 C
ENDBRANCH  16  17
ENDBRANCH   9  16
BRANCH  14  19
HETATM   19  O2  UNL     1       7.397  18.205   9.427  1.00  0.00    -0.340 OA
HETATM   20  C8  UNL     1       6.565  19.258   8.918  1.00  0.00     0.211 C
ENDBRANCH  14  19
ENDBRANCH   4   8
ENDBRANCH   1   2
BRANCH   1  21
HETATM   21  C13 UNL     1      12.119  12.998   9.372  1.00  0.00     0.009 C
BRANCH  21  22
HETATM   22  C14 UNL     1      13.490  12.703   8.815  1.00  0.00     0.002 C
BRANCH  22  23
HETATM   23  C15 UNL     1      13.424  12.141   7.448  1.00  0.00     0.020 C
BRANCH  23  24
HETATM   24  C16 UNL     1      12.650  12.935   6.467  1.00  0.00     0.127 C
BRANCH  24  25
HETATM   25  N3  UNL     1      13.436  13.816   5.680  1.00  0.00    -0.338 N
HETATM   26  C17 UNL     1      14.911  13.635   5.879  1.00  0.00     0.154 C
HETATM   27  C18 UNL     1      13.060  14.777   4.787  1.00  0.00     0.323 C
HETATM   28  O5  UNL     1      13.996  15.380   4.135  1.00  0.00    -0.247 OA
HETATM   29  N4  UNL     1      11.718  15.152   4.542  1.00  0.00    -0.293 N
ATOM     30  H4  UNL     1      11.250  14.781   3.716  1.00  0.00     0.172 HD
BRANCH  29  31
HETATM   31  C19 UNL     1      11.061  15.948   5.323  1.00  0.00     0.142 A
HETATM   32  N5  UNL     1      11.659  16.630   6.312  1.00  0.00    -0.350 N
HETATM   33  C20 UNL     1      10.936  17.442   7.098  1.00  0.00     0.090 A
ATOM     34  H5  UNL     1      12.663  16.532   6.465  1.00  0.00     0.166 HD
HETATM   35  C21 UNL     1       9.582  17.625   6.950  1.00  0.00     0.020 A
HETATM   36  C22 UNL     1       8.931  16.944   5.947  1.00  0.00     0.041 A
HETATM   37  C23 UNL     1       9.705  16.105   5.143  1.00  0.00     0.146 A
BRANCH  37  38
HETATM   38  N6  UNL     1       9.035  15.396   4.096  1.00  0.00    -0.112 N
HETATM   39  O6  UNL     1       8.822  14.184   4.268  1.00  0.00    -0.532 OA
HETATM   40  O7  UNL     1       8.624  15.983   2.927  1.00  0.00    -0.532 OA
ENDBRANCH  37  38
ENDBRANCH  29  31
ENDBRANCH  24  25
ENDBRANCH  23  24
ENDBRANCH  22  23
ENDBRANCH  21  22
ENDBRANCH   1  21
TORSDOF 12
ENDMDL