MODEL 2
REMARK VINA RESULT: -8.259827648      2.282     11.052
REMARK  12 active torsions:
REMARK  status: ('A' for Active; 'I' for Inactive)
REMARK    1  A    between atoms: O1_2  and  C2_3
REMARK    2  A    between atoms: C4_5  and  C5_6
REMARK    3  A    between atoms: C5_6  and  N1_7
REMARK    4  A    between atoms: C11_13  and  N2_14
REMARK    5  A    between atoms: N2_14  and  C12_15
REMARK    6  A    between atoms: C16_25  and  N6_26
REMARK    7  A    between atoms: C17_28  and  C18_29
REMARK    8  A    between atoms: C18_29  and  N7_30
REMARK    9  A    between atoms: N7_30  and  C19_33
REMARK   10  A    between atoms: C19_33  and  C20_34
REMARK   11  A    between atoms: C20_34  and  C21_35
REMARK   12  A    between atoms: C21_35  and  N8_36
ROOT
HETATM    1  C12 UNL     1       7.985  17.284   9.297  1.00  0.00     0.193 A
HETATM    2  N3  UNL     1       6.693  17.323   8.779  1.00  0.00    -0.327 N
ATOM      3  H3  UNL     1       5.903  17.368   9.422  1.00  0.00     0.169 HD
HETATM    4  C13 UNL     1       6.459  17.303   7.473  1.00  0.00     0.183 A
HETATM    5  N4  UNL     1       7.455  17.240   6.561  1.00  0.00    -0.350 N
ATOM      6  H4  UNL     1       7.244  17.227   5.562  1.00  0.00     0.166 HD
HETATM    7  C14 UNL     1       8.736  17.195   6.992  1.00  0.00     0.064 A
HETATM    8  C15 UNL     1       9.766  17.072   6.104  1.00  0.00     0.120 A
HETATM    9  N5  UNL     1      11.064  16.964   6.491  1.00  0.00    -0.350 N
ATOM     10  H5  UNL     1      11.797  16.873   5.788  1.00  0.00     0.166 HD
HETATM   11  C16 UNL     1      11.389  16.977   7.810  1.00  0.00     0.105 A
HETATM   12  C26 UNL     1      10.323  17.110   8.714  1.00  0.00     0.067 A
HETATM   13  C27 UNL     1       9.002  17.217   8.343  1.00  0.00     0.054 A
ENDROOT
BRANCH  11  14
HETATM   14  N6  UNL     1      12.550  16.720   8.194  1.00  0.00    -0.354 N
HETATM   15  C17 UNL     1      13.408  15.714   8.504  1.00  0.00     0.089 C
ATOM     16  H6  UNL     1      13.042  17.604   8.325  1.00  0.00     0.166 HD
BRANCH  15  17
HETATM   17  C18 UNL     1      13.698  14.542   7.638  1.00  0.00     0.276 C
BRANCH  17  18
HETATM   18  N7  UNL     1      14.084  15.064   6.291  1.00  0.00    -0.071 N
ATOM     19  H72 UNL     1      13.962  16.076   6.250  1.00  0.00     0.277 HD
ATOM     20  H71 UNL     1      15.093  15.007   6.160  1.00  0.00     0.277 HD
BRANCH  18  21
HETATM   21  C19 UNL     1      13.407  14.440   5.217  1.00  0.00     0.234 C
BRANCH  21  22
HETATM   22  C20 UNL     1      13.337  15.319   3.963  1.00  0.00     0.047 C
BRANCH  22  23
HETATM   23  C21 UNL     1      12.712  14.544   2.831  1.00  0.00     0.127 C
BRANCH  23  24
HETATM   24  N8  UNL     1      11.481  15.160   2.412  1.00  0.00    -0.352 N
HETATM   25  C22 UNL     1      10.251  15.376   3.144  1.00  0.00     0.126 C
HETATM   26  C23 UNL     1       9.357  16.267   2.311  1.00  0.00     0.029 C
HETATM   27  C24 UNL     1       9.819  15.926   0.884  1.00  0.00     0.104 C
HETATM   28  C25 UNL     1      11.269  15.707   1.091  1.00  0.00     0.219 C
HETATM   29  O2  UNL     1      12.131  15.971   0.220  1.00  0.00    -0.273 OA
ENDBRANCH  23  24
ENDBRANCH  22  23
ENDBRANCH  21  22
ENDBRANCH  18  21
ENDBRANCH  17  18
ENDBRANCH  15  17
ENDBRANCH  11  14
BRANCH   1  30
HETATM   30  N2  UNL     1       8.113  17.323  10.468  1.00  0.00    -0.384 NA
BRANCH  30  31
HETATM   31  C11 UNL     1       8.266  17.357  11.784  1.00  0.00     0.143 A
HETATM   32  C2  UNL     1       7.405  18.027  12.665  1.00  0.00     0.109 A
HETATM   33  C3  UNL     1       7.711  18.057  13.988  1.00  0.00     0.053 A
HETATM   34  C4  UNL     1       8.846  17.453  14.493  1.00  0.00    -0.012 A
HETATM   35  C8  UNL     1       9.725  16.774  13.645  1.00  0.00    -0.047 A
HETATM   36  C9  UNL     1      10.917  16.109  14.195  1.00  0.00     0.049 C
HETATM   37  C10 UNL     1       9.418  16.741  12.335  1.00  0.00     0.055 A
BRANCH  32  38
HETATM   38  O1  UNL     1       6.264  18.621  12.094  1.00  0.00    -0.352 OA
HETATM   39  C1  UNL     1       5.012  18.025  12.240  1.00  0.00     0.210 C
ENDBRANCH  32  38
BRANCH  34  40
HETATM   40  C5  UNL     1       9.204  17.565  15.921  1.00  0.00     0.096 C
BRANCH  40  41
HETATM   41  N1  UNL     1       8.678  16.668  16.841  1.00  0.00    -0.398 N
HETATM   42  C6  UNL     1       9.503  15.671  17.428  1.00  0.00     0.148 C
HETATM   43  C7  UNL     1       7.275  16.408  16.789  1.00  0.00     0.148 C
ENDBRANCH  40  41
ENDBRANCH  34  40
ENDBRANCH  30  31
ENDBRANCH   1  30
TORSDOF 12
ENDMDL