MODEL 1
REMARK VINA RESULT: -7.805666242      0.000      0.000
REMARK  14 active torsions:
REMARK  status: ('A' for Active; 'I' for Inactive)
REMARK    1  A    between atoms: C2_2  and  O1_5
REMARK    2  A    between atoms: O1_5  and  C5_6
REMARK       I    between atoms: C5_6  and  N1_8
REMARK       I    between atoms: N2_11  and  C8_12
REMARK    3  A    between atoms: C8_12  and  C9_14
REMARK    4  A    between atoms: C9_14  and  C10_15
REMARK    5  A    between atoms: C10_15  and  C11_16
REMARK    6  A    between atoms: C11_16  and  C12_17
REMARK    7  A    between atoms: C12_17  and  C13_18
REMARK    8  A    between atoms: C13_18  and  C14_19
REMARK    9  A    between atoms: C15_20  and  S1_21
REMARK   10  A    between atoms: C18_25  and  C19_26
REMARK   11  A    between atoms: C19_26  and  C20_27
REMARK   12  A    between atoms: C20_27  and  C21_28
REMARK   13  A    between atoms: C21_28  and  C22_29
REMARK   14  A    between atoms: C22_29  and  O4_30
ROOT
HETATM    1  S1  UNL     1       9.163  15.276   5.318  1.00  0.00    -0.010 SA
HETATM    2  C16 UNL     1       9.326  16.173   3.822  1.00  0.00     0.139 C
HETATM    3  N3  UNL     1       9.450  16.754   2.830  1.00  0.00    -0.184 NA
ENDROOT
BRANCH   1   4
HETATM    4  C15 UNL     1       8.858  16.440   6.658  1.00  0.00     0.029 A
HETATM    5  C14 UNL     1       9.919  17.025   7.292  1.00  0.00     0.028 A
HETATM    6  C23 UNL     1       9.650  17.913   8.320  1.00  0.00     0.253 A
HETATM    7  N4  UNL     1       8.366  18.185   8.678  1.00  0.00    -0.327 N
HETATM    8  O5  UNL     1      10.627  18.459   8.913  1.00  0.00    -0.268 OA
HETATM    9  C18 UNL     1       7.326  17.633   8.078  1.00  0.00     0.013 A
ATOM     10  H4  UNL     1       8.199  18.842   9.441  1.00  0.00     0.169 HD
HETATM   11  C17 UNL     1       7.569  16.737   7.041  1.00  0.00     0.045 A
BRANCH   5  12
HETATM   12  C13 UNL     1      11.300  16.719   6.890  1.00  0.00     0.046 C
BRANCH  12  13
HETATM   13  C12 UNL     1      12.066  15.978   7.973  1.00  0.00     0.005 C
BRANCH  13  14
HETATM   14  C11 UNL     1      11.752  14.485   7.861  1.00  0.00     0.001 C
BRANCH  14  15
HETATM   15  C10 UNL     1      10.715  14.082   8.874  1.00  0.00     0.009 C
BRANCH  15  16
HETATM   16  C9  UNL     1      10.762  14.840  10.155  1.00  0.00     0.103 C
BRANCH  16  17
HETATM   17  C8  UNL     1       9.427  15.268  10.619  1.00  0.00     0.219 C
HETATM   18  N2  UNL     1       9.242  16.142  11.725  1.00  0.00    -0.349 N
HETATM   19  C7  UNL     1       7.910  16.539  12.136  1.00  0.00     0.145 C
HETATM   20  C24 UNL     1      10.366  16.657  12.472  1.00  0.00     0.145 C
HETATM   21  C6  UNL     1       7.979  17.670  13.156  1.00  0.00     0.148 C
HETATM   22  N1  UNL     1       8.844  17.257  14.269  1.00  0.00    -0.325 N
HETATM   23  C5  UNL     1       8.472  17.594  15.596  1.00  0.00     0.363 C
HETATM   24  C25 UNL     1      10.050  16.517  13.961  1.00  0.00     0.148 C
HETATM   25  O2  UNL     1       9.142  17.282  16.603  1.00  0.00    -0.238 OA
HETATM   26  O3  UNL     1       8.382  14.857  10.027  1.00  0.00    -0.273 OA
BRANCH  23  27
HETATM   27  O1  UNL     1       7.301  18.317  15.837  1.00  0.00    -0.294 OA
BRANCH  27  28
HETATM   28  C2  UNL     1       6.083  17.701  16.195  1.00  0.00     0.061 C
HETATM   29  C1  UNL     1       6.151  16.201  16.207  1.00  0.00     0.046 C
HETATM   30  C3  UNL     1       5.608  18.145  17.561  1.00  0.00     0.046 C
HETATM   31  C4  UNL     1       5.047  18.113  15.173  1.00  0.00     0.046 C
ENDBRANCH  27  28
ENDBRANCH  23  27
ENDBRANCH  16  17
ENDBRANCH  15  16
ENDBRANCH  14  15
ENDBRANCH  13  14
ENDBRANCH  12  13
ENDBRANCH   5  12
BRANCH   9  32
HETATM   32  C19 UNL     1       5.934  17.859   8.436  1.00  0.00     0.057 C
BRANCH  32  33
HETATM   33  C20 UNL     1       5.474  17.373   9.757  1.00  0.00     0.008 C
BRANCH  33  34
HETATM   34  C21 UNL     1       4.797  18.424  10.585  1.00  0.00     0.026 C
BRANCH  34  35
HETATM   35  C22 UNL     1       5.536  19.748  10.533  1.00  0.00     0.164 C
BRANCH  35  36
HETATM   36  O4  UNL     1       5.703  20.284  11.792  1.00  0.00    -0.401 OA
ATOM     37  H4  UNL     1       5.976  21.193  11.751  1.00  0.00     0.209 HD
ENDBRANCH  35  36
ENDBRANCH  34  35
ENDBRANCH  33  34
ENDBRANCH  32  33
ENDBRANCH   9  32
ENDBRANCH   1   4
TORSDOF 14
ENDMDL