MODEL 1
REMARK VINA RESULT: -8.519130905      0.000      0.000
REMARK  13 active torsions:
REMARK  status: ('A' for Active; 'I' for Inactive)
REMARK    1  A    between atoms: C2_2  and  C3_3
REMARK    2  A    between atoms: C3_3  and  C4_4
REMARK    3  A    between atoms: C4_4  and  C5_5
REMARK    4  A    between atoms: C5_5  and  C6_6
REMARK    5  A    between atoms: C6_6  and  O2_8
REMARK    6  A    between atoms: O2_8  and  C7_9
REMARK    7  A    between atoms: C9_11  and  O3_12
REMARK    8  A    between atoms: C25_31  and  C26_32
REMARK    9  A    between atoms: C26_32  and  C27_33
REMARK   10  A    between atoms: C27_33  and  N1_34
REMARK   11  A    between atoms: N1_34  and  C28_36
REMARK   12  A    between atoms: C28_36  and  C29_37
REMARK   13  A    between atoms: C29_37  and  N2_38
ROOT
HETATM    1  C7  UNL     1       9.632  14.716   7.278  1.00  0.00     0.139 C
HETATM    2  C8  UNL     1       8.488  15.681   7.176  1.00  0.00     0.065 C
HETATM    3  C9  UNL     1       8.307  16.333   8.514  1.00  0.00     0.125 C
HETATM    4  C10 UNL     1       8.961  15.545   9.635  1.00  0.00     0.027 C
HETATM    5  C11 UNL     1       8.492  15.967  10.961  1.00  0.00    -0.002 C
HETATM    6  C12 UNL     1       7.918  17.383  11.027  1.00  0.00     0.006 C
HETATM    7  C13 UNL     1       7.233  17.509  12.403  1.00  0.00     0.007 C
HETATM    8  C14 UNL     1       8.401  17.631  13.376  1.00  0.00     0.009 C
HETATM    9  C15 UNL     1       7.825  17.734  14.765  1.00  0.00     0.092 C
HETATM   10  C16 UNL     1       7.455  16.319  15.094  1.00  0.00     0.196 C
HETATM   11  O4  UNL     1       6.753  16.019  16.091  1.00  0.00    -0.289 OA
HETATM   12  C17 UNL     1       8.044  15.451  14.084  1.00  0.00     0.203 C
HETATM   13  O5  UNL     1       7.721  14.263  13.883  1.00  0.00    -0.288 OA
HETATM   14  C18 UNL     1       9.067  16.303  13.397  1.00  0.00     0.033 C
HETATM   15  C19 UNL     1      10.260  16.378  14.328  1.00  0.00     0.025 C
HETATM   16  C20 UNL     1       9.489  15.767  12.074  1.00  0.00     0.006 C
HETATM   17  C21 UNL     1      10.827  16.344  11.748  1.00  0.00     0.007 C
HETATM   18  C22 UNL     1      11.082  16.526  10.266  1.00  0.00     0.010 C
HETATM   19  C23 UNL     1      10.473  15.432   9.445  1.00  0.00    -0.031 C
HETATM   20  C24 UNL     1      10.896  14.085  10.025  1.00  0.00     0.016 C
HETATM   21  C25 UNL     1      10.784  15.473   7.993  1.00  0.00     0.028 C
ENDROOT
BRANCH  21  22
HETATM   22  C26 UNL     1      11.981  14.787   7.492  1.00  0.00     0.052 C
BRANCH  22  23
HETATM   23  C27 UNL     1      13.293  15.535   7.492  1.00  0.00     0.060 C
BRANCH  23  24
HETATM   24  N1  UNL     1      13.998  15.189   6.322  1.00  0.00    -0.381 N
ATOM     25  H1  UNL     1      14.757  15.787   5.997  1.00  0.00     0.164 HD
BRANCH  24  26
HETATM   26  C28 UNL     1      13.669  14.033   5.596  1.00  0.00     0.087 C
BRANCH  26  27
HETATM   27  C29 UNL     1      13.276  14.323   4.181  1.00  0.00     0.274 C
BRANCH  27  28
HETATM   28  N2  UNL     1      13.669  15.585   3.662  1.00  0.00    -0.075 N
ATOM     29  H23 UNL     1      13.189  16.329   4.167  1.00  0.00     0.274 HD
ATOM     30  H22 UNL     1      14.636  15.777   3.921  1.00  0.00     0.274 HD
ATOM     31  H21 UNL     1      13.550  15.719   2.657  1.00  0.00     0.274 HD
ENDBRANCH  27  28
ENDBRANCH  26  27
ENDBRANCH  24  26
ENDBRANCH  23  24
ENDBRANCH  22  23
ENDBRANCH  21  22
BRANCH   1  32
HETATM   32  O2  UNL     1      10.045  14.459   5.947  1.00  0.00    -0.316 OA
BRANCH  32  33
HETATM   33  C6  UNL     1       9.421  14.980   4.825  1.00  0.00     0.259 C
HETATM   34  O1  UNL     1       8.704  14.210   4.147  1.00  0.00    -0.265 OA
BRANCH  33  35
HETATM   35  C5  UNL     1       9.583  16.396   4.422  1.00  0.00     0.111 C
BRANCH  35  36
HETATM   36  C4  UNL     1       9.193  16.709   3.027  1.00  0.00     0.010 C
BRANCH  36  37
HETATM   37  C3  UNL     1      10.277  16.709   2.009  1.00  0.00     0.000 C
BRANCH  37  38
HETATM   38  C2  UNL     1       9.919  15.960   0.741  1.00  0.00    -0.005 C
HETATM   39  C1  UNL     1      11.065  15.205   0.152  1.00  0.00     0.005 C
ENDBRANCH  37  38
ENDBRANCH  36  37
ENDBRANCH  35  36
ENDBRANCH  33  35
ENDBRANCH  32  33
ENDBRANCH   1  32
BRANCH   3  40
HETATM   40  O3  UNL     1       8.716  17.633   8.424  1.00  0.00    -0.395 OA
ATOM     41  H3  UNL     1       9.506  17.739   8.940  1.00  0.00     0.210 HD
ENDBRANCH   3  40
TORSDOF 13
ENDMDL