MODEL 4
REMARK VINA RESULT: -8.176505588      4.374     10.986
REMARK  13 active torsions:
REMARK  status: ('A' for Active; 'I' for Inactive)
REMARK    1  A    between atoms: C7_8  and  C8_9
REMARK    2  A    between atoms: C9_10  and  C10_11
REMARK    3  A    between atoms: C11_13  and  C12_14
REMARK    4  A    between atoms: C12_14  and  C13_15
REMARK    5  A    between atoms: C14_16  and  C15_17
REMARK    6  A    between atoms: C15_17  and  C16_18
REMARK    7  A    between atoms: C16_18  and  C17_19
REMARK    8  A    between atoms: C17_19  and  C18_20
REMARK    9  A    between atoms: C19_23  and  O4_24
REMARK   10  A    between atoms: C20_26  and  O5_27
REMARK   11  A    between atoms: C21_29  and  O6_30
REMARK   12  A    between atoms: N2_33  and  C24_34
REMARK   13  A    between atoms: C24_34  and  C26_36
ROOT
HETATM    1  C8  UNL     1      13.108  14.240   5.746  1.00  0.00     0.008 C
HETATM    2  C9  UNL     1      12.709  13.583   4.673  1.00  0.00     0.006 C
ENDROOT
BRANCH   1   3
HETATM    3  C7  UNL     1      12.251  14.427   6.920  1.00  0.00     0.173 C
HETATM    4  C2  UNL     1      12.357  13.358   7.935  1.00  0.00    -0.057 C
HETATM    5  C1  UNL     1      12.738  12.183   7.503  1.00  0.00     0.017 C
HETATM    6  C3  UNL     1      12.085  13.461   9.381  1.00  0.00     0.038 C
HETATM    7  C4  UNL     1      10.768  14.236   9.497  1.00  0.00     0.032 C
HETATM    8  C5  UNL     1      11.080  15.721   9.525  1.00  0.00     0.111 C
HETATM    9  C6  UNL     1      11.236  16.094   8.030  1.00  0.00     0.175 C
HETATM   10  N2  UNL     1      10.034  16.552   9.912  1.00  0.00    -0.399 N
HETATM   11  O1  UNL     1      12.450  15.698   7.514  1.00  0.00    -0.368 OA
HETATM   12  C21 UNL     1      11.100  17.599   8.085  1.00  0.00     0.169 C
HETATM   13  C23 UNL     1      10.049  17.775   9.141  1.00  0.00     0.152 C
BRANCH  12  14
HETATM   14  O6  UNL     1      10.628  18.035   6.841  1.00  0.00    -0.386 OA
HETATM   15  C22 UNL     1       9.285  17.626   6.759  1.00  0.00     0.202 C
ENDBRANCH  12  14
BRANCH  10  16
HETATM   16  C24 UNL     1       9.651  16.800  11.223  1.00  0.00     0.079 C
HETATM   17  C25 UNL     1       8.357  17.612  11.394  1.00  0.00     0.032 C
BRANCH  16  18
HETATM   18  C26 UNL     1       9.687  15.661  12.209  1.00  0.00    -0.001 C
HETATM   19  C27 UNL     1      10.495  16.138  13.440  1.00  0.00     0.011 C
HETATM   20  C28 UNL     1       8.324  15.318  12.786  1.00  0.00     0.011 C
ENDBRANCH  16  18
ENDBRANCH  10  16
ENDBRANCH   1   3
BRANCH   2  21
HETATM   21  C10 UNL     1      13.577  13.390   3.476  1.00  0.00     0.176 C
HETATM   22  O2  UNL     1      12.886  13.686   2.303  1.00  0.00    -0.371 OA
HETATM   23  C11 UNL     1      13.605  12.996   1.325  1.00  0.00     0.157 C
HETATM   24  C19 UNL     1      13.664  11.614   1.946  1.00  0.00     0.178 C
HETATM   25  C20 UNL     1      13.947  11.936   3.400  1.00  0.00     0.182 C
BRANCH  23  26
HETATM   26  C12 UNL     1      12.845  12.933   0.020  1.00  0.00     0.061 C
BRANCH  26  27
HETATM   27  C13 UNL     1      11.533  13.603   0.228  1.00  0.00    -0.028 C
HETATM   28  C14 UNL     1      11.403  14.860  -0.108  1.00  0.00    -0.031 C
BRANCH  28  29
HETATM   29  C15 UNL     1      10.128  15.626   0.058  1.00  0.00     0.027 C
BRANCH  29  30
HETATM   30  C16 UNL     1      10.144  16.517   1.262  1.00  0.00     0.013 C
BRANCH  30  31
HETATM   31  C17 UNL     1       9.242  15.984   2.316  1.00  0.00     0.100 C
BRANCH  31  32
HETATM   32  C18 UNL     1       9.893  15.717   3.614  1.00  0.00     0.231 C
HETATM   33  N1  UNL     1       9.260  14.718   4.439  1.00  0.00    -0.062 NA
HETATM   34  O3  UNL     1      10.924  16.282   4.029  1.00  0.00    -0.277 OA
ENDBRANCH  31  32
ENDBRANCH  30  31
ENDBRANCH  29  30
ENDBRANCH  28  29
ENDBRANCH  26  27
ENDBRANCH  23  26
BRANCH  24  35
HETATM   35  O4  UNL     1      12.427  10.975   1.906  1.00  0.00    -0.390 OA
ATOM     36  H4  UNL     1      11.756  11.472   2.360  1.00  0.00     0.210 HD
ENDBRANCH  24  35
BRANCH  25  37
HETATM   37  O5  UNL     1      13.262  11.132   4.282  1.00  0.00    -0.390 OA
ATOM     38  H5  UNL     1      12.576  11.578   4.764  1.00  0.00     0.210 HD
ENDBRANCH  25  37
ENDBRANCH   2  21
TORSDOF 13
ENDMDL