MODEL 5
REMARK VINA RESULT: -8.037035975      2.857      6.295
REMARK  12 active torsions:
REMARK  status: ('A' for Active; 'I' for Inactive)
REMARK    1  A    between atoms: C2_2  and  N1_4
REMARK    2  A    between atoms: N1_4  and  C3_6
REMARK    3  A    between atoms: C3_6  and  C4_7
REMARK    4  A    between atoms: C4_7  and  C5_8
REMARK    5  A    between atoms: C5_8  and  C6_9
REMARK    6  A    between atoms: C6_9  and  C7_10
REMARK    7  A    between atoms: C7_10  and  C8_11
REMARK    8  A    between atoms: C7_10  and  N2_13
REMARK       I    between atoms: N2_13  and  C9_15
REMARK    9  A    between atoms: C9_15  and  C10_17
REMARK   10  A    between atoms: C10_17  and  C11_18
REMARK   11  A    between atoms: C10_17  and  C18_25
REMARK   12  A    between atoms: C11_18  and  C12_19
REMARK       I    between atoms: C18_25  and  N3_27
ROOT
HETATM    1  C10 UNL     1       8.816  15.690  10.614  1.00  0.00     0.170 C
ENDROOT
BRANCH   1   2
HETATM    2  C9  UNL     1       8.117  16.911  10.197  1.00  0.00     0.231 C
HETATM    3  N2  UNL     1       6.792  16.813   9.725  1.00  0.00    -0.350 N
ATOM      4  H2  UNL     1       6.352  15.893   9.723  1.00  0.00     0.163 HD
HETATM    5  O2  UNL     1       8.712  17.998  10.258  1.00  0.00    -0.273 OA
BRANCH   3   6
HETATM    6  C7  UNL     1       6.008  17.952   9.239  1.00  0.00     0.146 C
BRANCH   6   7
HETATM    7  C6  UNL     1       4.964  18.241  10.264  1.00  0.00     0.032 C
BRANCH   7   8
HETATM    8  C5  UNL     1       5.247  19.224  11.315  1.00  0.00     0.004 C
BRANCH   8   9
HETATM    9  C4  UNL     1       5.989  18.793  12.539  1.00  0.00     0.020 C
BRANCH   9  10
HETATM   10  C3  UNL     1       4.955  18.134  13.445  1.00  0.00     0.120 C
BRANCH  10  11
HETATM   11  N1  UNL     1       5.142  18.471  14.840  1.00  0.00    -0.385 N
ATOM     12  H1  UNL     1       5.746  19.244  15.121  1.00  0.00     0.160 HD
BRANCH  11  13
HETATM   13  C2  UNL     1       4.463  17.696  15.794  1.00  0.00     0.069 C
HETATM   14  C1  UNL     1       5.144  17.252  17.022  1.00  0.00     0.081 C
HETATM   15  S1  UNL     1       2.914  17.269  15.543  1.00  0.00    -0.066 SA
ENDBRANCH  11  13
ENDBRANCH  10  11
ENDBRANCH   9  10
ENDBRANCH   8   9
ENDBRANCH   7   8
ENDBRANCH   6   7
BRANCH   6  16
HETATM   16  C8  UNL     1       5.576  17.624   7.888  1.00  0.00     0.256 C
HETATM   17  O1  UNL     1       4.541  18.153   7.438  1.00  0.00    -0.305 OA
ENDBRANCH   6  16
ENDBRANCH   3   6
ENDBRANCH   1   2
BRANCH   1  18
HETATM   18  C11 UNL     1       9.785  15.684  11.722  1.00  0.00     0.028 C
BRANCH  18  19
HETATM   19  C12 UNL     1       9.397  16.143  13.051  1.00  0.00    -0.013 C
HETATM   20  C13 UNL     1       8.456  15.072  13.706  1.00  0.00     0.005 C
HETATM   21  C14 UNL     1       7.687  15.917  14.729  1.00  0.00     0.000 C
HETATM   22  C15 UNL     1       8.627  16.544  15.710  1.00  0.00     0.000 C
HETATM   23  C16 UNL     1      10.053  16.142  15.499  1.00  0.00     0.000 C
HETATM   24  C17 UNL     1      10.509  16.197  14.064  1.00  0.00     0.005 C
ENDBRANCH  18  19
ENDBRANCH   1  18
BRANCH   1  25
HETATM   25  C18 UNL     1       9.512  15.213   9.339  1.00  0.00     0.234 C
HETATM   26  O3  UNL     1       9.118  15.709   8.271  1.00  0.00    -0.272 OA
HETATM   27  N3  UNL     1      10.516  14.284   9.413  1.00  0.00    -0.333 N
HETATM   28  C19 UNL     1      11.618  14.145   8.824  1.00  0.00     0.003 C
ATOM     29  H3  UNL     1      10.329  13.546  10.092  1.00  0.00     0.168 HD
HETATM   30  C20 UNL     1      12.464  12.966   9.184  1.00  0.00     0.054 C
HETATM   31  C23 UNL     1      12.090  15.099   7.812  1.00  0.00     0.192 C
HETATM   32  C21 UNL     1      13.288  12.488   8.037  1.00  0.00     0.021 C
HETATM   33  C22 UNL     1      12.559  12.492   6.705  1.00  0.00     0.141 C
HETATM   34  S2  UNL     1      12.227  14.196   6.280  1.00  0.00     0.149 S
HETATM   35  O4  UNL     1      10.929  14.262   5.568  1.00  0.00    -0.228 OA
HETATM   36  O5  UNL     1      13.300  14.755   5.435  1.00  0.00    -0.228 OA
ENDBRANCH   1  25
TORSDOF 12
ENDMDL