MODEL 1
REMARK VINA RESULT: -8.433694548      0.000      0.000
REMARK  11 active torsions:
REMARK  status: ('A' for Active; 'I' for Inactive)
REMARK    1  A    between atoms: C2_2  and  C3_3
REMARK    2  A    between atoms: C3_3  and  N1_4
REMARK    3  A    between atoms: N1_4  and  C4_5
REMARK    4  A    between atoms: N1_4  and  C8_10
REMARK    5  A    between atoms: C4_5  and  C5_6
REMARK    6  A    between atoms: C5_6  and  O1_7
REMARK    7  A    between atoms: O1_7  and  C6_8
REMARK    8  A    between atoms: N4_20  and  C13_21
REMARK    9  A    between atoms: C21_30  and  O4_31
REMARK   10  A    between atoms: C24_34  and  N5_35
REMARK   11  A    between atoms: N5_35  and  N6_37
ROOT
HETATM    1  C8  UNL     1       6.980  18.180  11.497  1.00  0.00     0.115 C
HETATM    2  N2  UNL     1       7.767  18.244  10.401  1.00  0.00    -0.341 N
ATOM      3  H2  UNL     1       7.586  19.019   9.764  1.00  0.00     0.167 HD
HETATM    4  C9  UNL     1       8.772  17.398  10.043  1.00  0.00     0.050 A
HETATM    5  C10 UNL     1       9.036  17.332   8.707  1.00  0.00     0.062 A
HETATM    6  C11 UNL     1      10.050  16.491   8.228  1.00  0.00     0.065 A
HETATM    7  N3  UNL     1      10.489  16.256   6.979  1.00  0.00    -0.306 N
ATOM      8  H3  UNL     1      10.132  16.681   6.123  1.00  0.00     0.171 HD
HETATM    9  C12 UNL     1      11.495  15.349   7.066  1.00  0.00     0.328 A
HETATM   10  O2  UNL     1      12.105  14.935   6.031  1.00  0.00    -0.246 OA
HETATM   11  N4  UNL     1      11.703  15.005   8.345  1.00  0.00    -0.293 N
HETATM   12  C16 UNL     1      10.806  15.715   9.059  1.00  0.00     0.067 A
HETATM   13  C17 UNL     1      10.528  15.788  10.428  1.00  0.00     0.050 A
HETATM   14  C18 UNL     1       9.530  16.616  10.898  1.00  0.00     0.044 A
HETATM   15  C19 UNL     1       9.471  16.491  12.261  1.00  0.00     0.198 C
HETATM   16  O3  UNL     1      10.412  15.842  12.825  1.00  0.00    -0.286 OA
HETATM   17  C20 UNL     1       8.509  16.987  13.096  1.00  0.00     0.062 A
HETATM   18  C21 UNL     1       8.788  16.640  14.397  1.00  0.00     0.085 A
HETATM   19  C23 UNL     1       7.893  17.078  15.368  1.00  0.00     0.068 A
HETATM   20  C24 UNL     1       6.774  17.825  15.067  1.00  0.00     0.053 A
HETATM   21  C25 UNL     1       6.553  18.138  13.734  1.00  0.00     0.047 A
HETATM   22  C26 UNL     1       7.391  17.741  12.731  1.00  0.00     0.027 A
ENDROOT
BRANCH   1  23
HETATM   23  N1  UNL     1       5.593  18.593  11.366  1.00  0.00    -0.365 N
BRANCH  23  24
HETATM   24  C3  UNL     1       4.572  17.582  11.503  1.00  0.00     0.124 C
BRANCH  24  25
HETATM   25  C2  UNL     1       3.248  18.007  11.994  1.00  0.00     0.015 C
HETATM   26  C1  UNL     1       2.355  16.861  12.441  1.00  0.00     0.006 C
ENDBRANCH  24  25
ENDBRANCH  23  24
BRANCH  23  27
HETATM   27  C4  UNL     1       5.393  19.982  11.110  1.00  0.00     0.150 C
BRANCH  27  28
HETATM   28  C5  UNL     1       5.089  20.403   9.724  1.00  0.00     0.187 C
BRANCH  28  29
HETATM   29  O1  UNL     1       5.794  19.526   8.858  1.00  0.00    -0.390 OA
BRANCH  29  30
HETATM   30  C6  UNL     1       4.909  18.844   8.034  1.00  0.00     0.163 C
HETATM   31  C7  UNL     1       5.239  17.395   7.861  1.00  0.00     0.033 C
ENDBRANCH  29  30
ENDBRANCH  28  29
ENDBRANCH  27  28
ENDBRANCH  23  27
ENDBRANCH   1  23
BRANCH  18  32
HETATM   32  O4  UNL     1       9.909  15.894  14.696  1.00  0.00    -0.355 OA
HETATM   33  C22 UNL     1      10.328  15.808  16.051  1.00  0.00     0.210 C
ENDBRANCH  18  32
BRANCH  20  34
HETATM   34  N5  UNL     1       5.873  18.269  16.073  1.00  0.00    -0.287 N
ATOM     35  H5  UNL     1       4.941  18.584  15.805  1.00  0.00     0.188 HD
BRANCH  34  36
HETATM   36  N6  UNL     1       6.237  18.284  17.421  1.00  0.00    -0.249 N
HETATM   37  N7  UNL     1       5.525  18.795  18.327  1.00  0.00    -0.331 N
ATOM     38  H72 UNL     1       4.640  19.217  18.043  1.00  0.00     0.178 HD
ATOM     39  H71 UNL     1       5.790  18.805  19.311  1.00  0.00     0.178 HD
ATOM     40  H6  UNL     1       7.125  17.858  17.686  1.00  0.00     0.207 HD
ENDBRANCH  34  36
ENDBRANCH  20  34
BRANCH  11  41
HETATM   41  C13 UNL     1      12.672  14.074   8.872  1.00  0.00     0.087 C
HETATM   42  C14 UNL     1      14.065  14.395   8.446  1.00  0.00     0.032 C
HETATM   43  C15 UNL     1      12.303  12.632   8.579  1.00  0.00     0.032 C
ENDBRANCH  11  41
TORSDOF 11
ENDMDL