MODEL 1
REMARK VINA RESULT: -8.766223651      0.000      0.000
REMARK  12 active torsions:
REMARK  status: ('A' for Active; 'I' for Inactive)
REMARK       I    between atoms: N1_2  and  C2_4
REMARK    1  A    between atoms: C2_4  and  C3_6
REMARK    2  A    between atoms: C3_6  and  C4_7
REMARK    3  A    between atoms: C4_7  and  C5_8
REMARK    4  A    between atoms: C5_8  and  N2_9
REMARK    5  A    between atoms: C5_8  and  C22_41
REMARK    6  A    between atoms: C8_15  and  C9_16
REMARK    7  A    between atoms: C9_16  and  C10_17
REMARK    8  A    between atoms: C10_17  and  C11_18
REMARK    9  A    between atoms: C11_18  and  C12_19
REMARK   10  A    between atoms: C12_19  and  C13_20
REMARK   11  A    between atoms: C14_25  and  N6_26
REMARK       I    between atoms: N6_26  and  C15_28
REMARK   12  A    between atoms: C15_28  and  C16_30
ROOT
HETATM    1  N2  UNL     1       8.034  18.280   8.153  1.00  0.00    -0.369 N
ATOM      2  H2  UNL     1       8.433  19.219   8.154  1.00  0.00     0.161 HD
HETATM    3  C6  UNL     1       8.578  17.426   7.373  1.00  0.00     0.131 A
HETATM    4  C7  UNL     1       9.672  17.832   6.579  1.00  0.00     0.139 A
HETATM    5  N3  UNL     1      10.222  16.915   5.780  1.00  0.00    -0.351 N
ATOM      6  H3  UNL     1      11.014  17.190   5.198  1.00  0.00     0.166 HD
HETATM    7  C8  UNL     1       9.787  15.656   5.704  1.00  0.00     0.095 A
HETATM    8  N7  UNL     1       8.752  15.306   6.467  1.00  0.00    -0.287 N
ATOM      9  H7  UNL     1       8.406  14.348   6.422  1.00  0.00     0.188 HD
HETATM   10  N8  UNL     1       8.151  16.179   7.293  1.00  0.00    -0.283 N
ATOM     11  H8  UNL     1       7.360  15.877   7.863  1.00  0.00     0.188 HD
ENDROOT
BRANCH   7  12
HETATM   12  C9  UNL     1      10.420  14.678   4.813  1.00  0.00     0.078 C
BRANCH  12  13
HETATM   13  C10 UNL     1      11.919  14.835   4.956  1.00  0.00     0.008 C
BRANCH  13  14
HETATM   14  C11 UNL     1      12.579  13.639   5.558  1.00  0.00     0.007 C
BRANCH  14  15
HETATM   15  C12 UNL     1      13.526  13.997   6.684  1.00  0.00     0.066 C
BRANCH  15  16
HETATM   16  C13 UNL     1      12.777  14.880   7.649  1.00  0.00     0.069 A
HETATM   17  N4  UNL     1      12.981  16.166   7.881  1.00  0.00    -0.296 N
HETATM   18  N5  UNL     1      12.270  16.789   8.727  1.00  0.00    -0.279 N
ATOM     19  H4  UNL     1      13.716  16.662   7.377  1.00  0.00     0.187 HD
HETATM   20  C14 UNL     1      11.311  16.116   9.374  1.00  0.00     0.167 A
ATOM     21  H5  UNL     1      12.424  17.781   8.910  1.00  0.00     0.189 HD
HETATM   22  S1  UNL     1      11.482  14.551   8.712  1.00  0.00    -0.038 SA
BRANCH  20  23
HETATM   23  N6  UNL     1      10.477  16.580  10.279  1.00  0.00    -0.306 N
HETATM   24  C15 UNL     1       9.559  15.702  10.915  1.00  0.00     0.227 C
HETATM   25  O2  UNL     1       8.656  15.208  10.195  1.00  0.00    -0.273 OA
ATOM     26  H6  UNL     1      10.490  17.570  10.524  1.00  0.00     0.171 HD
BRANCH  24  27
HETATM   27  C16 UNL     1       9.612  15.351  12.352  1.00  0.00     0.078 C
HETATM   28  C17 UNL     1       8.195  15.199  12.846  1.00  0.00     0.014 C
HETATM   29  C18 UNL     1       8.115  15.146  14.359  1.00  0.00     0.001 C
HETATM   30  C19 UNL     1       8.736  16.435  14.867  1.00  0.00     0.000 C
HETATM   31  C20 UNL     1      10.232  16.317  14.582  1.00  0.00     0.001 C
HETATM   32  C21 UNL     1      10.390  16.385  13.083  1.00  0.00     0.014 C
ENDBRANCH  24  27
ENDBRANCH  20  23
ENDBRANCH  15  16
ENDBRANCH  14  15
ENDBRANCH  13  14
ENDBRANCH  12  13
ENDBRANCH   7  12
BRANCH   1  33
HETATM   33  C5  UNL     1       6.953  18.060   9.000  1.00  0.00     0.087 C
BRANCH  33  34
HETATM   34  C4  UNL     1       7.194  18.458  10.431  1.00  0.00     0.034 C
BRANCH  34  35
HETATM   35  C3  UNL     1       6.399  17.696  11.408  1.00  0.00     0.105 C
BRANCH  35  36
HETATM   36  C2  UNL     1       5.849  18.347  12.574  1.00  0.00     0.217 C
HETATM   37  N1  UNL     1       5.349  17.525  13.639  1.00  0.00    -0.365 N
HETATM   38  C1  UNL     1       4.778  18.071  14.850  1.00  0.00     0.149 C
ATOM     39  H1  UNL     1       5.399  16.511  13.537  1.00  0.00     0.161 HD
HETATM   40  O1  UNL     1       5.758  19.577  12.759  1.00  0.00    -0.274 OA
ENDBRANCH  35  36
ENDBRANCH  34  35
ENDBRANCH  33  34
BRANCH  33  41
HETATM   41  C22 UNL     1       5.743  18.879   8.470  1.00  0.00     0.008 A
HETATM   42  C23 UNL     1       4.390  18.223   8.665  1.00  0.00     0.007 A
HETATM   43  C24 UNL     1       5.011  18.319   7.306  1.00  0.00     0.007 A
ENDBRANCH  33  41
ENDBRANCH   1  33
TORSDOF 12
ENDMDL