MODEL 1
REMARK VINA RESULT: -8.642187948      0.000      0.000
REMARK  12 active torsions:
REMARK  status: ('A' for Active; 'I' for Inactive)
REMARK    1  A    between atoms: O1_2  and  C2_3
REMARK    2  A    between atoms: C4_5  and  C5_6
REMARK    3  A    between atoms: C5_6  and  C6_7
REMARK    4  A    between atoms: C7_8  and  O2_9
REMARK    5  A    between atoms: O2_9  and  C8_10
REMARK    6  A    between atoms: C8_10  and  C9_11
REMARK    7  A    between atoms: C9_11  and  N1_12
REMARK       I    between atoms: N1_12  and  C10_14
REMARK    8  A    between atoms: C12_21  and  N4_22
REMARK    9  A    between atoms: N4_22  and  C13_24
REMARK   10  A    between atoms: N5_27  and  C16_28
REMARK   11  A    between atoms: C23_35  and  O4_36
REMARK   12  A    between atoms: C25_38  and  O5_39
ROOT
HETATM    1  C6  UNL     1       9.903  15.594   9.101  1.00  0.00     0.043 A
HETATM    2  C7  UNL     1      10.789  16.305   9.942  1.00  0.00     0.167 A
HETATM    3  N2  UNL     1      11.863  16.551   9.167  1.00  0.00    -0.278 N
ATOM      4  H2  UNL     1      12.700  17.052   9.464  1.00  0.00     0.189 HD
HETATM    5  N3  UNL     1      11.669  16.049   7.972  1.00  0.00    -0.283 N
ATOM      6  H3  UNL     1      12.343  16.110   7.209  1.00  0.00     0.188 HD
HETATM    7  C12 UNL     1      10.485  15.450   7.874  1.00  0.00     0.127 A
ENDROOT
BRANCH   1   8
HETATM    8  C5  UNL     1       8.568  15.099   9.491  1.00  0.00     0.085 C
BRANCH   8   9
HETATM    9  C4  UNL     1       7.589  16.135   9.817  1.00  0.00    -0.048 A
HETATM   10  C3  UNL     1       7.130  16.327  11.100  1.00  0.00     0.047 A
HETATM   11  C2  UNL     1       6.206  17.312  11.415  1.00  0.00     0.104 A
HETATM   12  C25 UNL     1       5.729  18.134  10.388  1.00  0.00     0.135 A
HETATM   13  C23 UNL     1       6.183  17.943   9.126  1.00  0.00     0.104 A
HETATM   14  C22 UNL     1       7.104  16.957   8.831  1.00  0.00     0.047 A
BRANCH  11  15
HETATM   15  O1  UNL     1       5.719  17.544  12.672  1.00  0.00    -0.353 OA
HETATM   16  C1  UNL     1       6.459  18.333  13.613  1.00  0.00     0.210 C
ENDBRANCH  11  15
BRANCH  12  17
HETATM   17  O5  UNL     1       4.797  19.138  10.668  1.00  0.00    -0.351 OA
HETATM   18  C26 UNL     1       5.328  20.431  10.908  1.00  0.00     0.210 C
ENDBRANCH  12  17
BRANCH  13  19
HETATM   19  O4  UNL     1       5.703  18.768   8.105  1.00  0.00    -0.353 OA
HETATM   20  C24 UNL     1       4.545  18.513   7.369  1.00  0.00     0.210 C
ENDBRANCH  13  19
ENDBRANCH   8   9
ENDBRANCH   1   8
BRANCH   2  21
HETATM   21  O2  UNL     1      10.534  16.620  11.207  1.00  0.00    -0.333 OA
BRANCH  21  22
HETATM   22  C8  UNL     1      10.636  16.382  12.482  1.00  0.00     0.197 C
BRANCH  22  23
HETATM   23  C9  UNL     1       9.581  16.782  13.473  1.00  0.00     0.149 C
BRANCH  23  24
HETATM   24  N1  UNL     1       9.554  16.030  14.684  1.00  0.00    -0.359 N
HETATM   25  C10 UNL     1       9.357  16.793  15.894  1.00  0.00     0.213 C
HETATM   26  C11 UNL     1       9.322  16.060  17.174  1.00  0.00     0.117 C
HETATM   27  O3  UNL     1       9.217  18.033  15.909  1.00  0.00    -0.274 OA
ATOM     28  H1  UNL     1       9.667  15.017  14.694  1.00  0.00     0.162 HD
ENDBRANCH  23  24
ENDBRANCH  22  23
ENDBRANCH  21  22
ENDBRANCH   2  21
BRANCH   7  29
HETATM   29  N4  UNL     1       9.936  14.857   6.913  1.00  0.00    -0.368 N
ATOM     30  H4  UNL     1       9.621  13.921   7.169  1.00  0.00     0.161 HD
BRANCH  29  31
HETATM   31  C13 UNL     1       9.652  15.161   5.593  1.00  0.00     0.113 C
HETATM   32  C14 UNL     1       8.954  16.424   5.251  1.00  0.00     0.057 C
HETATM   33  C15 UNL     1       9.151  16.453   3.728  1.00  0.00     0.275 C
HETATM   34  N5  UNL     1      10.470  15.927   3.525  1.00  0.00     0.095 N
HETATM   35  C21 UNL     1      10.853  15.184   4.664  1.00  0.00     0.297 C
BRANCH  34  36
HETATM   36  C16 UNL     1      10.693  15.332   2.264  1.00  0.00     0.223 C
HETATM   37  C17 UNL     1      10.138  16.079   1.080  1.00  0.00     0.036 C
HETATM   38  C18 UNL     1      10.691  15.207  -0.059  1.00  0.00     0.002 C
HETATM   39  C19 UNL     1      12.098  14.969   0.384  1.00  0.00     0.002 C
HETATM   40  C20 UNL     1      12.153  15.221   1.885  1.00  0.00     0.036 C
ENDBRANCH  34  36
ENDBRANCH  29  31
ENDBRANCH   7  29
TORSDOF 12
ENDMDL