MODEL 4
REMARK VINA RESULT: -7.619093899      5.339     10.018
REMARK  17 active torsions:
REMARK  status: ('A' for Active; 'I' for Inactive)
REMARK    1  A    between atoms: C2_2  and  C3_3
REMARK    2  A    between atoms: C3_3  and  C4_4
REMARK    3  A    between atoms: C3_3  and  C7_7
REMARK    4  A    between atoms: C7_7  and  C9_9
REMARK    5  A    between atoms: C10_10  and  C11_11
REMARK    6  A    between atoms: C11_11  and  C12_13
REMARK    7  A    between atoms: C14_15  and  C15_16
REMARK    8  A    between atoms: C24_27  and  C25_28
REMARK    9  A    between atoms: C25_28  and  C26_30
REMARK   10  A    between atoms: C26_30  and  N1_31
REMARK   11  A    between atoms: C32_38  and  C33_39
REMARK   12  A    between atoms: C33_39  and  O5_40
REMARK   13  A    between atoms: O5_40  and  C34_41
REMARK   14  A    between atoms: C34_41  and  C35_42
REMARK   15  A    between atoms: C35_42  and  O6_43
REMARK   16  A    between atoms: C36_45  and  O7_46
REMARK   17  A    between atoms: C37_48  and  O8_49
ROOT
HETATM    1  C12 UNL     1       5.129   0.662  13.737  1.00  0.00     0.074 C
HETATM    2  C13 UNL     1       3.620   0.851  14.009  1.00  0.00     0.035 C
HETATM    3  C14 UNL     1       3.599  -0.550  13.464  1.00  0.00     0.065 A
HETATM    4  C16 UNL     1       4.014  -1.782  14.008  1.00  0.00     0.019 A
HETATM    5  C17 UNL     1       4.920  -2.878  13.510  1.00  0.00     0.013 C
HETATM    6  C18 UNL     1       6.095  -2.914  14.454  1.00  0.00     0.005 C
HETATM    7  C19 UNL     1       7.218  -3.825  14.109  1.00  0.00     0.003 C
HETATM    8  C20 UNL     1       8.543  -3.159  14.499  1.00  0.00     0.007 C
HETATM    9  C21 UNL     1       8.273  -2.931  15.975  1.00  0.00     0.011 C
HETATM   10  C22 UNL     1       7.043  -3.729  16.345  1.00  0.00    -0.021 C
HETATM   11  C23 UNL     1       7.012  -4.211  17.724  1.00  0.00     0.017 C
HETATM   12  C24 UNL     1       7.130  -4.814  15.295  1.00  0.00     0.070 C
HETATM   13  C32 UNL     1       5.742  -3.038  15.892  1.00  0.00     0.021 C
HETATM   14  C36 UNL     1       5.576  -1.697  16.491  1.00  0.00     0.159 C
HETATM   15  C37 UNL     1       4.812  -0.648  15.786  1.00  0.00     0.158 C
HETATM   16  C38 UNL     1       4.853  -0.672  14.244  1.00  0.00     0.022 A
ENDROOT
BRANCH   1  17
HETATM   17  C11 UNL     1       5.536   0.978  12.392  1.00  0.00     0.154 C
HETATM   18  O1  UNL     1       6.298   0.170  11.752  1.00  0.00    -0.293 OA
BRANCH  17  19
HETATM   19  C10 UNL     1       5.124   2.166  11.672  1.00  0.00     0.047 C
HETATM   20  C9  UNL     1       3.941   2.760  11.858  1.00  0.00    -0.018 C
BRANCH  20  21
HETATM   21  C7  UNL     1       3.573   3.972  11.065  1.00  0.00     0.012 C
HETATM   22  C8  UNL     1       4.471   3.994   9.812  1.00  0.00     0.015 C
BRANCH  21  23
HETATM   23  C3  UNL     1       2.125   3.922  10.603  1.00  0.00     0.018 C
BRANCH  23  24
HETATM   24  C2  UNL     1       1.962   4.335   9.206  1.00  0.00    -0.031 C
HETATM   25  C1  UNL     1       1.304   5.191   8.646  1.00  0.00     0.007 C
ENDBRANCH  23  24
BRANCH  23  26
HETATM   26  C4  UNL     1       1.442   2.684  11.008  1.00  0.00    -0.014 C
HETATM   27  C5  UNL     1       0.975   1.981   9.656  1.00  0.00     0.010 C
HETATM   28  C6  UNL     1       0.115   2.801  11.721  1.00  0.00     0.010 C
ENDBRANCH  23  26
ENDBRANCH  21  23
ENDBRANCH  20  21
ENDBRANCH  17  19
ENDBRANCH   1  17
BRANCH   3  29
HETATM   29  C15 UNL     1       3.049  -0.646  12.197  1.00  0.00     0.183 C
HETATM   30  O2  UNL     1       3.502  -0.883  11.044  1.00  0.00    -0.647 OA
HETATM   31  O3  UNL     1       1.629  -0.449  12.075  1.00  0.00    -0.647 OA
ENDBRANCH   3  29
BRANCH  15  32
HETATM   32  O8  UNL     1       5.247   0.560  16.323  1.00  0.00    -0.392 OA
ATOM     33  H8  UNL     1       5.086   1.212  15.652  1.00  0.00     0.210 HD
ENDBRANCH  15  32
BRANCH  14  34
HETATM   34  O7  UNL     1       4.984  -1.760  17.786  1.00  0.00    -0.392 OA
ATOM     35  H7  UNL     1       5.082  -0.944  18.263  1.00  0.00     0.210 HD
ENDBRANCH  14  34
BRANCH  13  36
HETATM   36  C33 UNL     1       4.658  -3.997  16.269  1.00  0.00     0.181 C
BRANCH  36  37
HETATM   37  O5  UNL     1       3.594  -3.332  16.940  1.00  0.00    -0.388 OA
BRANCH  37  38
HETATM   38  C34 UNL     1       2.953  -4.163  17.811  1.00  0.00     0.193 C
BRANCH  38  39
HETATM   39  C35 UNL     1       3.610  -5.487  18.090  1.00  0.00     0.190 C
BRANCH  39  40
HETATM   40  O6  UNL     1       3.967  -5.517  19.448  1.00  0.00    -0.399 OA
ATOM     41  H6  UNL     1       3.396  -6.136  19.888  1.00  0.00     0.209 HD
ENDBRANCH  39  40
ENDBRANCH  38  39
ENDBRANCH  37  38
ENDBRANCH  36  37
ENDBRANCH  13  36
BRANCH  12  42
HETATM   42  C25 UNL     1       8.337  -5.654  15.389  1.00  0.00     0.160 C
HETATM   43  O4  UNL     1       9.040  -5.904  14.398  1.00  0.00    -0.296 OA
BRANCH  42  44
HETATM   44  C26 UNL     1       8.761  -6.237  16.666  1.00  0.00     0.350 C
BRANCH  44  45
HETATM   45  N1  UNL     1       8.147  -7.483  16.966  1.00  0.00     0.098 N
HETATM   46  C27 UNL     1       9.101  -8.491  17.381  1.00  0.00     0.303 C
HETATM   47  C28 UNL     1       8.372  -9.826  17.148  1.00  0.00     0.302 C
HETATM   48  N2  UNL     1       7.290  -9.910  18.085  1.00  0.00     0.087 N
HETATM   49  C29 UNL     1       6.120 -10.591  17.565  1.00  0.00     0.310 C
HETATM   50  C30 UNL     1       6.979  -8.688  18.746  1.00  0.00     0.302 C
HETATM   51  C31 UNL     1       7.001  -7.493  17.804  1.00  0.00     0.303 C
ENDBRANCH  44  45
ENDBRANCH  42  44
ENDBRANCH  12  42
TORSDOF 17
ENDMDL