MODEL 4
REMARK VINA RESULT: -7.689271305      4.366      8.773
REMARK  17 active torsions:
REMARK  status: ('A' for Active; 'I' for Inactive)
REMARK    1  A    between atoms: C2_2  and  C3_3
REMARK    2  A    between atoms: C3_3  and  C4_4
REMARK    3  A    between atoms: C3_3  and  C6_6
REMARK    4  A    between atoms: C10_13  and  C11_14
REMARK    5  A    between atoms: C11_14  and  C12_15
REMARK    6  A    between atoms: C15_21  and  O2_22
REMARK    7  A    between atoms: C16_26  and  C17_27
REMARK    8  A    between atoms: C20_30  and  O3_31
REMARK    9  A    between atoms: C21_35  and  C22_36
REMARK   10  A    between atoms: C22_36  and  C23_37
REMARK   11  A    between atoms: C23_37  and  C24_38
REMARK   12  A    between atoms: C24_38  and  C25_39
REMARK   13  A    between atoms: C25_39  and  S2_40
REMARK   14  A    between atoms: C27_44  and  O6_45
REMARK   15  A    between atoms: C28_49  and  C29_50
REMARK   16  A    between atoms: C29_50  and  C30_51
REMARK   17  A    between atoms: C30_51  and  O7_53
ROOT
HETATM    1  C6  UNL     1       6.784   2.316  10.538  1.00  0.00     0.013 C
HETATM    2  C7  UNL     1       7.374   1.532   9.340  1.00  0.00     0.016 C
HETATM    3  C8  UNL     1       8.076   2.354   8.313  1.00  0.00     0.103 C
HETATM    4  C9  UNL     1       7.737   1.926   6.889  1.00  0.00     0.222 C
HETATM    5  O1  UNL     1       6.897   0.989   6.818  1.00  0.00    -0.273 OA
HETATM    6  N1  UNL     1       8.385   2.613   5.908  1.00  0.00    -0.327 N
ATOM      7  H1  UNL     1       9.366   2.362   6.029  1.00  0.00     0.168 HD
HETATM    8  C10 UNL     1       8.383   3.391   4.942  1.00  0.00     0.068 C
HETATM    9  C15 UNL     1       7.297   4.088   4.254  1.00  0.00     0.160 C
HETATM   10  N3  UNL     1       6.288   4.986   4.544  1.00  0.00    -0.357 N
ATOM     11  H3  UNL     1       6.199   5.657   3.781  1.00  0.00     0.162 HD
HETATM   12  C16 UNL     1       5.333   5.287   5.551  1.00  0.00     0.161 C
HETATM   13  C20 UNL     1       4.809   4.246   6.408  1.00  0.00     0.135 C
HETATM   14  N4  UNL     1       4.728   4.041   7.764  1.00  0.00    -0.361 N
ATOM     15  H4  UNL     1       5.024   3.098   8.013  1.00  0.00     0.162 HD
HETATM   16  C21 UNL     1       4.351   4.770   8.897  1.00  0.00     0.157 C
HETATM   17  C27 UNL     1       5.381   5.053   9.918  1.00  0.00     0.135 C
HETATM   18  N5  UNL     1       6.686   4.746  10.143  1.00  0.00    -0.368 N
ATOM     19  H5  UNL     1       7.306   5.507   9.867  1.00  0.00     0.161 HD
HETATM   20  C28 UNL     1       7.437   3.596  10.685  1.00  0.00     0.090 C
ENDROOT
BRANCH  16  21
HETATM   21  C22 UNL     1       3.176   4.136   9.668  1.00  0.00     0.033 C
BRANCH  21  22
HETATM   22  C23 UNL     1       1.865   4.529   9.046  1.00  0.00     0.003 C
BRANCH  22  23
HETATM   23  C24 UNL     1       0.848   3.429   9.021  1.00  0.00     0.015 C
BRANCH  23  24
HETATM   24  C25 UNL     1       1.252   2.259   9.876  1.00  0.00     0.140 C
BRANCH  24  25
HETATM   25  S2  UNL     1       0.162   2.235  11.300  1.00  0.00     0.140 S
HETATM   26  C26 UNL     1       0.508   0.814  12.289  1.00  0.00     0.161 C
HETATM   27  O4  UNL     1       0.447   3.494  12.092  1.00  0.00    -0.228 OA
HETATM   28  O5  UNL     1      -1.259   2.220  10.823  1.00  0.00    -0.228 OA
ENDBRANCH  24  25
ENDBRANCH  23  24
ENDBRANCH  22  23
ENDBRANCH  21  22
ENDBRANCH  16  21
BRANCH  17  29
HETATM   29  O6  UNL     1       4.816   5.813  10.829  1.00  0.00    -0.348 OA
ATOM     30  H6  UNL     1       5.496   6.060  11.443  1.00  0.00     0.219 HD
ENDBRANCH  17  29
BRANCH  13  31
HETATM   31  O3  UNL     1       4.298   3.285   5.681  1.00  0.00    -0.348 OA
ATOM     32  H3  UNL     1       4.937   2.983   5.046  1.00  0.00     0.219 HD
ENDBRANCH  13  31
BRANCH  12  33
HETATM   33  C17 UNL     1       5.814   6.535   6.270  1.00  0.00     0.008 C
HETATM   34  C18 UNL     1       6.022   7.559   5.121  1.00  0.00     0.012 C
HETATM   35  C19 UNL     1       7.166   6.369   6.875  1.00  0.00     0.012 C
ENDBRANCH  12  33
BRANCH  20  36
HETATM   36  C29 UNL     1       7.953   4.009  12.054  1.00  0.00     0.056 C
BRANCH  36  37
HETATM   37  C30 UNL     1       8.096   5.506  12.232  1.00  0.00     0.116 C
HETATM   38  C31 UNL     1       8.844   6.197  11.153  1.00  0.00     0.039 C
BRANCH  37  39
HETATM   39  O7  UNL     1       6.962   6.150  12.694  1.00  0.00    -0.396 OA
ATOM     40  H7  UNL     1       6.984   6.388  13.613  1.00  0.00     0.210 HD
ENDBRANCH  37  39
ENDBRANCH  36  37
ENDBRANCH  20  36
BRANCH   1  41
HETATM   41  C3  UNL     1       6.717   1.304  11.646  1.00  0.00    -0.009 C
BRANCH  41  42
HETATM   42  C2  UNL     1       5.453   0.682  12.015  1.00  0.00     0.000 C
HETATM   43  C1  UNL     1       4.183   1.440  11.976  1.00  0.00     0.005 C
ENDBRANCH  41  42
BRANCH  41  44
HETATM   44  C4  UNL     1       7.772   0.223  11.442  1.00  0.00     0.000 C
HETATM   45  C5  UNL     1       7.948  -0.792  12.479  1.00  0.00     0.005 C
ENDBRANCH  41  44
ENDBRANCH   1  41
BRANCH   9  46
HETATM   46  O2  UNL     1       7.316   3.733   2.981  1.00  0.00    -0.345 OA
ATOM     47  H2  UNL     1       7.441   4.514   2.455  1.00  0.00     0.219 HD
ENDBRANCH   9  46
BRANCH   8  48
HETATM   48  C11 UNL     1       9.826   3.568   4.439  1.00  0.00     0.119 C
BRANCH  48  49
HETATM   49  C12 UNL     1      10.292   2.358   3.679  1.00  0.00     0.021 A
HETATM   50  C13 UNL     1      11.635   2.064   3.588  1.00  0.00     0.076 A
HETATM   51  S1  UNL     1      11.619   0.638   2.638  1.00  0.00    -0.095 SA
HETATM   52  C14 UNL     1       9.933   0.503   2.415  1.00  0.00     0.138 A
HETATM   53  N2  UNL     1       9.474   1.552   3.078  1.00  0.00    -0.363 N
ATOM     54  H2  UNL     1       8.470   1.728   3.116  1.00  0.00     0.165 HD
ENDBRANCH  48  49
ENDBRANCH   8  48
TORSDOF 17
ENDMDL