MODEL 3
REMARK VINA RESULT: -6.370969059      2.779      7.489
REMARK  12 active torsions:
REMARK  status: ('A' for Active; 'I' for Inactive)
REMARK    1  A    between atoms: C3_3  and  C4_4
REMARK    2  A    between atoms: C5_5  and  C6_6
REMARK    3  A    between atoms: C6_6  and  O1_7
REMARK    4  A    between atoms: O1_7  and  C7_8
REMARK    5  A    between atoms: C12_13  and  C13_14
REMARK       I    between atoms: C13_14  and  N1_16
REMARK    6  A    between atoms: N1_16  and  C14_18
REMARK    7  A    between atoms: C14_18  and  C15_19
REMARK    8  A    between atoms: C14_18  and  C17_23
REMARK    9  A    between atoms: C15_19  and  C16_20
REMARK   10  A    between atoms: C21_30  and  O8_31
REMARK   11  A    between atoms: O8_31  and  O9_32
REMARK   12  A    between atoms: N4_43  and  C30_45
ROOT
HETATM    1  C6  UNL     1       2.904   3.652   9.576  1.00  0.00     0.096 C
HETATM    2  C9  UNL     1       2.915   2.285  10.256  1.00  0.00     0.049 C
HETATM    3  C10 UNL     1       4.053   2.003  11.174  1.00  0.00     0.055 C
HETATM    4  C11 UNL     1       4.840   3.192  11.579  1.00  0.00     0.004 C
HETATM    5  C12 UNL     1       6.362   3.085  11.642  1.00  0.00     0.052 C
HETATM    6  C18 UNL     1       7.119   3.844  10.653  1.00  0.00    -0.053 C
HETATM    7  C19 UNL     1       8.163   3.396   9.736  1.00  0.00     0.081 C
HETATM    8  C20 UNL     1       7.716   3.438   8.329  1.00  0.00     0.131 C
HETATM    9  O7  UNL     1       8.438   2.647   7.434  1.00  0.00    -0.316 OA
HETATM   10  C21 UNL     1       7.395   2.090   6.653  1.00  0.00     0.540 C
HETATM   11  N2  UNL     1       6.171   2.550   7.066  1.00  0.00     0.164 N
HETATM   12  C22 UNL     1       6.593   2.380   8.500  1.00  0.00     0.304 A
HETATM   13  C23 UNL     1       5.453   3.018   8.145  1.00  0.00     0.283 A
HETATM   14  C24 UNL     1       5.326   4.347   8.798  1.00  0.00     0.064 C
HETATM   15  C25 UNL     1       6.248   4.766   9.913  1.00  0.00     0.048 C
HETATM   16  C26 UNL     1       5.396   5.443  11.000  1.00  0.00     0.106 C
HETATM   17  N3  UNL     1       4.421   4.427  11.023  1.00  0.00    -0.276 NA
HETATM   18  C27 UNL     1       4.101   4.434   9.565  1.00  0.00     0.119 C
HETATM   19  C28 UNL     1       5.837   5.247   7.733  1.00  0.00     0.029 C
HETATM   20  N4  UNL     1       5.351   5.764   6.605  1.00  0.00    -0.383 N
HETATM   21  C29 UNL     1       4.939   4.992   5.487  1.00  0.00     0.150 C
HETATM   22  C33 UNL     1       7.263   4.625   7.648  1.00  0.00    -0.002 C
HETATM   23  C34 UNL     1       8.188   5.239   6.885  1.00  0.00    -0.019 C
HETATM   24  C35 UNL     1       9.572   4.792   6.713  1.00  0.00     0.036 C
ENDROOT
BRANCH   5  25
HETATM   25  C13 UNL     1       6.848   1.816  12.176  1.00  0.00     0.254 C
HETATM   26  O2  UNL     1       7.996   1.316  11.961  1.00  0.00    -0.268 OA
HETATM   27  N1  UNL     1       6.091   0.951  13.019  1.00  0.00    -0.342 N
ATOM     28  H1  UNL     1       5.147   1.243  13.273  1.00  0.00     0.163 HD
BRANCH  27  29
HETATM   29  C14 UNL     1       6.569  -0.310  13.540  1.00  0.00     0.195 C
BRANCH  29  30
HETATM   30  C15 UNL     1       6.169  -1.401  12.593  1.00  0.00     0.149 C
BRANCH  30  31
HETATM   31  C16 UNL     1       4.773  -1.815  12.663  1.00  0.00     0.175 C
HETATM   32  O3  UNL     1       3.844  -1.054  12.309  1.00  0.00    -0.648 OA
HETATM   33  O4  UNL     1       4.388  -3.069  13.123  1.00  0.00    -0.648 OA
ENDBRANCH  30  31
ENDBRANCH  29  30
BRANCH  29  34
HETATM   34  C17 UNL     1       6.007  -0.614  14.894  1.00  0.00     0.197 C
HETATM   35  O5  UNL     1       6.372  -1.588  15.553  1.00  0.00    -0.646 OA
HETATM   36  O6  UNL     1       5.039   0.256  15.385  1.00  0.00    -0.646 OA
ENDBRANCH  29  34
ENDBRANCH  27  29
ENDBRANCH   5  25
BRANCH   1  37
HETATM   37  C5  UNL     1       2.134   3.526   8.280  1.00  0.00     0.012 C
HETATM   38  C4  UNL     1       1.984   4.521   7.463  1.00  0.00    -0.001 C
BRANCH  38  39
HETATM   39  C3  UNL     1       1.229   4.312   6.236  1.00  0.00    -0.005 C
HETATM   40  C2  UNL     1       1.805   3.911   5.118  1.00  0.00    -0.031 C
HETATM   41  C1  UNL     1       1.067   3.689   3.855  1.00  0.00     0.036 C
ENDBRANCH  38  39
ENDBRANCH   1  37
BRANCH   1  42
HETATM   42  O1  UNL     1       1.954   4.313  10.358  1.00  0.00    -0.375 OA
BRANCH  42  43
HETATM   43  C7  UNL     1       0.697   3.893  10.410  1.00  0.00     0.165 C
HETATM   44  C8  UNL     1       0.525   3.186  11.781  1.00  0.00     0.033 C
ENDBRANCH  42  43
ENDBRANCH   1  42
BRANCH  10  45
HETATM   45  O8  UNL     1       7.454   0.684   6.787  1.00  0.00    -0.177 OA
BRANCH  45  46
HETATM   46  O9  UNL     1       6.934   0.073   5.756  1.00  0.00    -0.246 OA
ATOM     47  H9  UNL     1       6.350  -0.629   6.016  1.00  0.00     0.253 HD
ENDBRANCH  45  46
ENDBRANCH  10  45
BRANCH  20  48
HETATM   48  C30 UNL     1       4.828   7.042   6.361  1.00  0.00     0.075 C
HETATM   49  C31 UNL     1       5.883   7.932   5.725  1.00  0.00     0.032 C
HETATM   50  C32 UNL     1       3.592   7.242   5.568  1.00  0.00     0.032 C
ENDBRANCH  20  48
TORSDOF 12
ENDMDL