MODEL 1
REMARK VINA RESULT: -9.672868902      0.000      0.000
REMARK  14 active torsions:
REMARK  status: ('A' for Active; 'I' for Inactive)
REMARK    1  A    between atoms: C6_11  and  C7_12
REMARK    2  A    between atoms: C7_12  and  C8_13
REMARK    3  A    between atoms: C8_13  and  O2_14
REMARK    4  A    between atoms: C8_13  and  C9_16
REMARK    5  A    between atoms: C9_16  and  N3_17
REMARK    6  A    between atoms: N4_21  and  S1_22
REMARK    7  A    between atoms: S1_22  and  C13_25
REMARK       I    between atoms: N5_31  and  C19_32
REMARK    8  A    between atoms: C19_32  and  C20_34
REMARK    9  A    between atoms: C20_34  and  C21_35
REMARK   10  A    between atoms: C21_35  and  C22_36
REMARK   11  A    between atoms: C22_36  and  C23_37
REMARK   12  A    between atoms: C23_37  and  C24_38
REMARK   13  A    between atoms: C24_38  and  C25_39
REMARK   14  A    between atoms: C25_39  and  C26_40
ROOT
HETATM    1  N3  UNL     1       3.860  -0.160  13.860  1.00  0.00    -0.390 N
HETATM    2  C10 UNL     1       2.521   0.028  14.230  1.00  0.00     0.059 C
HETATM    3  C11 UNL     1       1.667  -0.186  13.001  1.00  0.00     0.060 C
HETATM    4  C12 UNL     1       1.471   1.169  12.372  1.00  0.00     0.112 C
HETATM    5  N4  UNL     1       2.520   1.671  11.603  1.00  0.00    -0.205 NA
HETATM    6  C29 UNL     1       3.849   1.481  11.997  1.00  0.00     0.127 C
HETATM    7  C30 UNL     1       4.246   0.162  12.526  1.00  0.00     0.137 C
ENDROOT
BRANCH   5   8
HETATM    8  S1  UNL     1       2.278   3.339  11.237  1.00  0.00     0.243 S
HETATM    9  O3  UNL     1       3.269   4.219  11.947  1.00  0.00    -0.206 OA
HETATM   10  O4  UNL     1       0.910   3.711  11.758  1.00  0.00    -0.206 OA
BRANCH   8  11
HETATM   11  C13 UNL     1       2.330   3.652   9.533  1.00  0.00     0.077 A
HETATM   12  C14 UNL     1       1.291   3.498   8.661  1.00  0.00     0.028 A
HETATM   13  C15 UNL     1       1.422   3.786   7.300  1.00  0.00     0.040 A
HETATM   14  C16 UNL     1       2.617   4.233   6.827  1.00  0.00     0.095 A
HETATM   15  C17 UNL     1       3.688   4.397   7.699  1.00  0.00     0.072 A
HETATM   16  O8  UNL     1       2.903   4.565   5.505  1.00  0.00    -0.347 OA
HETATM   17  C18 UNL     1       3.528   4.108   9.023  1.00  0.00     0.057 A
HETATM   18  N5  UNL     1       4.891   4.859   7.142  1.00  0.00    -0.313 N
HETATM   19  C19 UNL     1       6.127   4.302   7.502  1.00  0.00     0.224 C
HETATM   20  C27 UNL     1       4.863   5.916   6.110  1.00  0.00     0.159 C
HETATM   21  O5  UNL     1       7.145   4.961   7.067  1.00  0.00    -0.273 OA
HETATM   22  C28 UNL     1       3.662   5.729   5.211  1.00  0.00     0.196 C
BRANCH  19  23
HETATM   23  C20 UNL     1       6.303   3.089   8.289  1.00  0.00     0.103 C
BRANCH  23  24
HETATM   24  C21 UNL     1       7.279   3.184   9.415  1.00  0.00     0.009 C
BRANCH  24  25
HETATM   25  C22 UNL     1       6.675   3.582  10.698  1.00  0.00     0.000 C
BRANCH  25  26
HETATM   26  C23 UNL     1       7.625   3.509  11.889  1.00  0.00     0.001 C
BRANCH  26  27
HETATM   27  C24 UNL     1       7.383   2.191  12.589  1.00  0.00     0.010 C
BRANCH  27  28
HETATM   28  C25 UNL     1       8.502   1.249  12.346  1.00  0.00     0.113 C
BRANCH  28  29
HETATM   29  C26 UNL     1       8.177   0.099  11.510  1.00  0.00     0.172 C
HETATM   30  O6  UNL     1       7.424  -0.811  11.991  1.00  0.00    -0.648 OA
HETATM   31  O7  UNL     1       8.628  -0.063  10.237  1.00  0.00    -0.648 OA
ENDBRANCH  28  29
ENDBRANCH  27  28
ENDBRANCH  26  27
ENDBRANCH  25  26
ENDBRANCH  24  25
ENDBRANCH  23  24
ENDBRANCH  19  23
ENDBRANCH   8  11
ENDBRANCH   5   8
BRANCH   1  32
HETATM   32  C9  UNL     1       4.854   0.081  14.843  1.00  0.00     0.153 C
BRANCH  32  33
HETATM   33  C8  UNL     1       5.797  -0.982  15.205  1.00  0.00     0.143 C
BRANCH  33  34
HETATM   34  C7  UNL     1       5.634  -1.640  16.532  1.00  0.00     0.110 C
BRANCH  34  35
HETATM   35  C6  UNL     1       6.201  -3.007  16.619  1.00  0.00     0.086 A
HETATM   36  N2  UNL     1       5.539  -3.993  17.290  1.00  0.00    -0.311 N
HETATM   37  C5  UNL     1       6.025  -5.241  17.384  1.00  0.00     0.275 A
ATOM     38  H2  UNL     1       4.647  -3.776  17.734  1.00  0.00     0.170 HD
HETATM   39  C4  UNL     1       7.224  -5.582  16.802  1.00  0.00     0.128 A
HETATM   40  O1  UNL     1       5.424  -6.165  18.001  1.00  0.00    -0.266 OA
HETATM   41  N1  UNL     1       7.961  -6.706  16.715  1.00  0.00    -0.359 N
HETATM   42  C31 UNL     1       7.909  -4.596  16.119  1.00  0.00     0.073 A
HETATM   43  C3  UNL     1       9.083  -6.487  16.009  1.00  0.00     0.097 A
ATOM     44  H1  UNL     1       7.702  -7.601  17.128  1.00  0.00     0.165 HD
HETATM   45  C2  UNL     1       9.058  -5.171  15.632  1.00  0.00    -0.017 A
HETATM   46  C1  UNL     1      10.083  -4.472  14.835  1.00  0.00     0.052 C
HETATM   47  N6  UNL     1       7.368  -3.357  16.059  1.00  0.00    -0.343 N
ATOM     48  H6  UNL     1       7.884  -2.638  15.551  1.00  0.00     0.167 HD
ENDBRANCH  34  35
ENDBRANCH  33  34
BRANCH  33  49
HETATM   49  O2  UNL     1       7.111  -0.537  15.016  1.00  0.00    -0.394 OA
ATOM     50  H2  UNL     1       7.264  -0.290  14.112  1.00  0.00     0.210 HD
ENDBRANCH  33  49
ENDBRANCH  32  33
ENDBRANCH   1  32
TORSDOF 14
ENDMDL