MODEL 4
REMARK VINA RESULT: -7.988157810      2.157      2.689
REMARK  14 active torsions:
REMARK  status: ('A' for Active; 'I' for Inactive)
REMARK    1  A    between atoms: C3_3  and  O1_4
REMARK    2  A    between atoms: C11_14  and  C12_15
REMARK       I    between atoms: C12_15  and  N1_17
REMARK    3  A    between atoms: N1_17  and  C13_19
REMARK    4  A    between atoms: C13_19  and  C14_20
REMARK    5  A    between atoms: C14_20  and  C15_21
REMARK    6  A    between atoms: C15_21  and  C16_22
REMARK    7  A    between atoms: C16_22  and  N2_23
REMARK    8  A    between atoms: C19_26  and  N3_27
REMARK    9  A    between atoms: C21_31  and  N4_32
REMARK       I    between atoms: N5_41  and  C29_42
REMARK   10  A    between atoms: N7_44  and  C30_46
REMARK   11  A    between atoms: C30_46  and  C31_47
REMARK   12  A    between atoms: C31_47  and  C32_48
REMARK   13  A    between atoms: C32_48  and  C33_49
REMARK   14  A    between atoms: C33_49  and  N8_50
ROOT
HETATM    1  C1  UNL     1       9.439   3.386   5.194  1.00  0.00     0.013 C
HETATM    2  C2  UNL     1       8.640   4.420   6.000  1.00  0.00     0.016 C
HETATM    3  C3  UNL     1       9.315   5.762   5.727  1.00  0.00     0.131 C
HETATM    4  C4  UNL     1      10.167   6.235   6.851  1.00  0.00     0.078 C
HETATM    5  C5  UNL     1       9.361   6.341   8.139  1.00  0.00     0.136 C
HETATM    6  O2  UNL     1       8.818   7.498   7.628  1.00  0.00    -0.374 OA
HETATM    7  C6  UNL     1      10.084   7.749   7.054  1.00  0.00     0.062 C
HETATM    8  C7  UNL     1      10.077   8.573   5.816  1.00  0.00     0.046 C
HETATM    9  C8  UNL     1      11.110   8.286   8.038  1.00  0.00     0.046 C
HETATM   10  C9  UNL     1       8.518   5.181   8.402  1.00  0.00     0.023 C
HETATM   11  C10 UNL     1       7.036   5.411   8.439  1.00  0.00     0.049 C
HETATM   12  C11 UNL     1       6.471   4.007   8.354  1.00  0.00     0.120 C
HETATM   13  C26 UNL     1       7.616   3.121   7.924  1.00  0.00     0.030 C
HETATM   14  C27 UNL     1       7.065   2.094   7.033  1.00  0.00     0.028 C
HETATM   15  C28 UNL     1       5.835   2.700   6.443  1.00  0.00     0.127 C
HETATM   16  N5  UNL     1       5.496   3.857   7.283  1.00  0.00    -0.337 N
HETATM   17  C29 UNL     1       4.347   4.643   7.011  1.00  0.00     0.187 C
HETATM   18  N6  UNL     1       4.139   5.827   7.762  1.00  0.00    -0.064 NA
HETATM   19  N7  UNL     1       3.481   4.339   6.122  1.00  0.00    -0.364 N
ATOM     20  H7  UNL     1       3.638   3.484   5.588  1.00  0.00     0.162 HD
HETATM   21  C34 UNL     1       8.657   4.022   7.411  1.00  0.00     0.005 C
ENDROOT
BRANCH  12  22
HETATM   22  C12 UNL     1       5.838   3.560   9.619  1.00  0.00     0.251 C
HETATM   23  O3  UNL     1       5.330   4.470  10.356  1.00  0.00    -0.270 OA
HETATM   24  N1  UNL     1       5.760   2.244  10.054  1.00  0.00    -0.327 N
ATOM     25  H1  UNL     1       6.159   1.501   9.481  1.00  0.00     0.168 HD
BRANCH  24  26
HETATM   26  C13 UNL     1       5.091   1.898  11.366  1.00  0.00     0.028 C
HETATM   27  C21 UNL     1       3.794   1.432  10.998  1.00  0.00     0.118 C
BRANCH  26  28
HETATM   28  C14 UNL     1       6.127   1.377  12.252  1.00  0.00     0.060 C
BRANCH  28  29
HETATM   29  C15 UNL     1       6.634   0.004  12.065  1.00  0.00     0.026 C
BRANCH  29  30
HETATM   30  C16 UNL     1       7.236  -0.748  13.177  1.00  0.00     0.128 C
BRANCH  30  31
HETATM   31  N2  UNL     1       6.227  -1.489  13.943  1.00  0.00    -0.364 N
HETATM   32  C17 UNL     1       5.636  -1.012  15.077  1.00  0.00     0.093 A
HETATM   33  C18 UNL     1       4.720  -1.906  15.521  1.00  0.00     0.054 A
HETATM   34  C19 UNL     1       4.729  -2.973  14.654  1.00  0.00     0.119 A
HETATM   35  C20 UNL     1       5.689  -2.651  13.693  1.00  0.00     0.126 A
BRANCH  34  36
HETATM   36  N3  UNL     1       3.944  -4.142  14.712  1.00  0.00    -0.114 N
HETATM   37  O4  UNL     1       2.960  -4.291  13.965  1.00  0.00    -0.532 OA
HETATM   38  O5  UNL     1       4.242  -5.144  15.591  1.00  0.00    -0.532 OA
ENDBRANCH  34  36
ENDBRANCH  30  31
ENDBRANCH  29  30
ENDBRANCH  28  29
ENDBRANCH  26  28
BRANCH  27  39
HETATM   39  N4  UNL     1       2.758   1.032  11.878  1.00  0.00    -0.326 N
HETATM   40  C22 UNL     1       2.822  -0.264  12.589  1.00  0.00     0.132 C
HETATM   41  C23 UNL     1       1.699  -0.196  13.554  1.00  0.00     0.029 C
HETATM   42  C24 UNL     1       0.669   0.640  12.814  1.00  0.00     0.105 C
HETATM   43  C25 UNL     1       1.567   1.683  12.231  1.00  0.00     0.223 C
HETATM   44  O6  UNL     1       1.216   2.876  12.129  1.00  0.00    -0.273 OA
ENDBRANCH  27  39
ENDBRANCH  24  26
ENDBRANCH  12  22
BRANCH  19  45
HETATM   45  C30 UNL     1       2.311   5.097   5.814  1.00  0.00     0.122 C
BRANCH  45  46
HETATM   46  C31 UNL     1       1.111   4.288   6.310  1.00  0.00     0.021 C
BRANCH  46  47
HETATM   47  C32 UNL     1       0.685   4.746   7.670  1.00  0.00     0.029 C
BRANCH  47  48
HETATM   48  C33 UNL     1       1.185   3.811   8.760  1.00  0.00     0.229 C
BRANCH  48  49
HETATM   49  N8  UNL     1       2.057   4.542   9.650  1.00  0.00    -0.079 N
ATOM     50  H83 UNL     1       1.555   5.247  10.189  1.00  0.00     0.274 HD
ATOM     51  H82 UNL     1       2.382   3.969  10.429  1.00  0.00     0.274 HD
ATOM     52  H81 UNL     1       2.827   4.939   9.113  1.00  0.00     0.274 HD
ENDBRANCH  48  49
ENDBRANCH  47  48
ENDBRANCH  46  47
ENDBRANCH  45  46
ENDBRANCH  19  45
BRANCH   3  53
HETATM   53  O1  UNL     1       8.359   6.738   5.364  1.00  0.00    -0.395 OA
ATOM     54  H1  UNL     1       7.503   6.515   5.711  1.00  0.00     0.210 HD
ENDBRANCH   3  53
TORSDOF 14
ENDMDL