MODEL 4
REMARK VINA RESULT: -8.197243787      1.240      1.492
REMARK  15 active torsions:
REMARK  status: ('A' for Active; 'I' for Inactive)
REMARK    1  A    between atoms: C2_2  and  C3_3
REMARK    2  A    between atoms: C3_3  and  C4_4
REMARK    3  A    between atoms: C4_4  and  C5_6
REMARK    4  A    between atoms: C5_6  and  C6_7
REMARK    5  A    between atoms: C6_7  and  C7_9
REMARK    6  A    between atoms: C12_14  and  C13_15
REMARK    7  A    between atoms: C12_14  and  N1_18
REMARK    8  A    between atoms: C13_15  and  O3_16
REMARK       I    between atoms: N1_18  and  C14_20
REMARK    9  A    between atoms: C14_20  and  O5_22
REMARK   10  A    between atoms: O5_22  and  C15_23
REMARK   11  A    between atoms: C22_30  and  C23_31
REMARK   12  A    between atoms: C24_33  and  O7_34
REMARK   13  A    between atoms: C28_41  and  C29_42
REMARK   14  A    between atoms: C29_42  and  N3_43
REMARK   15  A    between atoms: C29_42  and  C30_47
ROOT
HETATM    1  C15 UNL     1       6.203   1.645  11.720  1.00  0.00     0.159 C
HETATM    2  C16 UNL     1       7.178   2.764  11.912  1.00  0.00     0.040 C
HETATM    3  C17 UNL     1       7.923   3.283  10.766  1.00  0.00     0.001 C
HETATM    4  C18 UNL     1       7.933   2.491   9.513  1.00  0.00     0.042 C
HETATM    5  C19 UNL     1       7.851   3.260   8.252  1.00  0.00    -0.048 C
HETATM    6  C20 UNL     1       8.546   3.312   7.167  1.00  0.00    -0.020 C
HETATM    7  C21 UNL     1       7.996   4.289   6.197  1.00  0.00     0.042 C
HETATM    8  C22 UNL     1       7.007   5.118   6.999  1.00  0.00     0.090 C
HETATM    9  C24 UNL     1       6.678   4.211   8.139  1.00  0.00     0.106 C
HETATM   10  C26 UNL     1       6.526   4.857   9.456  1.00  0.00     0.125 C
HETATM   11  C27 UNL     1       5.258   4.565  10.163  1.00  0.00     0.226 C
HETATM   12  O8  UNL     1       4.453   5.558  10.197  1.00  0.00    -0.273 OA
HETATM   13  N2  UNL     1       4.722   3.412  10.831  1.00  0.00    -0.351 N
ATOM     14  H2  UNL     1       3.897   3.695  11.358  1.00  0.00     0.163 HD
HETATM   15  C28 UNL     1       4.925   2.019  11.023  1.00  0.00     0.151 C
HETATM   16  C31 UNL     1       7.661   4.762  10.439  1.00  0.00    -0.028 C
HETATM   17  C32 UNL     1       7.195   5.485  11.714  1.00  0.00     0.016 C
HETATM   18  C33 UNL     1       8.903   5.513  10.138  1.00  0.00     0.016 C
ENDROOT
BRANCH   1  19
HETATM   19  O5  UNL     1       5.908   0.935  12.871  1.00  0.00    -0.296 OA
BRANCH  19  20
HETATM   20  C14 UNL     1       6.332  -0.256  13.315  1.00  0.00     0.361 C
HETATM   21  N1  UNL     1       5.426  -1.214  13.792  1.00  0.00    -0.324 N
ATOM     22  H1  UNL     1       4.436  -0.970  13.791  1.00  0.00     0.165 HD
HETATM   23  O4  UNL     1       7.546  -0.499  13.298  1.00  0.00    -0.238 OA
BRANCH  21  24
HETATM   24  C12 UNL     1       5.802  -2.554  14.296  1.00  0.00     0.071 C
HETATM   25  C7  UNL     1       6.615  -2.333  15.479  1.00  0.00     0.087 C
HETATM   26  C8  UNL     1       5.707  -2.644  16.664  1.00  0.00     0.025 C
HETATM   27  C9  UNL     1       4.379  -3.014  16.096  1.00  0.00    -0.029 A
HETATM   28  C10 UNL     1       3.142  -2.253  16.515  1.00  0.00     0.016 C
HETATM   29  C11 UNL     1       4.515  -3.232  14.644  1.00  0.00     0.034 A
HETATM   30  C34 UNL     1       4.269  -4.377  15.472  1.00  0.00    -0.033 A
HETATM   31  C35 UNL     1       2.807  -4.873  15.501  1.00  0.00     0.016 C
HETATM   32  C36 UNL     1       5.217  -5.472  15.841  1.00  0.00     0.016 C
BRANCH  25  33
HETATM   33  C6  UNL     1       7.899  -3.080  15.601  1.00  0.00     0.140 C
HETATM   34  O2  UNL     1       8.819  -2.997  14.859  1.00  0.00    -0.297 OA
BRANCH  33  35
HETATM   35  C5  UNL     1       7.984  -3.990  16.764  1.00  0.00     0.157 C
BRANCH  35  36
HETATM   36  C4  UNL     1       9.091  -4.948  16.761  1.00  0.00     0.133 C
HETATM   37  O1  UNL     1      10.168  -4.536  17.265  1.00  0.00    -0.298 OA
BRANCH  36  38
HETATM   38  C3  UNL     1       9.069  -6.313  16.238  1.00  0.00     0.078 C
BRANCH  38  39
HETATM   39  C2  UNL     1       8.269  -7.222  17.171  1.00  0.00     0.003 C
HETATM   40  C1  UNL     1       8.822  -8.625  17.205  1.00  0.00     0.005 C
ENDBRANCH  38  39
ENDBRANCH  36  38
ENDBRANCH  35  36
ENDBRANCH  33  35
ENDBRANCH  25  33
BRANCH  24  41
HETATM   41  C13 UNL     1       6.406  -3.238  13.106  1.00  0.00     0.196 C
BRANCH  41  42
HETATM   42  O3  UNL     1       5.402  -3.147  12.095  1.00  0.00    -0.398 OA
ATOM     43  H3  UNL     1       5.526  -3.928  11.567  1.00  0.00     0.209 HD
ENDBRANCH  41  42
ENDBRANCH  24  41
ENDBRANCH  21  24
ENDBRANCH  19  20
ENDBRANCH   1  19
BRANCH  15  44
HETATM   44  C29 UNL     1       3.680   1.470  11.769  1.00  0.00     0.269 C
BRANCH  44  45
HETATM   45  N3  UNL     1       3.446   0.091  11.274  1.00  0.00    -0.067 N
ATOM     46  H33 UNL     1       4.032  -0.152  10.476  1.00  0.00     0.275 HD
ATOM     47  H32 UNL     1       3.790  -0.626  11.913  1.00  0.00     0.275 HD
ATOM     48  H31 UNL     1       2.448   0.006  11.078  1.00  0.00     0.275 HD
ENDBRANCH  44  45
BRANCH  44  49
HETATM   49  C30 UNL     1       2.447   2.204  11.432  1.00  0.00     0.266 C
HETATM   50  O9  UNL     1       2.192   3.244  12.025  1.00  0.00    -0.305 OA
ENDBRANCH  44  49
ENDBRANCH  15  44
BRANCH   9  51
HETATM   51  O7  UNL     1       5.676   3.380   7.760  1.00  0.00    -0.379 OA
HETATM   52  C25 UNL     1       4.662   3.635   6.974  1.00  0.00     0.203 C
ENDBRANCH   9  51
BRANCH   8  53
HETATM   53  C23 UNL     1       7.560   6.427   7.255  1.00  0.00     0.239 C
HETATM   54  O6  UNL     1       6.916   7.449   6.956  1.00  0.00    -0.306 OA
ENDBRANCH   8  53
TORSDOF 15
ENDMDL