MODEL 2
REMARK VINA RESULT: -10.093436841      1.205      1.853
REMARK  15 active torsions:
REMARK  status: ('A' for Active; 'I' for Inactive)
REMARK    1  A    between atoms: C2_2  and  C3_3
REMARK    2  A    between atoms: C2_2  and  C13_18
REMARK    3  A    between atoms: C3_3  and  C4_4
REMARK    4  A    between atoms: C4_4  and  C5_5
REMARK       I    between atoms: C5_5  and  N1_7
REMARK    5  A    between atoms: N1_7  and  C6_9
REMARK    6  A    between atoms: C6_9  and  C7_10
REMARK    7  A    between atoms: C13_18  and  C14_20
REMARK    8  A    between atoms: C14_20  and  C15_21
REMARK    9  A    between atoms: C15_21  and  C16_22
REMARK   10  A    between atoms: C16_22  and  C17_23
REMARK   11  A    between atoms: C16_22  and  N3_38
REMARK   12  A    between atoms: C17_23  and  C18_24
REMARK   13  A    between atoms: C21_27  and  C22_28
REMARK       I    between atoms: C22_28  and  N2_30
REMARK       I    between atoms: N3_38  and  C29_40
REMARK   14  A    between atoms: C29_40  and  O8_42
REMARK   15  A    between atoms: O8_42  and  C30_43
ROOT
HETATM    1  C16 UNL     1       5.024  -2.125  15.332  1.00  0.00     0.087 C
ENDROOT
BRANCH   1   2
HETATM    2  C15 UNL     1       4.951  -2.837  16.622  1.00  0.00     0.032 C
BRANCH   2   3
HETATM    3  C14 UNL     1       3.751  -3.631  16.945  1.00  0.00     0.080 C
BRANCH   3   4
HETATM    4  C13 UNL     1       3.610  -4.961  16.362  1.00  0.00     0.130 C
HETATM    5  O4  UNL     1       3.609  -5.061  15.144  1.00  0.00    -0.298 OA
BRANCH   4   6
HETATM    6  C2  UNL     1       3.470  -6.227  17.122  1.00  0.00     0.052 C
HETATM    7  C1  UNL     1       3.713  -7.461  16.267  1.00  0.00     0.018 C
BRANCH   6   8
HETATM    8  C3  UNL     1       4.347  -6.257  18.363  1.00  0.00     0.021 C
BRANCH   8   9
HETATM    9  C4  UNL     1       5.586  -7.074  18.144  1.00  0.00     0.103 C
BRANCH   9  10
HETATM   10  C5  UNL     1       6.792  -6.212  17.922  1.00  0.00     0.218 C
HETATM   11  O1  UNL     1       7.148  -5.370  18.776  1.00  0.00    -0.274 OA
HETATM   12  N1  UNL     1       7.519  -6.381  16.714  1.00  0.00    -0.341 N
ATOM     13  H1  UNL     1       7.216  -7.082  16.037  1.00  0.00     0.163 HD
BRANCH  12  14
HETATM   14  C6  UNL     1       8.709  -5.555  16.425  1.00  0.00     0.128 C
HETATM   15  C8  UNL     1       8.277  -4.147  16.148  1.00  0.00     0.025 C
HETATM   16  C9  UNL     1       9.484  -3.450  15.660  1.00  0.00     0.008 C
HETATM   17  C12 UNL     1       7.737  -4.741  14.821  1.00  0.00     0.015 C
HETATM   18  C10 UNL     1      10.053  -4.529  14.752  1.00  0.00     0.008 C
HETATM   19  C11 UNL     1       9.032  -5.580  14.930  1.00  0.00     0.025 C
BRANCH  14  20
HETATM   20  C7  UNL     1       9.809  -5.816  17.327  1.00  0.00     0.203 C
HETATM   21  O2  UNL     1      10.660  -6.728  17.034  1.00  0.00    -0.646 OA
HETATM   22  O3  UNL     1      10.021  -5.152  18.496  1.00  0.00    -0.646 OA
ENDBRANCH  14  20
ENDBRANCH  12  14
ENDBRANCH   9  10
ENDBRANCH   8   9
ENDBRANCH   6   8
ENDBRANCH   4   6
ENDBRANCH   3   4
ENDBRANCH   2   3
ENDBRANCH   1   2
BRANCH   1  23
HETATM   23  C17 UNL     1       6.242  -1.239  15.197  1.00  0.00     0.029 C
BRANCH  23  24
HETATM   24  C18 UNL     1       6.331  -0.373  14.004  1.00  0.00    -0.013 C
HETATM   25  C19 UNL     1       7.325  -0.865  12.994  1.00  0.00     0.005 C
HETATM   26  C20 UNL     1       7.849   0.174  12.049  1.00  0.00     0.014 C
HETATM   27  C21 UNL     1       8.307   1.443  12.667  1.00  0.00     0.078 C
HETATM   28  C27 UNL     1       8.058   1.452  14.140  1.00  0.00     0.014 C
HETATM   29  C28 UNL     1       6.662   1.040  14.511  1.00  0.00     0.005 C
BRANCH  27  30
HETATM   30  C22 UNL     1       7.637   2.577  11.971  1.00  0.00     0.224 C
HETATM   31  O5  UNL     1       7.292   3.581  12.641  1.00  0.00    -0.273 OA
HETATM   32  N2  UNL     1       7.374   2.571  10.592  1.00  0.00    -0.348 N
HETATM   33  C23 UNL     1       6.711   3.732  10.009  1.00  0.00     0.152 C
HETATM   34  C26 UNL     1       7.703   1.517   9.662  1.00  0.00     0.152 C
HETATM   35  C24 UNL     1       7.801   4.396   9.155  1.00  0.00     0.187 C
HETATM   36  O6  UNL     1       8.678   3.450   8.665  1.00  0.00    -0.388 OA
HETATM   37  C25 UNL     1       8.071   2.231   8.353  1.00  0.00     0.187 C
ENDBRANCH  27  30
ENDBRANCH  23  24
ENDBRANCH   1  23
BRANCH   1  38
HETATM   38  N3  UNL     1       3.810  -1.499  14.862  1.00  0.00    -0.332 N
HETATM   39  C29 UNL     1       3.247  -1.811  13.577  1.00  0.00     0.361 C
HETATM   40  O7  UNL     1       3.840  -2.646  12.865  1.00  0.00    -0.238 OA
ATOM     41  H3  UNL     1       3.340  -0.818  15.458  1.00  0.00     0.165 HD
BRANCH  39  42
HETATM   42  O8  UNL     1       2.099  -1.225  13.127  1.00  0.00    -0.296 OA
BRANCH  42  43
HETATM   43  C30 UNL     1       2.068   0.177  12.995  1.00  0.00     0.166 C
HETATM   44  C31 UNL     1       0.653   0.611  12.764  1.00  0.00     0.204 C
HETATM   45  O9  UNL     1       0.797   1.836  12.127  1.00  0.00    -0.358 OA
HETATM   46  C32 UNL     1       1.757   1.591  11.156  1.00  0.00     0.266 C
HETATM   47  O10 UNL     1       2.452   2.766  10.855  1.00  0.00    -0.361 OA
HETATM   48  C35 UNL     1       2.735   0.603  11.702  1.00  0.00     0.075 C
HETATM   49  C33 UNL     1       3.538   2.831  11.690  1.00  0.00     0.171 C
HETATM   50  C34 UNL     1       3.964   1.407  11.970  1.00  0.00     0.038 C
ENDBRANCH  42  43
ENDBRANCH  39  42
ENDBRANCH   1  38
TORSDOF 15
ENDMDL