MODEL 4
REMARK VINA RESULT: -8.935684333      1.792      3.531
REMARK  16 active torsions:
REMARK  status: ('A' for Active; 'I' for Inactive)
REMARK    1  A    between atoms: N1_2  and  C3_4
REMARK    2  A    between atoms: C3_4  and  C4_5
REMARK    3  A    between atoms: C4_5  and  N2_6
REMARK       I    between atoms: N2_6  and  C5_8
REMARK    4  A    between atoms: C5_8  and  C6_10
REMARK    5  A    between atoms: C6_10  and  C7_11
REMARK    6  A    between atoms: C7_11  and  C8_12
REMARK    7  A    between atoms: C8_12  and  C9_13
REMARK    8  A    between atoms: C8_12  and  N4_50
REMARK    9  A    between atoms: C9_13  and  O2_14
REMARK   10  A    between atoms: C9_13  and  C10_16
REMARK   11  A    between atoms: C10_16  and  C11_17
REMARK   12  A    between atoms: C11_17  and  C12_18
REMARK   13  A    between atoms: C12_18  and  O4_20
REMARK   14  A    between atoms: O4_20  and  C13_21
REMARK   15  A    between atoms: C25_36  and  O7_37
REMARK   16  A    between atoms: C32_45  and  O8_46
ROOT
HETATM    1  C13 UNL     1       4.423   0.749  11.598  1.00  0.00     0.261 C
HETATM    2  C14 UNL     1       3.155  -0.092  11.559  1.00  0.00     0.225 C
HETATM    3  O5  UNL     1       3.047  -0.720  12.799  1.00  0.00    -0.361 OA
HETATM    4  C15 UNL     1       4.073  -0.256  13.608  1.00  0.00     0.239 C
HETATM    5  N3  UNL     1       5.140   0.056  12.652  1.00  0.00    -0.295 N
HETATM    6  C16 UNL     1       6.357  -0.438  13.148  1.00  0.00     0.229 C
HETATM    7  O6  UNL     1       7.456  -0.406  12.537  1.00  0.00    -0.273 OA
HETATM    8  C17 UNL     1       6.104  -0.990  14.495  1.00  0.00     0.097 C
HETATM    9  C18 UNL     1       7.048  -2.121  14.748  1.00  0.00     0.004 C
HETATM   10  C19 UNL     1       8.030  -1.691  15.779  1.00  0.00     0.006 C
HETATM   11  C20 UNL     1       8.988  -2.812  16.085  1.00  0.00     0.007 C
HETATM   12  C21 UNL     1       8.304  -4.077  16.514  1.00  0.00     0.004 C
HETATM   13  C22 UNL     1       9.354  -5.073  16.811  1.00  0.00    -0.017 C
HETATM   14  C23 UNL     1       9.127  -5.817  18.133  1.00  0.00     0.018 C
HETATM   15  C24 UNL     1      10.695  -4.379  17.032  1.00  0.00     0.018 C
HETATM   16  C25 UNL     1       9.579  -6.100  15.736  1.00  0.00     0.126 C
HETATM   17  C26 UNL     1       9.093  -5.669  14.385  1.00  0.00     0.033 C
HETATM   18  C27 UNL     1       7.687  -5.204  14.348  1.00  0.00     0.012 C
HETATM   19  C28 UNL     1       7.206  -4.509  15.595  1.00  0.00    -0.035 C
HETATM   20  C29 UNL     1       6.217  -5.440  16.269  1.00  0.00     0.016 C
HETATM   21  C30 UNL     1       6.329  -3.314  15.204  1.00  0.00     0.001 C
HETATM   22  C31 UNL     1       5.237  -3.762  14.257  1.00  0.00     0.038 C
HETATM   23  C32 UNL     1       4.303  -2.652  13.937  1.00  0.00     0.132 C
HETATM   24  C33 UNL     1       4.665  -1.319  14.513  1.00  0.00     0.039 C
HETATM   25  C34 UNL     1       4.008  -1.102  15.863  1.00  0.00     0.023 C
ENDROOT
BRANCH   1  26
HETATM   26  O4  UNL     1       4.055   2.040  12.106  1.00  0.00    -0.293 OA
BRANCH  26  27
HETATM   27  C12 UNL     1       3.334   2.955  11.376  1.00  0.00     0.260 C
HETATM   28  O3  UNL     1       2.185   3.242  11.877  1.00  0.00    -0.265 OA
BRANCH  27  29
HETATM   29  C11 UNL     1       3.705   3.623  10.131  1.00  0.00     0.114 C
BRANCH  29  30
HETATM   30  C10 UNL     1       2.659   4.353   9.392  1.00  0.00     0.047 C
BRANCH  30  31
HETATM   31  C9  UNL     1       1.777   3.686   8.430  1.00  0.00     0.163 C
BRANCH  31  32
HETATM   32  C8  UNL     1       2.052   3.723   6.983  1.00  0.00     0.013 C
BRANCH  32  33
HETATM   33  C7  UNL     1       3.362   4.362   6.574  1.00  0.00     0.064 C
BRANCH  33  34
HETATM   34  C6  UNL     1       4.381   3.279   6.197  1.00  0.00     0.108 C
BRANCH  34  35
HETATM   35  C5  UNL     1       5.603   3.541   7.006  1.00  0.00     0.217 C
HETATM   36  N2  UNL     1       6.218   2.479   7.720  1.00  0.00    -0.359 N
ATOM     37  H2  UNL     1       5.812   1.544   7.672  1.00  0.00     0.162 HD
HETATM   38  O1  UNL     1       6.113   4.683   7.079  1.00  0.00    -0.274 OA
BRANCH  36  39
HETATM   39  C4  UNL     1       7.390   2.692   8.501  1.00  0.00     0.152 C
BRANCH  39  40
HETATM   40  C3  UNL     1       7.279   2.221   9.913  1.00  0.00     0.290 C
BRANCH  40  41
HETATM   41  N1  UNL     1       7.090   3.354  10.820  1.00  0.00     0.081 N
HETATM   42  C1  UNL     1       7.739   4.515  10.273  1.00  0.00     0.309 C
HETATM   43  C2  UNL     1       7.540   3.051  12.159  1.00  0.00     0.309 C
ENDBRANCH  40  41
ENDBRANCH  39  40
ENDBRANCH  36  39
ENDBRANCH  34  35
ENDBRANCH  33  34
ENDBRANCH  32  33
BRANCH  32  44
HETATM   44  N4  UNL     1       0.960   4.077   6.177  1.00  0.00    -0.394 N
HETATM   45  C35 UNL     1       1.099   4.460   4.842  1.00  0.00     0.148 C
HETATM   46  C36 UNL     1      -0.048   4.874   6.839  1.00  0.00     0.148 C
ENDBRANCH  32  44
ENDBRANCH  31  32
BRANCH  31  47
HETATM   47  O2  UNL     1       1.586   2.323   8.778  1.00  0.00    -0.390 OA
ATOM     48  H2  UNL     1       1.522   2.287   9.725  1.00  0.00     0.210 HD
ENDBRANCH  31  47
ENDBRANCH  30  31
ENDBRANCH  29  30
ENDBRANCH  27  29
ENDBRANCH  26  27
ENDBRANCH   1  26
BRANCH  23  49
HETATM   49  O8  UNL     1       3.006  -2.997  14.394  1.00  0.00    -0.395 OA
ATOM     50  H8  UNL     1       2.423  -2.259  14.254  1.00  0.00     0.210 HD
ENDBRANCH  23  49
BRANCH  16  51
HETATM   51  O7  UNL     1       8.942  -7.304  16.030  1.00  0.00    -0.395 OA
ATOM     52  H7  UNL     1       9.555  -8.031  16.052  1.00  0.00     0.210 HD
ENDBRANCH  16  51
TORSDOF 16
ENDMDL