MODEL 3
REMARK VINA RESULT: -7.716991557      1.097      2.099
REMARK  13 active torsions:
REMARK  status: ('A' for Active; 'I' for Inactive)
REMARK    1  A    between atoms: C2_2  and  N1_3
REMARK    2  A    between atoms: N1_3  and  C3_4
REMARK       I    between atoms: N1_3  and  C6_8
REMARK    3  A    between atoms: C3_4  and  C4_5
REMARK    4  A    between atoms: C4_5  and  O1_6
REMARK    5  A    between atoms: C6_8  and  C7_10
REMARK    6  A    between atoms: C8_11  and  C9_12
REMARK    7  A    between atoms: C9_12  and  C10_13
REMARK    8  A    between atoms: C9_12  and  N2_16
REMARK    9  A    between atoms: C23_36  and  C24_37
REMARK   10  A    between atoms: C25_38  and  C26_39
REMARK   11  A    between atoms: C26_39  and  C27_40
REMARK   12  A    between atoms: C27_40  and  N4_41
REMARK   13  A    between atoms: N4_41  and  C28_43
ROOT
HETATM    1  N2  UNL     1       5.813   1.507  12.301  1.00  0.00    -0.302 N
HETATM    2  C11 UNL     1       6.862   1.367  13.231  1.00  0.00     0.239 C
HETATM    3  O5  UNL     1       7.810   2.151  13.500  1.00  0.00    -0.272 OA
HETATM    4  C12 UNL     1       6.731   0.047  13.950  1.00  0.00     0.186 C
HETATM    5  C13 UNL     1       7.707  -0.941  13.421  1.00  0.00     0.232 C
HETATM    6  O6  UNL     1       7.638  -1.070  12.148  1.00  0.00    -0.273 OA
HETATM    7  N3  UNL     1       8.641  -1.704  14.110  1.00  0.00    -0.354 N
ATOM      8  H3  UNL     1       9.605  -1.590  13.798  1.00  0.00     0.162 HD
HETATM    9  C14 UNL     1       8.457  -2.637  15.205  1.00  0.00     0.099 C
HETATM   10  C15 UNL     1       9.761  -3.401  15.426  1.00  0.00     0.037 C
HETATM   11  C16 UNL     1       9.796  -4.158  16.732  1.00  0.00     0.088 C
HETATM   12  S1  UNL     1       9.118  -5.813  16.267  1.00  0.00    -0.097 SA
HETATM   13  S2  UNL     1       7.896  -5.276  14.560  1.00  0.00    -0.091 SA
HETATM   14  C17 UNL     1       7.309  -3.578  15.002  1.00  0.00     0.081 C
HETATM   15  C18 UNL     1       6.461  -3.821  16.219  1.00  0.00     0.018 C
HETATM   16  C19 UNL     1       5.943  -2.629  16.915  1.00  0.00     0.002 C
HETATM   17  C20 UNL     1       4.446  -2.504  16.941  1.00  0.00     0.010 C
HETATM   18  C21 UNL     1       3.859  -2.003  15.653  1.00  0.00     0.074 C
HETATM   19  S3  UNL     1       4.383  -0.309  15.282  1.00  0.00    -0.161 SA
HETATM   20  C22 UNL     1       5.305  -0.311  13.730  1.00  0.00     0.096 C
HETATM   21  C23 UNL     1       4.706   0.638  12.715  1.00  0.00     0.131 C
ENDROOT
BRANCH   1  22
HETATM   22  C9  UNL     1       5.812   2.382  11.120  1.00  0.00     0.115 C
BRANCH  22  23
HETATM   23  C8  UNL     1       7.055   2.303  10.359  1.00  0.00     0.042 C
HETATM   24  C7  UNL     1       7.334   2.912   9.081  1.00  0.00     0.077 C
BRANCH  24  25
HETATM   25  C6  UNL     1       6.631   2.591   7.856  1.00  0.00     0.243 C
HETATM   26  N1  UNL     1       5.770   3.542   7.182  1.00  0.00    -0.347 N
HETATM   27  O2  UNL     1       6.707   1.499   7.284  1.00  0.00    -0.268 OA
BRANCH  26  28
HETATM   28  C2  UNL     1       5.096   3.220   5.950  1.00  0.00     0.121 C
HETATM   29  C1  UNL     1       5.665   3.943   4.751  1.00  0.00     0.026 C
ENDBRANCH  26  28
BRANCH  26  30
HETATM   30  C3  UNL     1       5.577   4.842   7.779  1.00  0.00     0.152 C
BRANCH  30  31
HETATM   31  C4  UNL     1       4.105   5.110   7.973  1.00  0.00     0.186 C
BRANCH  31  32
HETATM   32  O1  UNL     1       3.766   6.378   7.524  1.00  0.00    -0.394 OA
HETATM   33  C5  UNL     1       3.047   6.397   6.348  1.00  0.00     0.201 C
ENDBRANCH  31  32
ENDBRANCH  30  31
ENDBRANCH  26  30
ENDBRANCH  24  25
ENDBRANCH  22  23
BRANCH  22  34
HETATM   34  C10 UNL     1       5.206   3.677  11.424  1.00  0.00     0.227 C
HETATM   35  O3  UNL     1       3.981   3.849  11.378  1.00  0.00    -0.643 OA
HETATM   36  O4  UNL     1       6.013   4.746  11.767  1.00  0.00    -0.643 OA
ENDBRANCH  22  34
ENDBRANCH   1  22
BRANCH  21  37
HETATM   37  C24 UNL     1       4.245  -0.126  11.534  1.00  0.00    -0.004 C
HETATM   38  C25 UNL     1       2.986  -0.365  11.263  1.00  0.00    -0.027 C
BRANCH  38  39
HETATM   39  C26 UNL     1       1.883   0.107  12.111  1.00  0.00     0.046 C
BRANCH  39  40
HETATM   40  C27 UNL     1       0.837   0.798  11.253  1.00  0.00     0.125 C
BRANCH  40  41
HETATM   41  N4  UNL     1       1.506   1.818  10.474  1.00  0.00    -0.369 N
ATOM     42  H4  UNL     1       2.416   1.615  10.060  1.00  0.00     0.161 HD
BRANCH  41  43
HETATM   43  C28 UNL     1       0.923   3.087  10.277  1.00  0.00     0.180 C
HETATM   44  N5  UNL     1       0.491   3.815  11.427  1.00  0.00    -0.070 NA
HETATM   45  S4  UNL     1       0.757   3.687   8.766  1.00  0.00    -0.044 SA
ENDBRANCH  41  43
ENDBRANCH  40  41
ENDBRANCH  39  40
ENDBRANCH  38  39
ENDBRANCH  21  37
TORSDOF 13
ENDMDL