MODEL 1
REMARK VINA RESULT: -7.900138791      0.000      0.000
REMARK  17 active torsions:
REMARK  status: ('A' for Active; 'I' for Inactive)
REMARK    1  A    between atoms: C2_2  and  C3_4
REMARK    2  A    between atoms: C3_4  and  N1_5
REMARK    3  A    between atoms: C3_4  and  C4_9
REMARK    4  A    between atoms: C4_9  and  C5_11
REMARK    5  A    between atoms: C5_11  and  C6_12
REMARK    6  A    between atoms: C6_12  and  C7_13
REMARK    7  A    between atoms: C7_13  and  C8_14
REMARK    8  A    between atoms: C8_14  and  C9_15
REMARK    9  A    between atoms: C9_15  and  C10_16
REMARK   10  A    between atoms: C12_21  and  C13_22
REMARK   11  A    between atoms: C13_22  and  C14_23
REMARK   12  A    between atoms: C18_28  and  O5_29
REMARK   13  A    between atoms: N3_31  and  C19_32
REMARK   14  A    between atoms: C19_32  and  C20_33
REMARK   15  A    between atoms: C26_39  and  O6_40
REMARK   16  A    between atoms: C27_44  and  C28_45
REMARK   17  A    between atoms: C28_45  and  C29_46
ROOT
HETATM    1  C10 UNL     1       4.939   1.341  11.483  1.00  0.00     0.089 C
HETATM    2  N2  UNL     1       4.309   2.462  12.155  1.00  0.00    -0.355 N
ATOM      3  H2  UNL     1       4.230   2.424  13.171  1.00  0.00     0.162 HD
HETATM    4  C11 UNL     1       3.798   3.602  11.495  1.00  0.00     0.229 C
HETATM    5  O3  UNL     1       3.948   4.724  12.031  1.00  0.00    -0.273 OA
HETATM    6  C12 UNL     1       3.075   3.594  10.182  1.00  0.00     0.152 C
HETATM    7  C17 UNL     1       3.705   4.554   9.260  1.00  0.00     0.187 C
HETATM    8  O4  UNL     1       3.994   5.644   9.654  1.00  0.00    -0.292 OA
HETATM    9  C18 UNL     1       3.975   4.164   7.850  1.00  0.00     0.288 C
HETATM   10  N3  UNL     1       4.597   5.162   7.102  1.00  0.00    -0.367 N
HETATM   11  C24 UNL     1       5.560   4.969   6.141  1.00  0.00     0.153 C
HETATM   12  C25 UNL     1       6.402   6.254   6.019  1.00  0.00     0.041 C
HETATM   13  C26 UNL     1       6.398   3.766   6.063  1.00  0.00     0.138 C
HETATM   14  N4  UNL     1       7.682   3.426   6.504  1.00  0.00    -0.338 N
ATOM     15  H4  UNL     1       8.331   3.328   5.723  1.00  0.00     0.167 HD
HETATM   16  C27 UNL     1       8.320   3.183   7.737  1.00  0.00     0.080 C
HETATM   17  C32 UNL     1       8.022   1.836   8.352  1.00  0.00     0.265 C
HETATM   18  O7  UNL     1       7.871   0.887   7.505  1.00  0.00    -0.266 OA
HETATM   19  N5  UNL     1       7.901   1.538   9.718  1.00  0.00    -0.351 N
HETATM   20  C33 UNL     1       8.580   0.345  10.234  1.00  0.00     0.152 C
HETATM   21  C34 UNL     1       7.151   2.278  10.710  1.00  0.00     0.132 C
HETATM   22  C35 UNL     1       6.435   1.327  11.683  1.00  0.00     0.022 C
HETATM   23  C36 UNL     1       6.850   1.675  13.093  1.00  0.00     0.014 C
ENDROOT
BRANCH   1  24
HETATM   24  C9  UNL     1       4.262   0.036  11.772  1.00  0.00     0.026 C
BRANCH  24  25
HETATM   25  C8  UNL     1       2.797   0.098  11.952  1.00  0.00     0.002 C
BRANCH  25  26
HETATM   26  C7  UNL     1       2.401  -0.666  13.196  1.00  0.00     0.000 C
BRANCH  26  27
HETATM   27  C6  UNL     1       3.475  -0.800  14.215  1.00  0.00     0.007 C
BRANCH  27  28
HETATM   28  C5  UNL     1       3.357  -2.037  15.068  1.00  0.00     0.081 C
BRANCH  28  29
HETATM   29  C4  UNL     1       3.803  -3.282  14.426  1.00  0.00     0.164 C
HETATM   30  O2  UNL     1       3.012  -4.075  13.910  1.00  0.00    -0.295 OA
BRANCH  29  31
HETATM   31  C3  UNL     1       5.277  -3.581  14.406  1.00  0.00     0.320 C
BRANCH  31  32
HETATM   32  C2  UNL     1       5.959  -2.925  13.276  1.00  0.00     0.160 C
HETATM   33  C1  UNL     1       7.049  -1.924  13.504  1.00  0.00     0.093 C
HETATM   34  O1  UNL     1       5.645  -3.190  12.139  1.00  0.00    -0.296 OA
ENDBRANCH  31  32
BRANCH  31  35
HETATM   35  N1  UNL     1       5.826  -3.079  15.680  1.00  0.00    -0.061 N
ATOM     36  H13 UNL     1       6.346  -3.798  16.184  1.00  0.00     0.275 HD
ATOM     37  H12 UNL     1       6.591  -2.419  15.535  1.00  0.00     0.275 HD
ATOM     38  H11 UNL     1       5.077  -2.679  16.245  1.00  0.00     0.275 HD
ENDBRANCH  31  35
ENDBRANCH  29  31
ENDBRANCH  28  29
ENDBRANCH  27  28
ENDBRANCH  26  27
ENDBRANCH  25  26
ENDBRANCH  24  25
ENDBRANCH   1  24
BRANCH   6  39
HETATM   39  C13 UNL     1       1.670   4.041  10.532  1.00  0.00     0.026 C
BRANCH  39  40
HETATM   40  C14 UNL     1       0.600   3.055  10.271  1.00  0.00    -0.021 C
HETATM   41  C15 UNL     1       0.126   2.547  11.640  1.00  0.00     0.009 C
HETATM   42  C16 UNL     1       1.047   1.835   9.512  1.00  0.00     0.009 C
ENDBRANCH  39  40
ENDBRANCH   6  39
BRANCH   9  43
HETATM   43  O5  UNL     1       4.721   3.021   7.952  1.00  0.00    -0.370 OA
ATOM     44  H5  UNL     1       5.614   3.331   8.049  1.00  0.00     0.212 HD
ENDBRANCH   9  43
BRANCH  16  45
HETATM   45  C28 UNL     1       8.565   4.243   8.730  1.00  0.00     0.067 C
BRANCH  45  46
HETATM   46  C29 UNL     1       9.280   5.468   8.271  1.00  0.00    -0.017 C
HETATM   47  C30 UNL     1      10.616   5.168   7.619  1.00  0.00     0.010 C
HETATM   48  C31 UNL     1       9.558   6.443   9.386  1.00  0.00     0.010 C
ENDBRANCH  45  46
ENDBRANCH  16  45
BRANCH  10  49
HETATM   49  C19 UNL     1       3.705   6.260   6.730  1.00  0.00     0.148 C
BRANCH  49  50
HETATM   50  C20 UNL     1       2.509   5.836   5.992  1.00  0.00    -0.006 C
HETATM   51  C21 UNL     1       1.258   5.919   6.386  1.00  0.00    -0.090 C
HETATM   52  C22 UNL     1       0.923   6.491   7.709  1.00  0.00     0.042 C
HETATM   53  C23 UNL     1       0.158   5.438   5.499  1.00  0.00     0.042 C
ENDBRANCH  49  50
ENDBRANCH  10  49
BRANCH  13  54
HETATM   54  O6  UNL     1       5.771   2.805   5.420  1.00  0.00    -0.348 OA
ATOM     55  H6  UNL     1       5.005   2.522   5.904  1.00  0.00     0.219 HD
ENDBRANCH  13  54
TORSDOF 17
ENDMDL