MODEL 5
REMARK VINA RESULT: -9.812375595      0.990      1.290
REMARK  11 active torsions:
REMARK  status: ('A' for Active; 'I' for Inactive)
REMARK    1  A    between atoms: C2_2  and  C3_3
REMARK    2  A    between atoms: C3_3  and  N1_5
REMARK       I    between atoms: N1_5  and  C5_7
REMARK    3  A    between atoms: C5_7  and  C6_9
REMARK    4  A    between atoms: C6_9  and  C7_10
REMARK    5  A    between atoms: C7_10  and  C8_11
REMARK    6  A    between atoms: C8_11  and  C9_12
REMARK    7  A    between atoms: C9_12  and  C10_13
REMARK    8  A    between atoms: C10_13  and  N2_14
REMARK       I    between atoms: C11_16  and  N3_17
REMARK       I    between atoms: C11_16  and  N6_24
REMARK    9  A    between atoms: N3_17  and  N4_19
REMARK       I    between atoms: N6_24  and  C12_26
REMARK       I    between atoms: C12_26  and  N7_28
REMARK       I    between atoms: N8_33  and  C17_35
REMARK   10  A    between atoms: C17_35  and  C18_37
REMARK   11  A    between atoms: C27_49  and  C28_50
ROOT
HETATM    1  C6  UNL     1      13.094   1.014   8.107  1.00  0.00     0.080 C
HETATM    2  N8  UNL     1      12.184   0.229   8.021  1.00  0.00    -0.326 N
ATOM      3  H8  UNL     1      12.524  -0.614   8.484  1.00  0.00     0.168 HD
HETATM    4  C17 UNL     1      10.938  -0.085   7.614  1.00  0.00     0.226 C
HETATM    5  O3  UNL     1      10.226  -0.786   8.426  1.00  0.00    -0.273 OA
ENDROOT
BRANCH   1   6
HETATM    6  C5  UNL     1      14.338   0.579   8.795  1.00  0.00     0.264 C
HETATM    7  N1  UNL     1      15.562   0.925   8.238  1.00  0.00    -0.352 N
ATOM      8  H1  UNL     1      15.551   1.470   7.376  1.00  0.00     0.163 HD
HETATM    9  O1  UNL     1      14.283  -0.088   9.856  1.00  0.00    -0.266 OA
BRANCH   7  10
HETATM   10  C3  UNL     1      16.857   0.570   8.791  1.00  0.00     0.080 C
HETATM   11  C4  UNL     1      17.537  -0.535   8.062  1.00  0.00     0.032 C
BRANCH  10  12
HETATM   12  C2  UNL     1      17.693   1.862   8.750  1.00  0.00     0.020 C
HETATM   13  C1  UNL     1      16.945   2.996   9.380  1.00  0.00     0.007 C
ENDBRANCH  10  12
ENDBRANCH   7  10
ENDBRANCH   1   6
BRANCH   1  14
HETATM   14  C7  UNL     1      13.023   2.395   7.540  1.00  0.00     0.063 C
BRANCH  14  15
HETATM   15  C8  UNL     1      13.031   3.449   8.611  1.00  0.00     0.008 C
BRANCH  15  16
HETATM   16  C9  UNL     1      11.572   3.636   9.056  1.00  0.00     0.020 C
BRANCH  16  17
HETATM   17  C10 UNL     1      11.656   4.437  10.338  1.00  0.00     0.138 C
BRANCH  17  18
HETATM   18  N2  UNL     1      12.919   4.172  10.960  1.00  0.00    -0.225 N
HETATM   19  C11 UNL     1      13.728   5.137  11.203  1.00  0.00     0.697 C
HETATM   20  N3  UNL     1      13.333   6.454  10.840  1.00  0.00    -0.118 N
HETATM   21  N6  UNL     1      14.982   4.867  11.819  1.00  0.00    -0.140 N
ATOM     22  H3  UNL     1      12.860   7.044  11.525  1.00  0.00     0.207 HD
HETATM   23  C12 UNL     1      15.916   5.891  12.114  1.00  0.00     0.336 C
ATOM     24  H6  UNL     1      15.218   3.903  12.055  1.00  0.00     0.189 HD
HETATM   25  O2  UNL     1      15.583   7.083  11.804  1.00  0.00    -0.246 OA
HETATM   26  N7  UNL     1      17.153   5.609  12.721  1.00  0.00    -0.334 N
HETATM   27  C13 UNL     1      17.636   4.310  13.110  1.00  0.00     0.127 C
HETATM   28  C16 UNL     1      18.179   6.563  13.075  1.00  0.00     0.127 C
HETATM   29  C14 UNL     1      19.081   4.355  12.594  1.00  0.00     0.022 C
HETATM   30  C15 UNL     1      19.468   5.780  12.909  1.00  0.00     0.022 C
ATOM     31  H2  UNL     1      13.174   3.216  11.210  1.00  0.00     0.177 HD
BRANCH  20  32
HETATM   32  N4  UNL     1      13.583   6.952   9.561  1.00  0.00    -0.235 N
HETATM   33  N5  UNL     1      14.654   6.694   8.927  1.00  0.00    -0.330 N
ATOM     34  H52 UNL     1      15.345   6.100   9.384  1.00  0.00     0.178 HD
ATOM     35  H51 UNL     1      14.837   7.058   7.992  1.00  0.00     0.178 HD
ATOM     36  H4  UNL     1      12.881   7.545   9.119  1.00  0.00     0.208 HD
ENDBRANCH  20  32
ENDBRANCH  17  18
ENDBRANCH  16  17
ENDBRANCH  15  16
ENDBRANCH  14  15
ENDBRANCH   1  14
BRANCH   4  37
HETATM   37  C18 UNL     1      10.315   0.289   6.352  1.00  0.00     0.083 C
HETATM   38  C19 UNL     1      10.971  -0.308   5.136  1.00  0.00     0.014 C
HETATM   39  C20 UNL     1      11.738  -1.551   5.410  1.00  0.00     0.002 C
HETATM   40  C21 UNL     1      11.464  -2.548   4.308  1.00  0.00     0.020 C
HETATM   41  C22 UNL     1      10.261  -3.372   4.781  1.00  0.00     0.122 C
HETATM   42  N9  UNL     1       9.091  -2.689   4.306  1.00  0.00    -0.361 N
HETATM   43  C23 UNL     1       8.140  -1.996   5.067  1.00  0.00     0.222 C
ATOM     44  H9  UNL     1       8.933  -2.710   3.299  1.00  0.00     0.162 HD
HETATM   45  O4  UNL     1       6.966  -1.947   4.529  1.00  0.00    -0.273 OA
HETATM   46  C24 UNL     1       8.349  -1.347   6.370  1.00  0.00     0.083 C
HETATM   47  C25 UNL     1       6.974  -1.331   7.065  1.00  0.00     0.015 C
HETATM   48  C30 UNL     1       8.829   0.040   6.410  1.00  0.00     0.012 C
HETATM   49  C26 UNL     1       6.381   0.010   7.211  1.00  0.00     0.016 C
HETATM   50  C27 UNL     1       6.663   1.051   6.204  1.00  0.00     0.087 C
HETATM   51  C29 UNL     1       8.005   0.888   5.506  1.00  0.00     0.021 C
BRANCH  50  52
HETATM   52  C28 UNL     1       5.552   1.309   5.239  1.00  0.00     0.177 C
HETATM   53  O5  UNL     1       5.165   2.481   5.089  1.00  0.00    -0.648 OA
HETATM   54  O6  UNL     1       4.966   0.275   4.533  1.00  0.00    -0.648 OA
ENDBRANCH  50  52
ENDBRANCH   4  37
TORSDOF 11
ENDMDL