MODEL 5
REMARK VINA RESULT: -6.018278542      1.609      1.968
REMARK  13 active torsions:
REMARK  status: ('A' for Active; 'I' for Inactive)
REMARK    1  A    between atoms: C2_2  and  C3_3
REMARK    2  A    between atoms: C3_3  and  C4_4
REMARK    3  A    between atoms: C4_4  and  C5_5
REMARK    4  A    between atoms: C6_8  and  C7_9
REMARK    5  A    between atoms: C7_9  and  C8_10
REMARK    6  A    between atoms: C10_14  and  N3_15
REMARK    7  A    between atoms: C14_25  and  C15_26
REMARK    8  A    between atoms: C15_26  and  C16_27
REMARK    9  A    between atoms: C16_27  and  C17_28
REMARK   10  A    between atoms: C23_37  and  C24_38
REMARK   11  A    between atoms: C24_38  and  C25_39
REMARK   12  A    between atoms: C27_46  and  C28_47
REMARK   13  A    between atoms: C31_52  and  O5_53
ROOT
HETATM    1  C5  UNL     1      13.234   6.140  15.433  1.00  0.00     0.153 C
HETATM    2  N1  UNL     1      13.774   7.367  15.033  1.00  0.00    -0.390 N
ATOM      3  H1  UNL     1      14.191   7.487  14.110  1.00  0.00     0.156 HD
HETATM    4  C6  UNL     1      13.718   8.455  15.978  1.00  0.00     0.186 C
HETATM    5  N5  UNL     1      14.304   8.263  17.240  1.00  0.00    -0.333 N
HETATM    6  C12 UNL     1      13.714   9.046  18.360  1.00  0.00     0.155 C
HETATM    7  C13 UNL     1      15.351   7.413  17.646  1.00  0.00     0.243 C
HETATM    8  O1  UNL     1      15.114   6.789  18.753  1.00  0.00    -0.271 OA
HETATM    9  C14 UNL     1      16.636   7.123  17.029  1.00  0.00     0.176 C
HETATM   10  N6  UNL     1      17.287   8.250  16.399  1.00  0.00    -0.348 N
ATOM     11  H6  UNL     1      17.231   9.151  16.873  1.00  0.00     0.163 HD
HETATM   12  C19 UNL     1      17.985   8.200  15.193  1.00  0.00     0.218 C
HETATM   13  O2  UNL     1      19.132   8.780  15.108  1.00  0.00    -0.274 OA
HETATM   14  C20 UNL     1      17.549   7.532  13.941  1.00  0.00     0.103 C
HETATM   15  C21 UNL     1      17.853   6.058  13.908  1.00  0.00     0.011 C
HETATM   16  C22 UNL     1      18.325   5.586  12.562  1.00  0.00     0.026 C
HETATM   17  C23 UNL     1      17.372   4.569  11.951  1.00  0.00     0.092 C
HETATM   18  N8  UNL     1      16.510   5.285  11.044  1.00  0.00    -0.354 N
ATOM     19  H8  UNL     1      16.992   5.711  10.253  1.00  0.00     0.162 HD
HETATM   20  C26 UNL     1      15.127   5.497  11.061  1.00  0.00     0.241 C
HETATM   21  O4  UNL     1      14.546   5.242   9.951  1.00  0.00    -0.271 OA
HETATM   22  C27 UNL     1      14.237   5.965  12.133  1.00  0.00     0.179 C
HETATM   23  N9  UNL     1      14.059   5.049  13.208  1.00  0.00    -0.359 N
ATOM     24  H9  UNL     1      14.591   4.184  13.111  1.00  0.00     0.162 HD
HETATM   25  C31 UNL     1      13.293   5.118  14.367  1.00  0.00     0.135 C
ENDROOT
BRANCH   4  26
HETATM   26  C7  UNL     1      14.086   9.676  15.186  1.00  0.00     0.086 C
BRANCH  26  27
HETATM   27  C8  UNL     1      13.086  10.708  15.018  1.00  0.00    -0.035 A
HETATM   28  C9  UNL     1      13.261  12.011  14.641  1.00  0.00     0.097 A
HETATM   29  N2  UNL     1      12.071  12.660  14.600  1.00  0.00    -0.351 N
HETATM   30  C10 UNL     1      11.142  11.779  14.948  1.00  0.00     0.119 A
ATOM     31  H2  UNL     1      11.918  13.637  14.350  1.00  0.00     0.166 HD
HETATM   32  C11 UNL     1      11.727  10.559  15.215  1.00  0.00     0.058 A
BRANCH  30  33
HETATM   33  N3  UNL     1       9.744  12.091  15.023  1.00  0.00    -0.292 N
HETATM   34  N4  UNL     1       9.007  11.247  15.607  1.00  0.00    -0.344 N
ATOM     35  H42 UNL     1       9.402  10.392  16.000  1.00  0.00     0.176 HD
ATOM     36  H41 UNL     1       8.013  11.469  15.660  1.00  0.00     0.176 HD
ATOM     37  H3  UNL     1       9.365  12.950  14.626  1.00  0.00     0.188 HD
ENDBRANCH  30  33
ENDBRANCH  26  27
ENDBRANCH   4  26
BRANCH   1  38
HETATM   38  C4  UNL     1      11.831   6.191  15.985  1.00  0.00     0.033 C
BRANCH  38  39
HETATM   39  C3  UNL     1      11.648   5.813  17.394  1.00  0.00     0.002 C
BRANCH  39  40
HETATM   40  C2  UNL     1      10.287   5.106  17.496  1.00  0.00    -0.004 C
HETATM   41  C1  UNL     1      10.455   3.610  17.524  1.00  0.00     0.005 C
ENDBRANCH  39  40
ENDBRANCH  38  39
ENDBRANCH   1  38
BRANCH  25  42
HETATM   42  O5  UNL     1      12.472   4.128  14.588  1.00  0.00    -0.348 OA
ATOM     43  H5  UNL     1      11.632   4.258  14.165  1.00  0.00     0.219 HD
ENDBRANCH  25  42
BRANCH   9  44
HETATM   44  C15 UNL     1      17.638   6.622  18.081  1.00  0.00     0.035 C
BRANCH  44  45
HETATM   45  C16 UNL     1      18.271   5.328  17.737  1.00  0.00     0.002 C
BRANCH  45  46
HETATM   46  C17 UNL     1      18.631   4.572  19.022  1.00  0.00    -0.004 C
HETATM   47  C18 UNL     1      17.743   5.080  20.132  1.00  0.00     0.005 C
ENDBRANCH  45  46
ENDBRANCH  44  45
ENDBRANCH   9  44
BRANCH  22  48
HETATM   48  C28 UNL     1      12.884   6.337  11.501  1.00  0.00     0.009 C
HETATM   49  C29 UNL     1      12.327   7.627  11.998  1.00  0.00     0.012 C
HETATM   50  C30 UNL     1      11.913   5.188  11.629  1.00  0.00     0.012 C
ENDBRANCH  22  48
BRANCH  17  51
HETATM   51  C24 UNL     1      18.304   3.670  11.113  1.00  0.00     0.124 C
BRANCH  51  52
HETATM   52  C25 UNL     1      17.516   2.883  10.165  1.00  0.00     0.233 C
HETATM   53  N7  UNL     1      17.817   2.889   8.772  1.00  0.00    -0.062 NA
HETATM   54  O3  UNL     1      16.556   2.182  10.555  1.00  0.00    -0.277 OA
ENDBRANCH  51  52
ENDBRANCH  17  51
TORSDOF 13
ENDMDL