MODEL 5
REMARK VINA RESULT: -8.342268767      1.378      2.651
REMARK  17 active torsions:
REMARK  status: ('A' for Active; 'I' for Inactive)
REMARK    1  A    between atoms: C3_3  and  C4_4
REMARK    2  A    between atoms: C3_3  and  C13_17
REMARK    3  A    between atoms: C4_4  and  C5_5
REMARK    4  A    between atoms: C5_5  and  C6_6
REMARK    5  A    between atoms: C6_6  and  C7_7
REMARK    6  A    between atoms: C7_7  and  C8_8
REMARK    7  A    between atoms: C9_9  and  C10_10
REMARK    8  A    between atoms: C11_11  and  C12_12
REMARK    9  A    between atoms: C12_12  and  N1_13
REMARK   10  A    between atoms: C13_17  and  C14_18
REMARK   11  A    between atoms: C14_18  and  O1_19
REMARK   12  A    between atoms: C14_18  and  C15_21
REMARK   13  A    between atoms: C16_24  and  O2_25
REMARK   14  A    between atoms: C22_34  and  C23_35
REMARK   15  A    between atoms: C23_35  and  C24_36
REMARK   16  A    between atoms: C24_36  and  C25_37
REMARK   17  A    between atoms: C25_37  and  N4_38
ROOT
HETATM    1  C15 UNL     1      11.998   1.415   6.415  1.00  0.00     0.108 C
HETATM    2  N2  UNL     1      11.537   2.757   6.518  1.00  0.00    -0.336 N
ATOM      3  H2  UNL     1      10.987   3.010   5.696  1.00  0.00     0.167 HD
HETATM    4  C16 UNL     1      11.609   3.814   7.392  1.00  0.00     0.139 C
HETATM    5  C17 UNL     1      11.183   4.135   8.731  1.00  0.00     0.162 C
HETATM    6  C18 UNL     1      10.823   3.128   9.727  1.00  0.00     0.035 C
HETATM    7  C19 UNL     1      10.517   4.033  10.939  1.00  0.00     0.022 C
HETATM    8  C20 UNL     1      11.235   5.354  10.616  1.00  0.00     0.127 C
HETATM    9  N3  UNL     1      12.101   4.982   9.508  1.00  0.00    -0.338 N
HETATM   10  C21 UNL     1      13.423   5.307   9.187  1.00  0.00     0.243 C
HETATM   11  O3  UNL     1      13.709   6.559   9.053  1.00  0.00    -0.271 OA
HETATM   12  C22 UNL     1      14.580   4.409   8.971  1.00  0.00     0.176 C
HETATM   13  N7  UNL     1      14.515   3.239   9.839  1.00  0.00    -0.346 N
ATOM     14  H7  UNL     1      14.129   3.368  10.775  1.00  0.00     0.163 HD
HETATM   15  C27 UNL     1      14.945   1.947   9.487  1.00  0.00     0.241 C
HETATM   16  O4  UNL     1      15.625   1.242  10.318  1.00  0.00    -0.271 OA
HETATM   17  C28 UNL     1      14.633   1.350   8.154  1.00  0.00     0.179 C
HETATM   18  C29 UNL     1      15.825   0.445   7.839  1.00  0.00     0.037 C
HETATM   19  C30 UNL     1      15.459  -0.787   8.638  1.00  0.00     0.022 C
HETATM   20  C31 UNL     1      14.050  -0.640   9.113  1.00  0.00     0.127 C
HETATM   21  N8  UNL     1      13.518   0.435   8.252  1.00  0.00    -0.334 N
HETATM   22  C32 UNL     1      12.264   0.620   7.608  1.00  0.00     0.269 C
HETATM   23  O5  UNL     1      11.321   0.008   8.170  1.00  0.00    -0.266 OA
ENDROOT
BRANCH   1  24
HETATM   24  C14 UNL     1      11.363   0.637   5.311  1.00  0.00     0.177 C
BRANCH  24  25
HETATM   25  C13 UNL     1       9.980   0.189   5.346  1.00  0.00     0.072 C
BRANCH  25  26
HETATM   26  C3  UNL     1       9.646  -1.184   5.694  1.00  0.00    -0.081 C
HETATM   27  C2  UNL     1       8.606  -1.468   6.457  1.00  0.00    -0.028 C
HETATM   28  C1  UNL     1       7.651  -0.520   7.041  1.00  0.00     0.036 C
BRANCH  26  29
HETATM   29  C4  UNL     1      10.485  -2.325   5.216  1.00  0.00     0.034 C
BRANCH  29  30
HETATM   30  C5  UNL     1       9.763  -3.631   5.244  1.00  0.00     0.005 C
BRANCH  30  31
HETATM   31  C6  UNL     1       9.827  -4.362   3.919  1.00  0.00     0.012 C
BRANCH  31  32
HETATM   32  C7  UNL     1       8.447  -4.791   3.467  1.00  0.00     0.095 C
BRANCH  32  33
HETATM   33  C8  UNL     1       7.505  -3.697   3.706  1.00  0.00    -0.092 C
HETATM   34  C9  UNL     1       6.712  -2.797   3.920  1.00  0.00    -0.015 C
BRANCH  34  35
HETATM   35  C10 UNL     1       5.796  -1.757   4.193  1.00  0.00    -0.013 C
HETATM   36  C11 UNL     1       5.005  -0.862   4.449  1.00  0.00    -0.065 C
BRANCH  36  37
HETATM   37  C12 UNL     1       4.066   0.206   4.782  1.00  0.00     0.324 C
BRANCH  37  38
HETATM   38  N1  UNL     1       4.776   1.444   4.934  1.00  0.00    -0.069 N
ATOM     39  H13 UNL     1       5.786   1.305   4.976  1.00  0.00     0.275 HD
ATOM     40  H12 UNL     1       4.741   2.014   4.088  1.00  0.00     0.275 HD
ATOM     41  H11 UNL     1       4.424   1.945   5.750  1.00  0.00     0.275 HD
ENDBRANCH  37  38
ENDBRANCH  36  37
ENDBRANCH  34  35
ENDBRANCH  32  33
ENDBRANCH  31  32
ENDBRANCH  30  31
ENDBRANCH  29  30
ENDBRANCH  26  29
ENDBRANCH  25  26
ENDBRANCH  24  25
BRANCH  24  42
HETATM   42  O1  UNL     1      11.646   1.252   4.095  1.00  0.00    -0.389 OA
ATOM     43  H1  UNL     1      12.581   1.240   3.926  1.00  0.00     0.210 HD
ENDBRANCH  24  42
ENDBRANCH   1  24
BRANCH   4  44
HETATM   44  O2  UNL     1      12.232   4.878   6.932  1.00  0.00    -0.348 OA
ATOM     45  H2  UNL     1      11.674   5.622   6.740  1.00  0.00     0.219 HD
ENDBRANCH   4  44
BRANCH  12  46
HETATM   46  C23 UNL     1      15.889   5.105   9.408  1.00  0.00     0.036 C
BRANCH  46  47
HETATM   47  C24 UNL     1      16.301   4.626  10.772  1.00  0.00     0.022 C
BRANCH  47  48
HETATM   48  C25 UNL     1      16.078   5.736  11.773  1.00  0.00     0.122 C
BRANCH  48  49
HETATM   49  N4  UNL     1      14.871   5.525  12.543  1.00  0.00    -0.367 N
HETATM   50  C26 UNL     1      14.074   6.479  12.810  1.00  0.00     0.196 C
HETATM   51  N5  UNL     1      12.894   6.250  13.570  1.00  0.00    -0.067 NA
HETATM   52  N6  UNL     1      14.290   7.834  12.383  1.00  0.00    -0.067 NA
ATOM     53  H4  UNL     1      14.654   4.587  12.880  1.00  0.00     0.161 HD
ENDBRANCH  48  49
ENDBRANCH  47  48
ENDBRANCH  46  47
ENDBRANCH  12  46
TORSDOF 17
ENDMDL