MODEL 1
REMARK VINA RESULT: -7.271851551      0.000      0.000
REMARK  14 active torsions:
REMARK  status: ('A' for Active; 'I' for Inactive)
REMARK    1  A    between atoms: C2_2  and  C3_3
REMARK    2  A    between atoms: C3_3  and  N1_5
REMARK    3  A    between atoms: C5_6  and  O1_7
REMARK    4  A    between atoms: C6_9  and  C7_10
REMARK    5  A    between atoms: C7_10  and  C8_11
REMARK    6  A    between atoms: C15_24  and  C16_25
REMARK    7  A    between atoms: C16_25  and  C17_26
REMARK    8  A    between atoms: C21_33  and  C22_34
REMARK    9  A    between atoms: C25_39  and  O5_40
REMARK   10  A    between atoms: C26_42  and  C27_43
REMARK   11  A    between atoms: C27_43  and  C28_44
REMARK   12  A    between atoms: C28_44  and  C29_45
REMARK   13  A    between atoms: C29_45  and  N6_46
REMARK       I    between atoms: C30_48  and  N8_50
REMARK   14  A    between atoms: N8_50  and  C31_52
ROOT
HETATM    1  N1  UNL     1       8.647  -4.862   4.414  1.00  0.00    -0.341 N
HETATM    2  C5  UNL     1       7.272  -4.972   4.120  1.00  0.00     0.162 C
HETATM    3  C6  UNL     1       6.125  -4.046   4.200  1.00  0.00     0.063 C
HETATM    4  N2  UNL     1       6.440  -2.711   3.805  1.00  0.00    -0.325 N
ATOM      5  H2  UNL     1       6.846  -2.659   2.871  1.00  0.00     0.169 HD
HETATM    6  C11 UNL     1       6.315  -1.462   4.413  1.00  0.00     0.244 C
HETATM    7  O2  UNL     1       5.579  -0.571   3.832  1.00  0.00    -0.271 OA
HETATM    8  C12 UNL     1       6.920  -0.967   5.673  1.00  0.00     0.172 C
HETATM    9  C13 UNL     1       6.010   0.144   6.197  1.00  0.00     0.042 C
HETATM   10  N3  UNL     1       8.202  -0.402   5.302  1.00  0.00    -0.346 N
ATOM     11  H3  UNL     1       8.692  -0.875   4.542  1.00  0.00     0.163 HD
HETATM   12  C14 UNL     1       8.854   0.703   5.846  1.00  0.00     0.241 C
HETATM   13  O3  UNL     1       9.360   1.524   4.998  1.00  0.00    -0.271 OA
HETATM   14  C15 UNL     1       9.021   1.022   7.295  1.00  0.00     0.177 C
HETATM   15  N4  UNL     1       9.902   0.094   7.945  1.00  0.00    -0.346 N
ATOM     16  H4  UNL     1      10.231   0.375   8.869  1.00  0.00     0.163 HD
HETATM   17  C20 UNL     1      10.378  -1.156   7.483  1.00  0.00     0.241 C
HETATM   18  O4  UNL     1       9.969  -2.153   8.158  1.00  0.00    -0.271 OA
HETATM   19  C21 UNL     1      11.259  -1.472   6.363  1.00  0.00     0.179 C
HETATM   20  N5  UNL     1      11.058  -2.620   5.571  1.00  0.00    -0.359 N
ATOM     21  H5  UNL     1      11.387  -2.468   4.617  1.00  0.00     0.162 HD
HETATM   22  C25 UNL     1      10.537  -3.905   5.720  1.00  0.00     0.135 C
HETATM   23  C26 UNL     1       9.171  -4.443   5.737  1.00  0.00     0.161 C
ENDROOT
BRANCH  23  24
HETATM   24  C27 UNL     1       9.186  -5.748   6.547  1.00  0.00     0.035 C
BRANCH  24  25
HETATM   25  C28 UNL     1       7.908  -6.481   6.589  1.00  0.00     0.022 C
BRANCH  25  26
HETATM   26  C29 UNL     1       7.964  -7.652   7.545  1.00  0.00     0.122 C
BRANCH  26  27
HETATM   27  N6  UNL     1       7.901  -7.237   8.925  1.00  0.00    -0.365 N
HETATM   28  C30 UNL     1       7.746  -8.050   9.908  1.00  0.00     0.183 C
HETATM   29  N7  UNL     1       7.617  -9.451   9.744  1.00  0.00    -0.064 NA
HETATM   30  N8  UNL     1       7.725  -7.523  11.224  1.00  0.00    -0.365 N
ATOM     31  H8  UNL     1       7.350  -6.592  11.403  1.00  0.00     0.162 HD
ATOM     32  H6  UNL     1       7.984  -6.241   9.132  1.00  0.00     0.162 HD
BRANCH  30  33
HETATM   33  C31 UNL     1       8.245  -8.330  12.315  1.00  0.00     0.118 C
HETATM   34  C32 UNL     1       9.740  -8.207  12.429  1.00  0.00     0.026 C
ENDBRANCH  30  33
ENDBRANCH  26  27
ENDBRANCH  25  26
ENDBRANCH  24  25
ENDBRANCH  23  24
BRANCH   1  35
HETATM   35  C3  UNL     1       9.609  -5.214   3.406  1.00  0.00     0.105 C
HETATM   36  C4  UNL     1       9.737  -6.670   3.101  1.00  0.00     0.037 C
BRANCH  35  37
HETATM   37  C2  UNL     1       9.343  -4.514   2.121  1.00  0.00    -0.012 C
HETATM   38  C1  UNL     1      10.123  -4.546   1.082  1.00  0.00     0.009 C
ENDBRANCH  35  37
ENDBRANCH   1  35
BRANCH  22  39
HETATM   39  O5  UNL     1      11.453  -4.844   5.884  1.00  0.00    -0.348 OA
ATOM     40  H5  UNL     1      11.283  -5.431   6.612  1.00  0.00     0.219 HD
ENDBRANCH  22  39
BRANCH   2  41
HETATM   41  O1  UNL     1       6.874  -6.149   3.662  1.00  0.00    -0.345 OA
ATOM     42  H1  UNL     1       5.971  -6.195   3.371  1.00  0.00     0.219 HD
ENDBRANCH   2  41
BRANCH   3  43
HETATM   43  C7  UNL     1       5.269  -4.279   5.380  1.00  0.00     0.065 C
BRANCH  43  44
HETATM   44  C8  UNL     1       4.058  -5.124   5.172  1.00  0.00    -0.017 C
HETATM   45  C9  UNL     1       4.067  -6.390   6.019  1.00  0.00     0.010 C
HETATM   46  C10 UNL     1       2.798  -4.375   5.640  1.00  0.00     0.010 C
ENDBRANCH  43  44
ENDBRANCH   3  43
BRANCH  19  47
HETATM   47  C22 UNL     1      12.723  -1.339   6.836  1.00  0.00     0.009 C
HETATM   48  C23 UNL     1      12.903  -0.210   7.787  1.00  0.00     0.012 C
HETATM   49  C24 UNL     1      13.612  -1.178   5.657  1.00  0.00     0.012 C
ENDBRANCH  19  47
BRANCH  14  50
HETATM   50  C16 UNL     1       9.307   2.449   7.379  1.00  0.00     0.038 C
BRANCH  50  51
HETATM   51  C17 UNL     1      10.452   3.037   8.051  1.00  0.00    -0.020 C
HETATM   52  C18 UNL     1       9.847   3.928   9.186  1.00  0.00     0.009 C
HETATM   53  C19 UNL     1      11.203   4.043   7.215  1.00  0.00     0.009 C
ENDBRANCH  50  51
ENDBRANCH  14  50
TORSDOF 14
ENDMDL