MODEL 4
REMARK VINA RESULT: -5.716986340      2.863      7.530
REMARK  11 active torsions:
REMARK  status: ('A' for Active; 'I' for Inactive)
REMARK    1  A    between atoms: C2_2  and  C3_3
REMARK    2  A    between atoms: C3_3  and  C4_4
REMARK    3  A    between atoms: C6_9  and  C7_10
REMARK    4  A    between atoms: C12_17  and  C13_18
REMARK    5  A    between atoms: C13_18  and  C14_19
REMARK    6  A    between atoms: C18_26  and  C19_27
REMARK    7  A    between atoms: C19_27  and  C20_28
REMARK    8  A    between atoms: C24_35  and  C25_36
REMARK    9  A    between atoms: C25_36  and  C26_37
REMARK   10  A    between atoms: C30_44  and  C31_45
REMARK   11  A    between atoms: C31_45  and  N6_46
REMARK       I    between atoms: N6_46  and  C32_48
ROOT
HETATM    1  C4  UNL     1      17.521   5.345  14.286  1.00  0.00     0.105 C
HETATM    2  C5  UNL     1      17.167   6.169  15.437  1.00  0.00     0.224 C
HETATM    3  O1  UNL     1      17.206   5.533  16.569  1.00  0.00    -0.273 OA
HETATM    4  N1  UNL     1      16.796   7.502  15.538  1.00  0.00    -0.347 N
ATOM      5  H1  UNL     1      15.929   7.638  16.057  1.00  0.00     0.163 HD
HETATM    6  C6  UNL     1      17.361   8.713  15.077  1.00  0.00     0.180 C
HETATM    7  C10 UNL     1      17.278   9.847  16.062  1.00  0.00     0.243 C
HETATM    8  O2  UNL     1      17.964   9.803  17.119  1.00  0.00    -0.271 OA
HETATM    9  N2  UNL     1      16.457  11.004  15.887  1.00  0.00    -0.341 N
HETATM   10  C11 UNL     1      17.033  12.334  16.171  1.00  0.00     0.153 C
HETATM   11  C12 UNL     1      15.092  11.004  15.411  1.00  0.00     0.179 C
HETATM   12  C17 UNL     1      15.070  11.359  13.963  1.00  0.00     0.241 C
HETATM   13  O3  UNL     1      15.829  12.372  13.677  1.00  0.00    -0.271 OA
HETATM   14  N3  UNL     1      14.380  10.782  12.913  1.00  0.00    -0.346 N
ATOM     15  H3  UNL     1      14.896  10.808  12.034  1.00  0.00     0.163 HD
HETATM   16  C18 UNL     1      13.105  10.160  12.794  1.00  0.00     0.177 C
HETATM   17  C23 UNL     1      12.822   9.075  13.803  1.00  0.00     0.241 C
HETATM   18  O4  UNL     1      11.939   9.409  14.682  1.00  0.00    -0.271 OA
HETATM   19  N4  UNL     1      13.410   7.819  13.848  1.00  0.00    -0.346 N
ATOM     20  H4  UNL     1      13.863   7.577  14.730  1.00  0.00     0.163 HD
HETATM   21  C24 UNL     1      13.469   6.790  12.800  1.00  0.00     0.177 C
HETATM   22  C29 UNL     1      13.848   5.538  13.501  1.00  0.00     0.240 C
HETATM   23  O5  UNL     1      12.895   4.682  13.643  1.00  0.00    -0.271 OA
HETATM   24  N5  UNL     1      15.084   5.161  14.027  1.00  0.00    -0.352 N
ATOM     25  H5  UNL     1      15.084   4.993  15.034  1.00  0.00     0.163 HD
HETATM   26  C30 UNL     1      16.360   4.967  13.391  1.00  0.00     0.115 C
ENDROOT
BRANCH  26  27
HETATM   27  C31 UNL     1      16.488   5.635  12.035  1.00  0.00     0.148 C
BRANCH  27  28
HETATM   28  N6  UNL     1      17.208   4.764  11.100  1.00  0.00    -0.363 N
HETATM   29  C32 UNL     1      16.587   3.881  10.201  1.00  0.00     0.181 C
HETATM   30  N7  UNL     1      16.478   2.613  10.594  1.00  0.00    -0.374 N
HETATM   31  N8  UNL     1      16.074   4.214   8.939  1.00  0.00    -0.064 NA
ATOM     32  H72 UNL     1      16.852   2.371  11.512  1.00  0.00     0.158 HD
ATOM     33  H71 UNL     1      16.026   1.972   9.941  1.00  0.00     0.158 HD
ATOM     34  H6  UNL     1      18.227   4.801  11.103  1.00  0.00     0.162 HD
ENDBRANCH  27  28
ENDBRANCH  26  27
BRANCH   1  35
HETATM   35  C3  UNL     1      18.216   4.038  14.703  1.00  0.00     0.042 C
BRANCH  35  36
HETATM   36  C2  UNL     1      19.669   4.068  14.434  1.00  0.00    -0.036 C
HETATM   37  C1  UNL     1      20.202   4.707  13.460  1.00  0.00     0.007 C
ENDBRANCH  35  36
ENDBRANCH   1  35
BRANCH  21  38
HETATM   38  C25 UNL     1      12.114   6.629  12.155  1.00  0.00     0.038 C
BRANCH  38  39
HETATM   39  C26 UNL     1      12.169   6.589  10.677  1.00  0.00    -0.020 C
HETATM   40  C27 UNL     1      12.341   5.188  10.131  1.00  0.00     0.009 C
HETATM   41  C28 UNL     1      13.453   7.345  10.252  1.00  0.00     0.009 C
ENDBRANCH  38  39
ENDBRANCH  21  38
BRANCH   6  42
HETATM   42  C7  UNL     1      18.811   8.642  14.667  1.00  0.00     0.009 C
HETATM   43  C8  UNL     1      18.882   8.258  13.181  1.00  0.00     0.012 C
HETATM   44  C9  UNL     1      19.446   9.974  14.853  1.00  0.00     0.012 C
ENDBRANCH   6  42
BRANCH  16  45
HETATM   45  C19 UNL     1      11.952  11.080  12.676  1.00  0.00     0.038 C
BRANCH  45  46
HETATM   46  C20 UNL     1      12.205  12.515  12.422  1.00  0.00    -0.020 C
HETATM   47  C21 UNL     1      11.165  13.060  11.406  1.00  0.00     0.009 C
HETATM   48  C22 UNL     1      11.909  13.333  13.677  1.00  0.00     0.009 C
ENDBRANCH  45  46
ENDBRANCH  16  45
BRANCH  11  49
HETATM   49  C13 UNL     1      14.157  11.823  16.218  1.00  0.00     0.039 C
BRANCH  49  50
HETATM   50  C14 UNL     1      13.439  11.260  17.351  1.00  0.00    -0.020 C
HETATM   51  C15 UNL     1      12.072  12.001  17.419  1.00  0.00     0.009 C
HETATM   52  C16 UNL     1      13.968  11.320  18.723  1.00  0.00     0.009 C
ENDBRANCH  49  50
ENDBRANCH  11  49
TORSDOF 11
ENDMDL