MODEL 3
REMARK VINA RESULT: -9.023622597      1.759      2.889
REMARK  14 active torsions:
REMARK  status: ('A' for Active; 'I' for Inactive)
REMARK    1  A    between atoms: C3_3  and  C4_4
REMARK    2  A    between atoms: C4_4  and  N1_5
REMARK    3  A    between atoms: C5_7  and  C6_8
REMARK    4  A    between atoms: C5_7  and  N8_41
REMARK    5  A    between atoms: C6_8  and  C7_9
REMARK    6  A    between atoms: C6_8  and  N5_19
REMARK    7  A    between atoms: C7_9  and  C8_10
REMARK    8  A    between atoms: C8_10  and  C9_11
REMARK    9  A    between atoms: C9_11  and  N2_12
REMARK       I    between atoms: N2_12  and  C10_14
REMARK       I    between atoms: N5_19  and  C11_21
REMARK   10  A    between atoms: C11_21  and  C12_23
REMARK   11  A    between atoms: C13_24  and  C14_25
REMARK   12  A    between atoms: C14_25  and  C15_29
REMARK       I    between atoms: C15_29  and  N7_31
REMARK   13  A    between atoms: C28_45  and  C29_46
REMARK       I    between atoms: C29_46  and  N9_48
REMARK   14  A    between atoms: N9_48  and  N10_50
ROOT
HETATM    1  C1  UNL     1      18.105   4.832  12.325  1.00  0.00     0.112 C
HETATM    2  C2  UNL     1      17.172   4.573  11.235  1.00  0.00    -0.109 C
HETATM    3  C3  UNL     1      16.407   4.380  10.329  1.00  0.00    -0.087 C
ENDROOT
BRANCH   3   4
HETATM    4  C4  UNL     1      15.478   4.160   9.198  1.00  0.00     0.215 C
BRANCH   4   5
HETATM    5  N1  UNL     1      14.948   2.855   9.295  1.00  0.00    -0.368 N
HETATM    6  C5  UNL     1      13.806   2.387   9.023  1.00  0.00     0.100 C
ATOM      7  H1  UNL     1      15.608   2.162   9.650  1.00  0.00     0.161 HD
BRANCH   6   8
HETATM    8  C6  UNL     1      13.580   0.919   9.252  1.00  0.00     0.151 C
BRANCH   8   9
HETATM    9  C7  UNL     1      14.910   0.330   9.647  1.00  0.00     0.034 C
BRANCH   9  10
HETATM   10  C8  UNL     1      15.310  -0.822   8.752  1.00  0.00     0.022 C
BRANCH  10  11
HETATM   11  C9  UNL     1      16.546  -0.473   7.956  1.00  0.00     0.122 C
BRANCH  11  12
HETATM   12  N2  UNL     1      17.118   0.788   8.358  1.00  0.00    -0.365 N
HETATM   13  C10 UNL     1      18.367   0.842   8.984  1.00  0.00     0.181 C
HETATM   14  N3  UNL     1      19.091  -0.237   9.126  1.00  0.00    -0.374 N
HETATM   15  N4  UNL     1      18.867   2.070   9.473  1.00  0.00    -0.064 NA
ATOM     16  H32 UNL     1      18.730  -1.124   8.773  1.00  0.00     0.158 HD
ATOM     17  H31 UNL     1      20.002  -0.198   9.582  1.00  0.00     0.158 HD
ATOM     18  H2  UNL     1      16.605   1.652   8.185  1.00  0.00     0.162 HD
ENDBRANCH  11  12
ENDBRANCH  10  11
ENDBRANCH   9  10
ENDBRANCH   8   9
BRANCH   8  19
HETATM   19  N5  UNL     1      13.072   0.305   8.041  1.00  0.00    -0.349 N
HETATM   20  C11 UNL     1      11.901  -0.470   7.990  1.00  0.00     0.223 C
HETATM   21  O1  UNL     1      11.223  -0.666   9.011  1.00  0.00    -0.273 OA
ATOM     22  H5  UNL     1      13.595   0.442   7.176  1.00  0.00     0.163 HD
BRANCH  20  23
HETATM   23  C12 UNL     1      11.432  -1.087   6.684  1.00  0.00     0.092 C
HETATM   24  C13 UNL     1       9.967  -1.173   6.623  1.00  0.00     0.054 C
HETATM   25  C21 UNL     1       9.598  -2.593   6.999  1.00  0.00     0.017 C
HETATM   26  C22 UNL     1      10.853  -3.414   6.878  1.00  0.00    -0.009 A
HETATM   27  C23 UNL     1      11.646  -3.442   5.641  1.00  0.00     0.011 A
HETATM   28  C24 UNL     1      11.990  -2.497   6.731  1.00  0.00     0.004 A
BRANCH  24  29
HETATM   29  C14 UNL     1       9.288  -0.730   5.394  1.00  0.00     0.076 C
HETATM   30  N6  UNL     1       9.817   0.079   4.598  1.00  0.00    -0.398 N
ATOM     31  H62 UNL     1      10.744   0.432   4.838  1.00  0.00     0.156 HD
ATOM     32  H61 UNL     1       9.347   0.386   3.746  1.00  0.00     0.156 HD
BRANCH  29  33
HETATM   33  C15 UNL     1       7.951  -1.240   5.048  1.00  0.00     0.266 C
HETATM   34  O2  UNL     1       7.946  -2.313   4.351  1.00  0.00    -0.266 OA
HETATM   35  N7  UNL     1       6.719  -0.689   5.393  1.00  0.00    -0.347 N
HETATM   36  C16 UNL     1       6.641   0.524   6.180  1.00  0.00     0.126 C
HETATM   37  C20 UNL     1       5.500  -1.364   4.943  1.00  0.00     0.126 C
HETATM   38  C17 UNL     1       5.155   0.828   6.389  1.00  0.00     0.020 C
HETATM   39  C18 UNL     1       4.545   0.948   5.009  1.00  0.00     0.003 C
HETATM   40  C19 UNL     1       4.498  -0.411   4.344  1.00  0.00     0.020 C
ENDBRANCH  29  33
ENDBRANCH  24  29
ENDBRANCH  20  23
ENDBRANCH   8  19
ENDBRANCH   6   8
BRANCH   6  41
HETATM   41  N8  UNL     1      12.778   3.207   8.519  1.00  0.00    -0.356 N
HETATM   42  C25 UNL     1      12.300   3.072   7.124  1.00  0.00     0.125 C
HETATM   43  C26 UNL     1      10.799   3.189   7.292  1.00  0.00     0.022 C
HETATM   44  C27 UNL     1      10.573   3.922   8.573  1.00  0.00     0.037 C
HETATM   45  C28 UNL     1      11.986   4.266   9.052  1.00  0.00     0.179 C
BRANCH  45  46
HETATM   46  C29 UNL     1      12.025   4.436  10.506  1.00  0.00     0.264 C
HETATM   47  O3  UNL     1      11.416   3.622  11.275  1.00  0.00    -0.269 OA
HETATM   48  N9  UNL     1      12.755   5.525  11.054  1.00  0.00    -0.184 N
ATOM     49  H9  UNL     1      13.231   6.158  10.412  1.00  0.00     0.197 HD
BRANCH  48  50
HETATM   50  N10 UNL     1      12.855   5.774  12.419  1.00  0.00     0.003 N
HETATM   51  C30 UNL     1      12.245   4.724  13.213  1.00  0.00     0.301 C
HETATM   52  C31 UNL     1      14.249   5.844  12.827  1.00  0.00     0.301 C
HETATM   53  C32 UNL     1      12.189   7.019  12.736  1.00  0.00     0.301 C
ENDBRANCH  48  50
ENDBRANCH  45  46
ENDBRANCH   6  41
ENDBRANCH   4   5
ENDBRANCH   3   4
TORSDOF 14
ENDMDL