MODEL 5
REMARK VINA RESULT: -8.338445883      3.562      6.302
REMARK  12 active torsions:
REMARK  status: ('A' for Active; 'I' for Inactive)
REMARK    1  A    between atoms: C2_2  and  C3_3
REMARK    2  A    between atoms: N1_5  and  C5_6
REMARK    3  A    between atoms: C7_8  and  C8_9
REMARK    4  A    between atoms: C8_9  and  N2_10
REMARK       I    between atoms: N2_10  and  C9_12
REMARK       I    between atoms: C9_12  and  N3_14
REMARK    5  A    between atoms: C18_27  and  C19_28
REMARK    6  A    between atoms: C22_32  and  C23_33
REMARK    7  A    between atoms: C23_33  and  N5_34
REMARK       I    between atoms: N5_34  and  C24_36
REMARK       I    between atoms: C24_36  and  N6_38
REMARK    8  A    between atoms: N6_38  and  C25_40
REMARK    9  A    between atoms: C25_40  and  C26_41
REMARK   10  A    between atoms: C26_41  and  C27_42
REMARK   11  A    between atoms: C27_42  and  C28_43
REMARK   12  A    between atoms: C28_43  and  N7_44
REMARK       I    between atoms: N7_44  and  C29_46
ROOT
HETATM    1  C3  UNL     1      11.298   1.071   7.107  1.00  0.00     0.053 C
HETATM    2  C4  UNL     1      10.665   2.399   6.961  1.00  0.00     0.067 C
HETATM    3  N1  UNL     1      11.275   3.318   7.564  1.00  0.00    -0.386 N
HETATM    4  C7  UNL     1      12.411   2.818   8.238  1.00  0.00     0.107 C
HETATM    5  C22 UNL     1      12.596   1.426   7.767  1.00  0.00     0.040 C
ENDROOT
BRANCH   4   6
HETATM    6  C8  UNL     1      12.095   2.913   9.716  1.00  0.00     0.150 C
BRANCH   6   7
HETATM    7  N2  UNL     1      12.892   3.825  10.464  1.00  0.00    -0.340 N
HETATM    8  C9  UNL     1      12.434   5.011  11.063  1.00  0.00     0.333 C
HETATM    9  O1  UNL     1      11.197   5.261  10.906  1.00  0.00    -0.246 OA
HETATM   10  N3  UNL     1      13.218   5.934  11.810  1.00  0.00    -0.182 N
HETATM   11  C10 UNL     1      12.723   7.131  12.388  1.00  0.00     0.260 A
HETATM   12  C21 UNL     1      14.596   5.902  12.142  1.00  0.00     0.337 A
HETATM   13  O2  UNL     1      11.535   7.535  12.234  1.00  0.00    -0.270 OA
HETATM   14  C11 UNL     1      13.782   7.799  13.165  1.00  0.00     0.192 A
HETATM   15  N4  UNL     1      14.954   7.047  12.906  1.00  0.00    -0.308 N
HETATM   16  C18 UNL     1      13.384   7.806  14.638  1.00  0.00     0.001 A
HETATM   17  C12 UNL     1      16.364   7.226  13.255  1.00  0.00     0.237 C
HETATM   18  S1  UNL     1      16.567   7.945  14.846  1.00  0.00     0.033 S
HETATM   19  O3  UNL     1      16.303   6.845  16.092  1.00  0.00    -0.256 OA
HETATM   20  C13 UNL     1      15.400   9.303  14.946  1.00  0.00     0.116 C
HETATM   21  C14 UNL     1      14.136   8.696  15.495  1.00  0.00     0.018 A
HETATM   22  C15 UNL     1      12.794   9.152  15.053  1.00  0.00    -0.032 A
HETATM   23  C16 UNL     1      12.689  10.282  14.050  1.00  0.00     0.016 C
HETATM   24  C17 UNL     1      11.704   9.199  16.110  1.00  0.00     0.016 C
HETATM   25  O4  UNL     1      15.416   4.970  11.802  1.00  0.00    -0.246 OA
ATOM     26  H2  UNL     1      13.880   3.598  10.574  1.00  0.00     0.164 HD
BRANCH  16  27
HETATM   27  C19 UNL     1      12.763   6.537  15.050  1.00  0.00     0.009 C
HETATM   28  C20 UNL     1      13.499   5.566  15.867  1.00  0.00     0.006 C
ENDBRANCH  16  27
ENDBRANCH   6   7
ENDBRANCH   4   6
BRANCH   3  29
HETATM   29  C5  UNL     1      10.848   4.691   7.566  1.00  0.00     0.118 C
HETATM   30  C6  UNL     1      12.031   5.613   7.477  1.00  0.00     0.026 C
ENDBRANCH   3  29
BRANCH   5  31
HETATM   31  C23 UNL     1      13.754   1.324   6.811  1.00  0.00     0.132 C
BRANCH  31  32
HETATM   32  N5  UNL     1      14.585   0.153   7.018  1.00  0.00    -0.343 N
HETATM   33  C24 UNL     1      15.110  -0.150   8.297  1.00  0.00     0.316 C
HETATM   34  O5  UNL     1      14.840   0.617   9.249  1.00  0.00    -0.247 OA
HETATM   35  N6  UNL     1      15.913  -1.287   8.483  1.00  0.00    -0.343 N
ATOM     36  H6  UNL     1      16.124  -1.898   7.694  1.00  0.00     0.164 HD
ATOM     37  H5  UNL     1      14.794  -0.460   6.230  1.00  0.00     0.164 HD
BRANCH  35  38
HETATM   38  C25 UNL     1      16.438  -1.589   9.787  1.00  0.00     0.124 C
BRANCH  38  39
HETATM   39  C26 UNL     1      17.855  -1.171  10.001  1.00  0.00     0.021 C
BRANCH  39  40
HETATM   40  C27 UNL     1      18.449  -0.379   8.865  1.00  0.00     0.021 C
BRANCH  40  41
HETATM   41  C28 UNL     1      18.634   1.046   9.376  1.00  0.00     0.122 C
BRANCH  41  42
HETATM   42  N7  UNL     1      17.752   1.945   8.655  1.00  0.00    -0.365 N
HETATM   43  C29 UNL     1      16.951   2.842   9.389  1.00  0.00     0.181 C
HETATM   44  N8  UNL     1      16.711   2.627  10.636  1.00  0.00    -0.374 N
HETATM   45  N9  UNL     1      16.411   3.980   8.750  1.00  0.00    -0.064 NA
ATOM     46  H82 UNL     1      17.101   1.805  11.098  1.00  0.00     0.158 HD
ATOM     47  H81 UNL     1      16.130   3.276  11.168  1.00  0.00     0.158 HD
ATOM     48  H7  UNL     1      17.713   1.928   7.636  1.00  0.00     0.162 HD
ENDBRANCH  41  42
ENDBRANCH  40  41
ENDBRANCH  39  40
ENDBRANCH  38  39
ENDBRANCH  35  38
ENDBRANCH  31  32
ENDBRANCH   5  31
BRANCH   1  49
HETATM   49  C2  UNL     1      10.509   0.143   7.967  1.00  0.00    -0.026 C
HETATM   50  C1  UNL     1      11.114  -0.653   8.826  1.00  0.00     0.007 C
ENDBRANCH   1  49
TORSDOF 12
ENDMDL