MODEL 5
REMARK VINA RESULT: -7.450614912      2.462      5.778
REMARK  12 active torsions:
REMARK  status: ('A' for Active; 'I' for Inactive)
REMARK    1  A    between atoms: C2_2  and  C4_4
REMARK    2  A    between atoms: C4_4  and  C5_5
REMARK    3  A    between atoms: C6_6  and  O1_7
REMARK    4  A    between atoms: C14_24  and  C15_25
REMARK    5  A    between atoms: C15_25  and  C16_26
REMARK    6  A    between atoms: C18_33  and  C19_34
REMARK    7  A    between atoms: C19_34  and  C21_36
REMARK    8  A    between atoms: C21_36  and  C22_37
REMARK    9  A    between atoms: C22_37  and  C23_38
REMARK   10  A    between atoms: C23_38  and  C24_39
REMARK   11  A    between atoms: C24_39  and  N5_40
REMARK   12  A    between atoms: C30_46  and  O7_47
ROOT
HETATM    1  C5  UNL     1      16.076   2.170  10.009  1.00  0.00     0.083 C
HETATM    2  C6  UNL     1      16.310   3.575   9.690  1.00  0.00     0.164 C
HETATM    3  N1  UNL     1      16.224   4.703  10.535  1.00  0.00    -0.352 N
ATOM      4  H1  UNL     1      15.742   5.475  10.075  1.00  0.00     0.163 HD
HETATM    5  C7  UNL     1      16.615   5.048  11.822  1.00  0.00     0.105 C
HETATM    6  C8  UNL     1      17.907   5.918  11.827  1.00  0.00     0.048 C
HETATM    7  C9  UNL     1      16.896   3.994  12.845  1.00  0.00     0.048 C
HETATM    8  C10 UNL     1      15.564   5.933  12.472  1.00  0.00     0.246 C
HETATM    9  O2  UNL     1      15.929   6.625  13.487  1.00  0.00    -0.271 OA
HETATM   10  N2  UNL     1      14.241   6.061  12.063  1.00  0.00    -0.346 N
ATOM     11  H2  UNL     1      13.903   7.016  11.947  1.00  0.00     0.163 HD
HETATM   12  C11 UNL     1      13.282   5.013  11.780  1.00  0.00     0.172 C
HETATM   13  C12 UNL     1      12.871   4.308  13.086  1.00  0.00     0.042 C
HETATM   14  C13 UNL     1      12.042   5.570  11.181  1.00  0.00     0.240 C
HETATM   15  O3  UNL     1      11.298   6.375  11.841  1.00  0.00    -0.271 OA
HETATM   16  N3  UNL     1      11.596   5.256   9.852  1.00  0.00    -0.346 N
ATOM     17  H3  UNL     1      10.603   5.132   9.653  1.00  0.00     0.163 HD
HETATM   18  C14 UNL     1      12.580   5.119   8.799  1.00  0.00     0.186 C
HETATM   19  C17 UNL     1      12.200   4.152   7.743  1.00  0.00     0.241 C
HETATM   20  O6  UNL     1      10.926   4.117   7.567  1.00  0.00    -0.271 OA
HETATM   21  N4  UNL     1      12.985   3.334   6.963  1.00  0.00    -0.344 N
ATOM     22  H4  UNL     1      13.026   3.598   5.979  1.00  0.00     0.163 HD
HETATM   23  C18 UNL     1      13.781   2.136   7.313  1.00  0.00     0.188 C
HETATM   24  C30 UNL     1      13.793   1.875   8.736  1.00  0.00     0.145 C
HETATM   25  N6  UNL     1      14.778   1.609   9.680  1.00  0.00    -0.330 N
HETATM   26  C31 UNL     1      14.421   0.483  10.607  1.00  0.00     0.158 C
ENDROOT
BRANCH  23  27
HETATM   27  C19 UNL     1      13.304   1.084   6.362  1.00  0.00    -0.057 C
HETATM   28  C20 UNL     1      12.221   1.544   5.414  1.00  0.00     0.046 C
BRANCH  27  29
HETATM   29  C21 UNL     1      13.122  -0.294   6.768  1.00  0.00    -0.022 C
BRANCH  29  30
HETATM   30  C22 UNL     1      12.501  -1.321   5.934  1.00  0.00     0.029 C
BRANCH  30  31
HETATM   31  C23 UNL     1      11.336  -2.081   6.425  1.00  0.00     0.032 C
BRANCH  31  32
HETATM   32  C24 UNL     1      10.088  -2.037   5.633  1.00  0.00     0.237 C
BRANCH  32  33
HETATM   33  N5  UNL     1       9.154  -1.052   6.145  1.00  0.00    -0.071 N
HETATM   34  C25 UNL     1       7.841  -1.695   6.236  1.00  0.00     0.272 C
HETATM   35  C26 UNL     1       9.523  -0.492   7.399  1.00  0.00     0.237 C
HETATM   36  C27 UNL     1       9.205   0.996   7.340  1.00  0.00     0.029 C
HETATM   37  C28 UNL     1       8.645   1.265   5.967  1.00  0.00     0.029 C
HETATM   38  C29 UNL     1       9.033   0.027   5.203  1.00  0.00     0.237 C
ENDBRANCH  32  33
ENDBRANCH  31  32
ENDBRANCH  30  31
ENDBRANCH  29  30
ENDBRANCH  27  29
ENDBRANCH  23  27
BRANCH  24  39
HETATM   39  O7  UNL     1      12.561   1.902   9.233  1.00  0.00    -0.347 OA
ATOM     40  H7  UNL     1      12.286   2.794   9.406  1.00  0.00     0.219 HD
ENDBRANCH  24  39
BRANCH  18  41
HETATM   41  C15 UNL     1      12.753   6.536   8.224  1.00  0.00     0.147 C
BRANCH  41  42
HETATM   42  C16 UNL     1      14.122   7.040   8.351  1.00  0.00     0.175 C
HETATM   43  O4  UNL     1      14.782   6.909   9.413  1.00  0.00    -0.648 OA
HETATM   44  O5  UNL     1      14.776   7.697   7.302  1.00  0.00    -0.648 OA
ENDBRANCH  41  42
ENDBRANCH  18  41
BRANCH   1  45
HETATM   45  C4  UNL     1      17.169   1.197  10.006  1.00  0.00     0.011 C
BRANCH  45  46
HETATM   46  C2  UNL     1      17.841   0.612   8.875  1.00  0.00     0.002 C
HETATM   47  C1  UNL     1      18.939  -0.374   9.122  1.00  0.00     0.013 C
HETATM   48  C3  UNL     1      16.813  -0.149   7.992  1.00  0.00     0.013 C
ENDBRANCH  45  46
ENDBRANCH   1  45
BRANCH   2  49
HETATM   49  O1  UNL     1      16.636   3.818   8.453  1.00  0.00    -0.345 OA
ATOM     50  H1  UNL     1      16.868   4.720   8.264  1.00  0.00     0.219 HD
ENDBRANCH   2  49
TORSDOF 12
ENDMDL