MODEL 2
REMARK VINA RESULT: -7.067609598      4.623      8.138
REMARK  13 active torsions:
REMARK  status: ('A' for Active; 'I' for Inactive)
REMARK    1  A    between atoms: C2_2  and  C3_3
REMARK    2  A    between atoms: C3_3  and  C4_4
REMARK    3  A    between atoms: C6_11  and  C7_12
REMARK    4  A    between atoms: C7_12  and  C8_13
REMARK    5  A    between atoms: C8_13  and  N3_14
REMARK    6  A    between atoms: N3_14  and  C11_17
REMARK    7  A    between atoms: C11_17  and  C12_18
REMARK    8  A    between atoms: C12_18  and  N4_19
REMARK    9  A    between atoms: C17_27  and  C18_28
REMARK   10  A    between atoms: C18_28  and  C19_29
REMARK   11  A    between atoms: C23_36  and  C24_37
REMARK   12  A    between atoms: C24_37  and  C25_38
REMARK   13  A    between atoms: C28_43  and  O4_44
ROOT
HETATM    1  C4  UNL     1      19.808   7.056  11.934  1.00  0.00     0.194 C
HETATM    2  N1  UNL     1      19.239   5.824  11.525  1.00  0.00    -0.320 N
ATOM      3  H1  UNL     1      19.438   5.431  10.605  1.00  0.00     0.181 HD
HETATM    4  N2  UNL     1      18.415   5.181  12.405  1.00  0.00    -0.272 N
ATOM      5  H2  UNL     1      18.617   5.333  13.393  1.00  0.00     0.189 HD
HETATM    6  C5  UNL     1      17.326   4.338  12.128  1.00  0.00     0.258 C
HETATM    7  O1  UNL     1      17.176   3.371  12.967  1.00  0.00    -0.269 OA
HETATM    8  C6  UNL     1      16.363   4.408  11.037  1.00  0.00     0.180 C
HETATM    9  N5  UNL     1      15.855   5.702  10.698  1.00  0.00    -0.342 N
ATOM     10  H5  UNL     1      16.369   6.224   9.987  1.00  0.00     0.163 HD
HETATM   11  C16 UNL     1      14.711   6.334  11.250  1.00  0.00     0.268 C
HETATM   12  O2  UNL     1      14.282   7.344  10.637  1.00  0.00    -0.266 OA
HETATM   13  C17 UNL     1      14.007   5.907  12.462  1.00  0.00     0.099 C
HETATM   14  N6  UNL     1      13.807   6.938  13.463  1.00  0.00    -0.321 N
ATOM     15  H6  UNL     1      12.890   6.887  13.907  1.00  0.00     0.169 HD
HETATM   16  C22 UNL     1      14.570   7.956  13.938  1.00  0.00     0.245 C
HETATM   17  O3  UNL     1      14.131   9.163  13.751  1.00  0.00    -0.271 OA
HETATM   18  C23 UNL     1      15.903   7.975  14.684  1.00  0.00     0.176 C
HETATM   19  N7  UNL     1      16.928   8.299  13.716  1.00  0.00    -0.359 N
ATOM     20  H7  UNL     1      16.909   7.642  12.936  1.00  0.00     0.162 HD
HETATM   21  C28 UNL     1      17.915   9.228  13.543  1.00  0.00     0.135 C
HETATM   22  C29 UNL     1      19.279   9.422  14.076  1.00  0.00     0.155 C
HETATM   23  C30 UNL     1      19.274  10.291  15.315  1.00  0.00     0.041 C
HETATM   24  N8  UNL     1      20.087   8.241  14.214  1.00  0.00    -0.348 N
ATOM     25  H8  UNL     1      20.616   8.167  15.082  1.00  0.00     0.163 HD
HETATM   26  C31 UNL     1      20.245   7.182  13.319  1.00  0.00     0.242 C
HETATM   27  O5  UNL     1      20.874   6.154  13.780  1.00  0.00    -0.271 OA
ENDROOT
BRANCH   8  28
HETATM   28  C7  UNL     1      17.048   3.803   9.799  1.00  0.00     0.063 C
BRANCH  28  29
HETATM   29  C8  UNL     1      16.035   2.951   9.032  1.00  0.00     0.239 C
BRANCH  29  30
HETATM   30  N3  UNL     1      16.414   1.555   9.056  1.00  0.00    -0.073 N
HETATM   31  C9  UNL     1      17.825   1.452   8.700  1.00  0.00     0.272 C
HETATM   32  C10 UNL     1      16.151   0.940  10.339  1.00  0.00     0.272 C
BRANCH  30  33
HETATM   33  C11 UNL     1      15.659   0.923   7.992  1.00  0.00     0.264 C
BRANCH  33  34
HETATM   34  C12 UNL     1      14.520   0.098   8.548  1.00  0.00     0.264 C
BRANCH  34  35
HETATM   35  N4  UNL     1      13.331   0.238   7.729  1.00  0.00    -0.077 N
HETATM   36  C13 UNL     1      13.209  -0.866   6.823  1.00  0.00     0.271 C
HETATM   37  C14 UNL     1      12.189   0.278   8.618  1.00  0.00     0.271 C
HETATM   38  C15 UNL     1      13.342   1.484   6.983  1.00  0.00     0.271 C
ENDBRANCH  34  35
ENDBRANCH  33  34
ENDBRANCH  30  33
ENDBRANCH  29  30
ENDBRANCH  28  29
ENDBRANCH   8  28
BRANCH  13  39
HETATM   39  C18 UNL     1      12.852   5.004  12.297  1.00  0.00     0.012 C
BRANCH  39  40
HETATM   40  C19 UNL     1      12.199   4.773  11.017  1.00  0.00     0.002 C
HETATM   41  C20 UNL     1      10.723   4.713  10.930  1.00  0.00     0.013 C
HETATM   42  C21 UNL     1      12.723   3.524  10.280  1.00  0.00     0.013 C
ENDBRANCH  39  40
ENDBRANCH  13  39
BRANCH   1  43
HETATM   43  C3  UNL     1      21.086   7.232  11.080  1.00  0.00     0.062 C
BRANCH  43  44
HETATM   44  C2  UNL     1      21.295   8.636  10.693  1.00  0.00    -0.034 C
HETATM   45  C1  UNL     1      20.265   9.402  10.395  1.00  0.00     0.007 C
ENDBRANCH  43  44
ENDBRANCH   1  43
BRANCH  18  46
HETATM   46  C24 UNL     1      16.068   6.695  15.430  1.00  0.00     0.038 C
BRANCH  46  47
HETATM   47  C25 UNL     1      17.485   6.291  15.754  1.00  0.00    -0.020 C
HETATM   48  C26 UNL     1      17.990   6.955  17.010  1.00  0.00     0.009 C
HETATM   49  C27 UNL     1      17.386   4.788  16.112  1.00  0.00     0.009 C
ENDBRANCH  46  47
ENDBRANCH  18  46
BRANCH  21  50
HETATM   50  O4  UNL     1      17.620  10.198  12.704  1.00  0.00    -0.348 OA
ATOM     51  H4  UNL     1      18.086  11.013  12.855  1.00  0.00     0.219 HD
ENDBRANCH  21  50
TORSDOF 13
ENDMDL