MODEL 1
REMARK VINA RESULT: -10.968251632      0.000      0.000
REMARK  11 active torsions:
REMARK  status: ('A' for Active; 'I' for Inactive)
REMARK    1  A    between atoms: C2_2  and  C3_4
REMARK    2  A    between atoms: C3_4  and  C4_5
REMARK    3  A    between atoms: C4_5  and  C5_6
REMARK    4  A    between atoms: C5_6  and  N1_7
REMARK    5  A    between atoms: C5_6  and  C19_36
REMARK       I    between atoms: N1_7  and  C6_9
REMARK    6  A    between atoms: C6_9  and  C7_11
REMARK    7  A    between atoms: C7_11  and  C8_12
REMARK    8  A    between atoms: C8_12  and  N2_13
REMARK       I    between atoms: N2_13  and  C9_15
REMARK       I    between atoms: N4_17  and  C10_19
REMARK       I    between atoms: C10_19  and  N5_20
REMARK       I    between atoms: N8_25  and  C12_27
REMARK       I    between atoms: C12_27  and  N9_29
REMARK       I    between atoms: C19_36  and  N10_38
REMARK    9  A    between atoms: N10_38  and  C20_40
REMARK   10  A    between atoms: C20_40  and  C21_41
REMARK   11  A    between atoms: C20_40  and  C27_49
REMARK       I    between atoms: C21_41  and  N11_43
ROOT
HETATM    1  N1  UNL     1       8.517   1.108   6.821  1.00  0.00    -0.326 N
ATOM      2  H1  UNL     1       8.083   1.902   6.352  1.00  0.00     0.168 HD
HETATM    3  C6  UNL     1       9.760   1.392   7.397  1.00  0.00     0.223 C
HETATM    4  O2  UNL     1      10.477   0.598   8.043  1.00  0.00    -0.273 OA
ENDROOT
BRANCH   3   5
HETATM    5  C7  UNL     1      10.311   2.801   7.228  1.00  0.00     0.122 C
BRANCH   5   6
HETATM    6  C8  UNL     1      11.788   2.754   6.943  1.00  0.00     0.131 C
BRANCH   6   7
HETATM    7  N2  UNL     1      12.475   3.895   7.530  1.00  0.00    -0.364 N
HETATM    8  C9  UNL     1      13.011   3.745   8.821  1.00  0.00     0.202 C
HETATM    9  N3  UNL     1      12.456   2.794   9.709  1.00  0.00    -0.063 NA
HETATM   10  N4  UNL     1      14.003   4.469   9.199  1.00  0.00    -0.163 N
HETATM   11  C10 UNL     1      14.565   4.336  10.508  1.00  0.00     0.690 C
ATOM     12  H4  UNL     1      14.397   5.153   8.553  1.00  0.00     0.187 HD
HETATM   13  N5  UNL     1      13.938   4.966  11.623  1.00  0.00    -0.165 N
HETATM   14  N8  UNL     1      15.631   3.650  10.657  1.00  0.00    -0.141 N
HETATM   15  C11 UNL     1      13.934   6.232  11.717  1.00  0.00     0.215 C
ATOM     16  H5  UNL     1      13.492   4.399  12.343  1.00  0.00     0.186 HD
HETATM   17  N6  UNL     1      13.296   6.823  12.844  1.00  0.00    -0.066 NA
HETATM   18  N7  UNL     1      14.532   7.074  10.759  1.00  0.00    -0.066 NA
HETATM   19  C12 UNL     1      16.265   3.021   9.570  1.00  0.00     0.336 C
ATOM     20  H8  UNL     1      16.034   3.556  11.590  1.00  0.00     0.189 HD
HETATM   21  O3  UNL     1      16.766   3.724   8.665  1.00  0.00    -0.246 OA
HETATM   22  N9  UNL     1      16.348   1.609   9.481  1.00  0.00    -0.334 N
HETATM   23  C13 UNL     1      15.776   0.747  10.497  1.00  0.00     0.128 C
HETATM   24  C18 UNL     1      17.019   0.946   8.368  1.00  0.00     0.128 C
HETATM   25  C14 UNL     1      15.414  -0.578   9.868  1.00  0.00     0.024 C
HETATM   26  C15 UNL     1      16.675  -1.292   9.417  1.00  0.00    -0.015 C
HETATM   27  C16 UNL     1      17.252  -2.015  10.616  1.00  0.00     0.010 C
HETATM   28  C17 UNL     1      17.697  -0.327   8.861  1.00  0.00     0.024 C
ATOM     29  H2  UNL     1      12.566   4.775   7.021  1.00  0.00     0.162 HD
ENDBRANCH   6   7
ENDBRANCH   5   6
ENDBRANCH   3   5
BRANCH   1  30
HETATM   30  C5  UNL     1       7.753  -0.087   6.773  1.00  0.00     0.080 C
BRANCH  30  31
HETATM   31  C4  UNL     1       6.256   0.055   6.761  1.00  0.00     0.070 C
BRANCH  31  32
HETATM   32  C3  UNL     1       5.777   0.985   5.683  1.00  0.00     0.084 C
BRANCH  32  33
HETATM   33  C2  UNL     1       4.828   0.261   4.803  1.00  0.00     0.123 C
HETATM   34  C1  UNL     1       3.380   0.328   5.034  1.00  0.00     0.091 C
HETATM   35  O1  UNL     1       5.278  -0.392   3.880  1.00  0.00    -0.298 OA
ENDBRANCH  32  33
ENDBRANCH  31  32
ENDBRANCH  30  31
BRANCH  30  36
HETATM   36  C19 UNL     1       8.292  -1.148   5.903  1.00  0.00     0.264 C
HETATM   37  O4  UNL     1       8.473  -0.837   4.711  1.00  0.00    -0.266 OA
HETATM   38  N10 UNL     1       8.584  -2.418   6.395  1.00  0.00    -0.342 N
ATOM     39  H10 UNL     1       8.393  -2.529   7.390  1.00  0.00     0.163 HD
BRANCH  38  40
HETATM   40  C20 UNL     1       9.098  -3.586   5.775  1.00  0.00     0.180 C
BRANCH  40  41
HETATM   41  C21 UNL     1       8.237  -4.373   4.908  1.00  0.00     0.243 C
HETATM   42  O5  UNL     1       7.590  -3.984   3.901  1.00  0.00    -0.271 OA
HETATM   43  N11 UNL     1       8.066  -5.781   5.198  1.00  0.00    -0.350 N
HETATM   44  C22 UNL     1       8.680  -6.429   6.323  1.00  0.00     0.126 C
HETATM   45  C26 UNL     1       7.242  -6.624   4.335  1.00  0.00     0.126 C
HETATM   46  C23 UNL     1       8.107  -7.865   6.363  1.00  0.00     0.020 C
HETATM   47  C24 UNL     1       8.669  -8.523   5.105  1.00  0.00     0.003 C
HETATM   48  C25 UNL     1       7.891  -7.912   3.953  1.00  0.00     0.020 C
ENDBRANCH  40  41
BRANCH  40  49
HETATM   49  C27 UNL     1      10.407  -3.327   5.049  1.00  0.00     0.009 C
HETATM   50  C28 UNL     1      10.541  -4.178   3.815  1.00  0.00     0.012 C
HETATM   51  C29 UNL     1      11.615  -3.453   5.954  1.00  0.00     0.012 C
ENDBRANCH  40  49
ENDBRANCH  38  40
ENDBRANCH  30  36
ENDBRANCH   1  30
TORSDOF 11
ENDMDL