MODEL 5
REMARK VINA RESULT: -8.813744940      1.771      2.177
REMARK  13 active torsions:
REMARK  status: ('A' for Active; 'I' for Inactive)
REMARK    1  A    between atoms: C3_5  and  C4_6
REMARK       I    between atoms: C4_6  and  N2_8
REMARK    2  A    between atoms: N2_8  and  C5_10
REMARK    3  A    between atoms: C5_10  and  C6_11
REMARK    4  A    between atoms: C5_10  and  C7_14
REMARK    5  A    between atoms: C13_22  and  N4_23
REMARK    6  A    between atoms: N4_23  and  C14_24
REMARK    7  A    between atoms: N4_23  and  C21_36
REMARK    8  A    between atoms: C14_24  and  C15_25
REMARK    9  A    between atoms: C15_25  and  C16_26
REMARK   10  A    between atoms: C16_26  and  N5_27
REMARK       I    between atoms: N5_27  and  C17_29
REMARK       I    between atoms: C17_29  and  N6_31
REMARK   11  A    between atoms: N6_31  and  C18_33
REMARK   12  A    between atoms: C21_36  and  O6_37
REMARK   13  A    between atoms: C21_36  and  C22_39
ROOT
HETATM    1  C1  UNL     1     -11.853  16.113  31.755  1.00  0.00     0.153 C
HETATM    2  N1  UNL     1     -11.773  15.323  30.546  1.00  0.00    -0.347 N
HETATM    3  C2  UNL     1     -12.818  14.420  30.246  1.00  0.00     0.251 C
HETATM    4  O1  UNL     1     -14.022  14.675  30.479  1.00  0.00    -0.270 OA
HETATM    5  C3  UNL     1     -12.454  13.118  29.627  1.00  0.00     0.263 C
HETATM    6  N3  UNL     1     -11.253  13.113  28.891  1.00  0.00    -0.396 N
ATOM      7  H3  UNL     1     -10.970  12.257  28.413  1.00  0.00     0.155 HD
HETATM    8  C11 UNL     1     -10.436  14.239  28.793  1.00  0.00     0.102 C
HETATM    9  C12 UNL     1     -10.599  14.772  27.335  1.00  0.00     0.052 C
HETATM   10  C13 UNL     1     -10.110  16.196  27.479  1.00  0.00     0.090 C
HETATM   11  C30 UNL     1     -10.875  16.619  28.692  1.00  0.00     0.052 C
HETATM   12  C31 UNL     1     -10.672  15.426  29.632  1.00  0.00     0.111 C
ENDROOT
BRANCH  10  13
HETATM   13  N4  UNL     1     -10.000  17.013  26.370  1.00  0.00    -0.360 N
BRANCH  13  14
HETATM   14  C14 UNL     1      -9.519  18.424  26.712  1.00  0.00     0.127 C
BRANCH  14  15
HETATM   15  C15 UNL     1      -8.053  18.531  26.491  1.00  0.00     0.039 C
BRANCH  15  16
HETATM   16  C16 UNL     1      -7.411  19.234  27.661  1.00  0.00     0.126 C
BRANCH  16  17
HETATM   17  N5  UNL     1      -7.837  18.650  28.924  1.00  0.00    -0.343 N
HETATM   18  C17 UNL     1      -7.276  17.434  29.406  1.00  0.00     0.316 C
HETATM   19  O5  UNL     1      -6.385  16.814  28.759  1.00  0.00    -0.247 OA
HETATM   20  N6  UNL     1      -7.726  16.905  30.637  1.00  0.00    -0.339 N
ATOM     21  H6  UNL     1      -8.445  17.392  31.171  1.00  0.00     0.164 HD
ATOM     22  H5  UNL     1      -8.553  19.123  29.475  1.00  0.00     0.164 HD
BRANCH  20  23
HETATM   23  C18 UNL     1      -7.164  15.671  31.136  1.00  0.00     0.086 A
HETATM   24  C19 UNL     1      -6.849  15.570  32.608  1.00  0.00     0.027 A
HETATM   25  C20 UNL     1      -8.016  14.804  32.039  1.00  0.00     0.027 A
ENDBRANCH  20  23
ENDBRANCH  16  17
ENDBRANCH  15  16
ENDBRANCH  14  15
ENDBRANCH  13  14
BRANCH  13  26
HETATM   26  C21 UNL     1     -10.211  16.853  25.015  1.00  0.00     0.123 C
BRANCH  26  27
HETATM   27  O6  UNL     1     -11.400  17.313  24.614  1.00  0.00    -0.349 OA
ATOM     28  H6  UNL     1     -12.001  16.621  24.365  1.00  0.00     0.219 HD
ENDBRANCH  26  27
BRANCH  26  29
HETATM   29  C22 UNL     1      -9.478  16.312  23.879  1.00  0.00     0.028 C
HETATM   30  C23 UNL     1      -8.511  17.332  23.318  1.00  0.00     0.018 C
HETATM   31  C24 UNL     1      -7.566  16.772  22.293  1.00  0.00     0.001 C
HETATM   32  C25 UNL     1      -8.353  16.152  21.177  1.00  0.00     0.000 C
HETATM   33  C26 UNL     1      -9.825  16.399  21.367  1.00  0.00     0.006 C
HETATM   34  C27 UNL     1     -10.380  15.968  22.675  1.00  0.00     0.002 C
HETATM   35  C28 UNL     1     -10.184  14.514  22.911  1.00  0.00     0.007 C
HETATM   36  C29 UNL     1      -9.059  14.890  23.870  1.00  0.00     0.018 C
ENDBRANCH  26  29
ENDBRANCH  13  26
ENDBRANCH  10  13
BRANCH   5  37
HETATM   37  C4  UNL     1     -12.530  12.015  30.631  1.00  0.00     0.250 C
HETATM   38  O2  UNL     1     -11.963  10.904  30.403  1.00  0.00    -0.271 OA
HETATM   39  N2  UNL     1     -13.224  12.148  31.859  1.00  0.00    -0.344 N
ATOM     40  H2  UNL     1     -13.687  13.037  32.051  1.00  0.00     0.163 HD
BRANCH  39  41
HETATM   41  C5  UNL     1     -13.318  11.119  32.847  1.00  0.00     0.193 C
BRANCH  41  42
HETATM   42  C6  UNL     1     -13.287  11.641  34.232  1.00  0.00     0.197 C
HETATM   43  O3  UNL     1     -12.672  10.914  35.088  1.00  0.00    -0.646 OA
HETATM   44  O4  UNL     1     -13.877  12.827  34.578  1.00  0.00    -0.646 OA
ENDBRANCH  41  42
BRANCH  41  45
HETATM   45  C7  UNL     1     -14.687  10.450  32.663  1.00  0.00    -0.021 C
HETATM   46  C8  UNL     1     -14.451   9.053  32.098  1.00  0.00     0.017 C
HETATM   47  C9  UNL     1     -15.420  10.328  33.981  1.00  0.00     0.017 C
HETATM   48  C10 UNL     1     -15.508  11.304  31.738  1.00  0.00     0.017 C
ENDBRANCH  41  45
ENDBRANCH  39  41
ENDBRANCH   5  37
TORSDOF 13
ENDMDL