MODEL 3
REMARK VINA RESULT: -9.363711682      2.255      5.233
REMARK  11 active torsions:
REMARK  status: ('A' for Active; 'I' for Inactive)
REMARK    1  A    between atoms: C6_6  and  C7_7
REMARK    2  A    between atoms: C11_11  and  C12_12
REMARK    3  A    between atoms: C12_12  and  N1_13
REMARK    4  A    between atoms: C12_12  and  C22_32
REMARK       I    between atoms: N1_13  and  C13_15
REMARK    5  A    between atoms: C13_15  and  C14_17
REMARK    6  A    between atoms: C14_17  and  C15_18
REMARK    7  A    between atoms: C14_17  and  N2_22
REMARK    8  A    between atoms: C15_18  and  C16_19
REMARK       I    between atoms: N2_22  and  C19_24
REMARK    9  A    between atoms: C19_24  and  C20_26
REMARK   10  A    between atoms: C20_26  and  N3_28
REMARK       I    between atoms: C22_32  and  N4_34
REMARK   11  A    between atoms: C26_38  and  C27_39
REMARK       I    between atoms: C27_39  and  N5_41
ROOT
HETATM    1  C12 UNL     1      -6.032  16.203  26.495  1.00  0.00     0.181 C
ENDROOT
BRANCH   1   2
HETATM    2  C11 UNL     1      -6.353  16.842  27.810  1.00  0.00     0.018 C
HETATM    3  C10 UNL     1      -5.846  18.237  27.994  1.00  0.00     0.007 C
HETATM    4  C9  UNL     1      -6.918  19.287  27.942  1.00  0.00     0.001 C
HETATM    5  C8  UNL     1      -8.300  18.712  28.410  1.00  0.00     0.009 C
HETATM    6  C7  UNL     1      -7.996  17.703  29.405  1.00  0.00     0.020 C
HETATM    7  C29 UNL     1      -7.647  16.512  28.440  1.00  0.00     0.016 C
BRANCH   6   8
HETATM    8  C6  UNL     1      -8.894  17.195  30.407  1.00  0.00    -0.042 A
HETATM    9  C4  UNL     1      -8.280  16.701  31.579  1.00  0.00    -0.054 A
HETATM   10  C3  UNL     1      -9.093  16.175  32.544  1.00  0.00     0.014 A
HETATM   11  C5  UNL     1      -6.813  16.786  31.770  1.00  0.00     0.049 C
HETATM   12  C2  UNL     1     -10.464  16.115  32.410  1.00  0.00    -0.061 A
HETATM   13  C1  UNL     1     -11.354  15.554  33.447  1.00  0.00     0.048 C
HETATM   14  C32 UNL     1     -11.029  16.609  31.247  1.00  0.00     0.014 A
HETATM   15  C30 UNL     1     -10.243  17.160  30.224  1.00  0.00    -0.054 A
HETATM   16  C31 UNL     1     -10.986  17.631  29.027  1.00  0.00     0.049 C
ENDBRANCH   6   8
ENDBRANCH   1   2
BRANCH   1  17
HETATM   17  N1  UNL     1      -5.579  17.338  25.618  1.00  0.00    -0.346 N
HETATM   18  C13 UNL     1      -4.376  17.245  24.898  1.00  0.00     0.241 C
HETATM   19  O1  UNL     1      -3.700  16.171  25.038  1.00  0.00    -0.271 OA
ATOM     20  H1  UNL     1      -6.150  18.180  25.544  1.00  0.00     0.163 HD
BRANCH  18  21
HETATM   21  C14 UNL     1      -3.870  18.349  23.984  1.00  0.00     0.177 C
BRANCH  21  22
HETATM   22  C15 UNL     1      -4.610  18.295  22.731  1.00  0.00     0.038 C
BRANCH  22  23
HETATM   23  C16 UNL     1      -4.129  17.420  21.631  1.00  0.00    -0.020 C
HETATM   24  C17 UNL     1      -5.199  16.557  21.016  1.00  0.00     0.009 C
HETATM   25  C18 UNL     1      -3.641  18.361  20.514  1.00  0.00     0.009 C
ENDBRANCH  22  23
ENDBRANCH  21  22
BRANCH  21  26
HETATM   26  N2  UNL     1      -2.449  18.378  23.934  1.00  0.00    -0.346 N
HETATM   27  C19 UNL     1      -1.622  19.432  24.311  1.00  0.00     0.248 C
HETATM   28  O2  UNL     1      -2.054  20.499  24.769  1.00  0.00    -0.271 OA
ATOM     29  H2  UNL     1      -1.987  17.539  23.584  1.00  0.00     0.163 HD
BRANCH  27  30
HETATM   30  C20 UNL     1      -0.147  19.322  24.179  1.00  0.00     0.270 C
HETATM   31  C21 UNL     1       0.260  17.901  23.851  1.00  0.00     0.050 C
BRANCH  30  32
HETATM   32  N3  UNL     1       0.596  19.917  25.239  1.00  0.00    -0.067 N
ATOM     33  H33 UNL     1       1.583  19.675  25.156  1.00  0.00     0.275 HD
ATOM     34  H32 UNL     1       0.650  20.927  25.108  1.00  0.00     0.275 HD
ATOM     35  H31 UNL     1       0.258  19.700  26.176  1.00  0.00     0.275 HD
ENDBRANCH  30  32
ENDBRANCH  27  30
ENDBRANCH  21  26
ENDBRANCH  18  21
ENDBRANCH   1  17
BRANCH   1  36
HETATM   36  C22 UNL     1      -7.142  15.546  25.788  1.00  0.00     0.243 C
HETATM   37  O3  UNL     1      -6.953  14.284  25.571  1.00  0.00    -0.271 OA
HETATM   38  N4  UNL     1      -8.370  16.036  25.316  1.00  0.00    -0.337 N
HETATM   39  C23 UNL     1      -8.999  17.326  25.310  1.00  0.00     0.127 C
HETATM   40  C26 UNL     1      -9.391  15.161  24.695  1.00  0.00     0.179 C
HETATM   41  C24 UNL     1     -10.469  17.104  25.427  1.00  0.00     0.022 C
HETATM   42  C25 UNL     1     -10.623  15.575  25.498  1.00  0.00     0.037 C
BRANCH  40  43
HETATM   43  C27 UNL     1      -9.604  15.432  23.284  1.00  0.00     0.246 C
HETATM   44  O4  UNL     1      -9.950  14.478  22.496  1.00  0.00    -0.271 OA
HETATM   45  N5  UNL     1      -9.458  16.691  22.671  1.00  0.00    -0.302 N
HETATM   46  C28 UNL     1      -8.998  16.810  21.466  1.00  0.00     0.203 C
ATOM     47  H5  UNL     1      -9.721  17.530  23.188  1.00  0.00     0.171 HD
HETATM   48  N6  UNL     1      -8.838  18.055  20.817  1.00  0.00    -0.066 NA
HETATM   49  N7  UNL     1      -8.640  15.638  20.765  1.00  0.00    -0.066 NA
ENDBRANCH  40  43
ENDBRANCH   1  36
TORSDOF 11
ENDMDL