MODEL 1
REMARK VINA RESULT: -7.096263140      0.000      0.000
REMARK  10 active torsions:
REMARK  status: ('A' for Active; 'I' for Inactive)
REMARK    1  A    between atoms: S1_2  and  C2_3
REMARK    2  A    between atoms: C2_3  and  C3_4
REMARK    3  A    between atoms: C7_8  and  C8_9
REMARK       I    between atoms: C8_9  and  N1_11
REMARK    4  A    between atoms: N1_11  and  C9_13
REMARK    5  A    between atoms: C9_13  and  C12_18
REMARK    6  A    between atoms: C10_14  and  C11_15
REMARK    7  A    between atoms: C12_18  and  C13_19
REMARK    8  A    between atoms: C20_26  and  N3_27
REMARK    9  A    between atoms: C25_39  and  N6_40
REMARK       I    between atoms: N6_40  and  C26_42
REMARK       I    between atoms: C26_42  and  N7_44
REMARK   10  A    between atoms: N7_44  and  C28_46
ROOT
HETATM    1  C3  UNL     1      -2.069  19.541  18.755  1.00  0.00     0.013 C
HETATM    2  C4  UNL     1      -1.754  19.547  20.099  1.00  0.00     0.031 C
HETATM    3  C5  UNL     1      -2.842  19.787  21.021  1.00  0.00     0.026 C
HETATM    4  C6  UNL     1      -3.446  19.413  22.076  1.00  0.00    -0.002 C
HETATM    5  C7  UNL     1      -3.467  18.421  23.156  1.00  0.00     0.089 A
HETATM    6  C17 UNL     1      -2.344  17.976  23.901  1.00  0.00     0.056 A
HETATM    7  C18 UNL     1      -2.449  16.515  24.233  1.00  0.00    -0.020 C
HETATM    8  C19 UNL     1      -1.593  15.571  24.286  1.00  0.00    -0.004 C
HETATM    9  C20 UNL     1      -0.127  15.518  24.040  1.00  0.00     0.121 C
HETATM   10  C21 UNL     1       0.197  16.564  23.052  1.00  0.00     0.031 C
HETATM   11  C22 UNL     1       1.197  16.274  21.986  1.00  0.00     0.012 C
HETATM   12  C23 UNL     1       0.626  16.978  20.745  1.00  0.00     0.103 C
HETATM   13  C24 UNL     1       0.452  18.434  20.979  1.00  0.00     0.222 C
HETATM   14  O3  UNL     1       1.135  18.883  21.944  1.00  0.00    -0.273 OA
HETATM   15  N5  UNL     1      -0.363  19.352  20.265  1.00  0.00    -0.327 N
ATOM     16  H5  UNL     1       0.188  20.037  19.747  1.00  0.00     0.169 HD
HETATM   17  C25 UNL     1      -3.405  18.880  24.578  1.00  0.00     0.117 A
ENDROOT
BRANCH   5  18
HETATM   18  C8  UNL     1      -4.528  17.364  22.882  1.00  0.00     0.237 C
HETATM   19  O1  UNL     1      -4.208  16.375  22.195  1.00  0.00    -0.272 OA
HETATM   20  N1  UNL     1      -5.848  17.479  23.384  1.00  0.00    -0.329 N
ATOM     21  H1  UNL     1      -6.079  18.296  23.949  1.00  0.00     0.168 HD
BRANCH  20  22
HETATM   22  C9  UNL     1      -6.858  16.529  23.149  1.00  0.00     0.020 C
HETATM   23  C10 UNL     1      -7.663  16.482  22.112  1.00  0.00     0.096 C
BRANCH  23  24
HETATM   24  C11 UNL     1      -7.666  17.403  21.007  1.00  0.00     0.256 C
HETATM   25  N2  UNL     1      -8.800  18.228  20.736  1.00  0.00    -0.058 NA
HETATM   26  O2  UNL     1      -6.638  17.483  20.256  1.00  0.00    -0.272 OA
ENDBRANCH  23  24
BRANCH  22  27
HETATM   27  C12 UNL     1      -7.006  15.459  24.199  1.00  0.00     0.084 C
BRANCH  27  28
HETATM   28  C13 UNL     1      -8.330  15.469  24.830  1.00  0.00    -0.019 C
HETATM   29  C14 UNL     1      -8.624  14.990  26.018  1.00  0.00    -0.091 C
HETATM   30  C15 UNL     1     -10.006  15.041  26.587  1.00  0.00     0.042 C
HETATM   31  C16 UNL     1      -7.533  14.369  26.838  1.00  0.00     0.042 C
ENDBRANCH  27  28
ENDBRANCH  22  27
ENDBRANCH  20  22
ENDBRANCH   5  18
BRANCH  17  32
HETATM   32  N6  UNL     1      -4.087  18.355  25.680  1.00  0.00    -0.336 N
HETATM   33  C26 UNL     1      -5.340  18.877  26.117  1.00  0.00     0.318 C
HETATM   34  O4  UNL     1      -5.845  19.845  25.487  1.00  0.00    -0.247 OA
HETATM   35  N7  UNL     1      -6.045  18.354  27.235  1.00  0.00    -0.335 N
HETATM   36  C27 UNL     1      -5.474  17.232  27.955  1.00  0.00     0.154 C
ATOM     37  H6  UNL     1      -3.674  17.572  26.188  1.00  0.00     0.164 HD
BRANCH  35  38
HETATM   38  C28 UNL     1      -7.295  18.895  27.686  1.00  0.00     0.080 C
HETATM   39  C29 UNL     1      -7.680  18.128  28.949  1.00  0.00     0.032 C
HETATM   40  C30 UNL     1      -8.365  18.594  26.655  1.00  0.00     0.032 C
ENDBRANCH  35  38
ENDBRANCH  17  32
BRANCH   1  41
HETATM   41  C2  UNL     1      -1.171  19.328  17.648  1.00  0.00     0.103 C
BRANCH  41  42
HETATM   42  S1  UNL     1      -1.134  17.625  17.046  1.00  0.00    -0.170 SA
HETATM   43  C1  UNL     1      -2.486  16.735  17.901  1.00  0.00     0.090 C
ENDBRANCH  41  42
ENDBRANCH   1  41
BRANCH   9  44
HETATM   44  N3  UNL     1       0.298  14.215  23.610  1.00  0.00    -0.335 N
HETATM   45  N4  UNL     1       0.207  13.212  24.328  1.00  0.00    -0.349 N
ATOM     46  H42 UNL     1      -0.187  13.332  25.261  1.00  0.00     0.176 HD
ATOM     47  H41 UNL     1       0.509  12.286  24.022  1.00  0.00     0.176 HD
ATOM     48  H3  UNL     1       0.690  14.112  22.673  1.00  0.00     0.180 HD
ENDBRANCH   9  44
TORSDOF 10
ENDMDL