MODEL 3
REMARK VINA RESULT: -8.646554434      1.964     10.139
REMARK  13 active torsions:
REMARK  status: ('A' for Active; 'I' for Inactive)
REMARK    1  A    between atoms: C3_3  and  C4_4
REMARK    2  A    between atoms: C5_5  and  C6_6
REMARK    3  A    between atoms: C6_6  and  C7_7
REMARK    4  A    between atoms: C8_11  and  C9_12
REMARK    5  A    between atoms: C9_12  and  C10_13
REMARK    6  A    between atoms: C10_13  and  C11_14
REMARK    7  A    between atoms: C10_13  and  N2_16
REMARK       I    between atoms: N2_16  and  C13_18
REMARK    8  A    between atoms: C13_18  and  C14_20
REMARK       I    between atoms: C14_20  and  N3_22
REMARK    9  A    between atoms: N3_22  and  C15_24
REMARK   10  A    between atoms: C15_24  and  C16_25
REMARK       I    between atoms: C16_25  and  N4_27
REMARK   11  A    between atoms: N4_27  and  C17_29
REMARK   12  A    between atoms: C27_42  and  C28_43
REMARK   13  A    between atoms: C28_43  and  C29_44
ROOT
HETATM    1  C1  UNL     1      -1.047  17.101  23.850  1.00  0.00     0.113 C
HETATM    2  C2  UNL     1      -2.320  17.552  24.445  1.00  0.00    -0.097 C
HETATM    3  C3  UNL     1      -3.355  17.943  24.926  1.00  0.00    -0.015 C
ENDROOT
BRANCH   3   4
HETATM    4  C4  UNL     1      -4.572  18.431  25.482  1.00  0.00    -0.015 C
HETATM    5  C5  UNL     1      -5.601  18.864  25.972  1.00  0.00    -0.090 C
BRANCH   5   6
HETATM    6  C6  UNL     1      -6.835  19.380  26.593  1.00  0.00     0.138 C
BRANCH   6   7
HETATM    7  C7  UNL     1      -7.511  18.194  27.240  1.00  0.00     0.290 C
HETATM    8  N1  UNL     1      -7.195  18.104  28.654  1.00  0.00    -0.037 N
HETATM    9  C8  UNL     1      -8.164  17.348  29.425  1.00  0.00     0.313 C
ATOM     10  H12 UNL     1      -6.256  17.727  28.788  1.00  0.00     0.281 HD
ATOM     11  H11 UNL     1      -7.064  19.033  29.053  1.00  0.00     0.281 HD
HETATM   12  N5  UNL     1      -8.388  16.013  29.006  1.00  0.00    -0.328 N
HETATM   13  C26 UNL     1      -9.133  15.337  28.003  1.00  0.00     0.242 C
ATOM     14  H5  UNL     1      -7.871  15.353  29.587  1.00  0.00     0.164 HD
HETATM   15  O4  UNL     1      -9.341  14.121  28.279  1.00  0.00    -0.271 OA
HETATM   16  C27 UNL     1      -9.742  15.687  26.694  1.00  0.00     0.177 C
HETATM   17  N6  UNL     1      -9.882  17.123  26.620  1.00  0.00    -0.346 N
HETATM   18  C32 UNL     1      -8.945  18.182  26.936  1.00  0.00     0.250 C
ATOM     19  H6  UNL     1     -10.792  17.445  26.291  1.00  0.00     0.163 HD
HETATM   20  O5  UNL     1      -9.529  19.294  26.937  1.00  0.00    -0.271 OA
BRANCH   9  21
HETATM   21  C9  UNL     1      -7.959  17.603  30.860  1.00  0.00     0.052 C
BRANCH  21  22
HETATM   22  C10 UNL     1      -8.287  16.652  31.910  1.00  0.00     0.012 C
BRANCH  22  23
HETATM   23  C11 UNL     1      -7.249  15.991  32.726  1.00  0.00     0.052 C
HETATM   24  C12 UNL     1      -6.931  14.562  32.347  1.00  0.00     0.011 C
ENDBRANCH  22  23
BRANCH  22  25
HETATM   25  N2  UNL     1      -9.423  15.794  31.630  1.00  0.00    -0.323 N
HETATM   26  C13 UNL     1     -10.549  15.700  32.480  1.00  0.00     0.313 C
HETATM   27  O1  UNL     1     -10.519  16.406  33.531  1.00  0.00    -0.262 OA
ATOM     28  H2  UNL     1      -9.408  15.232  30.779  1.00  0.00     0.169 HD
BRANCH  26  29
HETATM   29  C14 UNL     1     -11.722  14.873  32.256  1.00  0.00     0.310 C
HETATM   30  O2  UNL     1     -12.417  14.499  33.248  1.00  0.00    -0.262 OA
HETATM   31  N3  UNL     1     -12.073  14.500  30.959  1.00  0.00    -0.335 N
ATOM     32  H3  UNL     1     -11.463  14.866  30.228  1.00  0.00     0.164 HD
BRANCH  31  33
HETATM   33  C15 UNL     1     -13.149  13.690  30.492  1.00  0.00     0.114 C
HETATM   34  C21 UNL     1     -14.451  14.455  30.710  1.00  0.00     0.041 C
HETATM   35  C22 UNL     1     -15.110  14.812  29.420  1.00  0.00     0.003 C
HETATM   36  C23 UNL     1     -14.233  15.455  28.403  1.00  0.00     0.000 C
HETATM   37  C24 UNL     1     -12.911  14.780  28.263  1.00  0.00     0.003 C
HETATM   38  C25 UNL     1     -12.977  13.440  28.986  1.00  0.00     0.041 C
BRANCH  33  39
HETATM   39  C16 UNL     1     -13.255  12.425  31.222  1.00  0.00     0.246 C
HETATM   40  O3  UNL     1     -12.521  11.464  31.001  1.00  0.00    -0.271 OA
HETATM   41  N4  UNL     1     -14.272  12.331  32.238  1.00  0.00    -0.351 N
ATOM     42  H4  UNL     1     -14.873  13.135  32.420  1.00  0.00     0.163 HD
BRANCH  41  43
HETATM   43  C17 UNL     1     -14.456  11.123  33.003  1.00  0.00     0.022 C
HETATM   44  C18 UNL     1     -13.338  10.958  34.037  1.00  0.00     0.037 C
HETATM   45  C19 UNL     1     -14.581   9.890  32.154  1.00  0.00     0.037 C
HETATM   46  C20 UNL     1     -15.775  11.265  33.774  1.00  0.00     0.037 C
ENDBRANCH  41  43
ENDBRANCH  33  39
ENDBRANCH  31  33
ENDBRANCH  26  29
ENDBRANCH  22  25
ENDBRANCH  21  22
ENDBRANCH   9  21
BRANCH  16  47
HETATM   47  C28 UNL     1      -8.870  15.089  25.634  1.00  0.00     0.038 C
BRANCH  47  48
HETATM   48  C29 UNL     1      -9.000  15.682  24.274  1.00  0.00    -0.020 C
HETATM   49  C30 UNL     1      -7.735  16.321  23.757  1.00  0.00     0.009 C
HETATM   50  C31 UNL     1      -9.647  14.771  23.258  1.00  0.00     0.009 C
ENDBRANCH  47  48
ENDBRANCH  16  47
ENDBRANCH   6   7
ENDBRANCH   5   6
ENDBRANCH   3   4
TORSDOF 13
ENDMDL