MODEL 3
REMARK VINA RESULT: -9.310584690      2.419      6.077
REMARK  11 active torsions:
REMARK  status: ('A' for Active; 'I' for Inactive)
REMARK    1  A    between atoms: C2_2  and  C3_3
REMARK    2  A    between atoms: C3_3  and  N1_4
REMARK    3  A    between atoms: C3_3  and  C6_9
REMARK       I    between atoms: N1_4  and  C4_6
REMARK       I    between atoms: C6_9  and  N2_11
REMARK    4  A    between atoms: N2_11  and  C7_13
REMARK    5  A    between atoms: C7_13  and  C8_14
REMARK    6  A    between atoms: C7_13  and  C20_29
REMARK    7  A    between atoms: C11_17  and  O3_18
REMARK    8  A    between atoms: C20_29  and  N3_30
REMARK    9  A    between atoms: C20_29  and  N6_35
REMARK   10  A    between atoms: N7_38  and  C24_39
REMARK   11  A    between atoms: C24_39  and  C25_40
ROOT
HETATM    1  C7  UNL     1      -9.428  17.027  27.931  1.00  0.00     0.061 C
ENDROOT
BRANCH   1   2
HETATM    2  N2  UNL     1     -10.269  16.141  28.670  1.00  0.00    -0.325 N
HETATM    3  C6  UNL     1     -11.347  16.638  29.445  1.00  0.00     0.244 C
HETATM    4  O2  UNL     1     -11.533  17.912  29.433  1.00  0.00    -0.271 OA
ATOM      5  H2  UNL     1     -10.092  15.137  28.640  1.00  0.00     0.169 HD
BRANCH   3   6
HETATM    6  C3  UNL     1     -12.272  15.829  30.256  1.00  0.00     0.176 C
BRANCH   6   7
HETATM    7  C2  UNL     1     -12.956  14.740  29.459  1.00  0.00     0.030 C
HETATM    8  C1  UNL     1     -14.087  15.148  28.601  1.00  0.00     0.007 C
ENDBRANCH   6   7
BRANCH   6   9
HETATM    9  N1  UNL     1     -11.458  15.077  31.232  1.00  0.00    -0.348 N
HETATM   10  C4  UNL     1     -11.418  15.441  32.601  1.00  0.00     0.214 C
HETATM   11  C5  UNL     1     -10.609  14.709  33.607  1.00  0.00     0.117 C
HETATM   12  O1  UNL     1     -12.091  16.429  32.999  1.00  0.00    -0.274 OA
ATOM     13  H1  UNL     1     -10.912  14.276  30.914  1.00  0.00     0.163 HD
ENDBRANCH   6   9
ENDBRANCH   3   6
ENDBRANCH   1   2
BRANCH   1  14
HETATM   14  C8  UNL     1      -9.276  16.702  26.478  1.00  0.00    -0.027 C
HETATM   15  C9  UNL     1      -8.844  15.547  26.009  1.00  0.00    -0.046 C
HETATM   16  C10 UNL     1      -8.470  14.465  26.954  1.00  0.00     0.046 C
HETATM   17  C11 UNL     1      -8.703  15.231  24.554  1.00  0.00     0.163 C
HETATM   18  C12 UNL     1      -8.547  16.393  23.657  1.00  0.00     0.050 C
HETATM   19  C13 UNL     1      -7.203  16.323  22.964  1.00  0.00     0.020 C
HETATM   20  C17 UNL     1      -9.646  16.412  22.651  1.00  0.00     0.138 C
HETATM   21  C18 UNL     1      -8.580  17.723  24.383  1.00  0.00     0.025 C
HETATM   22  C14 UNL     1      -7.362  15.499  21.705  1.00  0.00     0.002 C
HETATM   23  C15 UNL     1      -8.092  16.412  20.710  1.00  0.00     0.007 C
HETATM   24  C16 UNL     1      -9.462  16.704  21.220  1.00  0.00     0.079 C
HETATM   25  O4  UNL     1     -10.770  16.168  23.051  1.00  0.00    -0.297 OA
HETATM   26  C19 UNL     1      -9.605  17.768  25.450  1.00  0.00     0.042 C
BRANCH  17  27
HETATM   27  O3  UNL     1      -7.674  14.302  24.430  1.00  0.00    -0.390 OA
ATOM     28  H3  UNL     1      -7.482  13.977  25.302  1.00  0.00     0.210 HD
ENDBRANCH  17  27
ENDBRANCH   1  14
BRANCH   1  29
HETATM   29  C20 UNL     1      -8.210  17.511  28.620  1.00  0.00     0.241 C
BRANCH  29  30
HETATM   30  N3  UNL     1      -7.572  16.465  29.373  1.00  0.00    -0.340 N
HETATM   31  C21 UNL     1      -7.685  16.451  30.653  1.00  0.00     0.198 C
HETATM   32  N4  UNL     1      -7.076  15.441  31.455  1.00  0.00    -0.067 NA
HETATM   33  N5  UNL     1      -8.441  17.463  31.289  1.00  0.00    -0.067 NA
ATOM     34  H3  UNL     1      -7.036  15.740  28.895  1.00  0.00     0.164 HD
ENDBRANCH  29  30
BRANCH  29  35
HETATM   35  N6  UNL     1      -7.166  18.014  27.712  1.00  0.00    -0.305 N
HETATM   36  C22 UNL     1      -7.041  19.383  27.212  1.00  0.00     0.150 C
HETATM   37  C23 UNL     1      -6.067  19.326  26.087  1.00  0.00     0.147 C
HETATM   38  N7  UNL     1      -5.223  18.228  26.462  1.00  0.00    -0.332 N
HETATM   39  C31 UNL     1      -6.079  17.290  27.158  1.00  0.00     0.322 C
HETATM   40  O5  UNL     1      -5.842  16.063  27.219  1.00  0.00    -0.247 OA
BRANCH  38  41
HETATM   41  C24 UNL     1      -3.827  18.000  26.214  1.00  0.00     0.132 C
BRANCH  41  42
HETATM   42  C25 UNL     1      -3.369  18.358  24.829  1.00  0.00     0.004 C
HETATM   43  C26 UNL     1      -1.965  18.921  24.972  1.00  0.00     0.006 C
HETATM   44  C27 UNL     1      -1.022  18.408  23.927  1.00  0.00     0.000 C
HETATM   45  C28 UNL     1      -0.985  16.916  23.784  1.00  0.00     0.000 C
HETATM   46  C29 UNL     1      -2.242  16.241  24.287  1.00  0.00     0.000 C
HETATM   47  C30 UNL     1      -3.393  17.160  23.941  1.00  0.00     0.006 C
ENDBRANCH  41  42
ENDBRANCH  38  41
ENDBRANCH  29  35
ENDBRANCH   1  29
TORSDOF 11
ENDMDL