MODEL 2
REMARK VINA RESULT: -8.964515092      2.881     10.672
REMARK  11 active torsions:
REMARK  status: ('A' for Active; 'I' for Inactive)
REMARK    1  A    between atoms: C2_2  and  C4_4
REMARK    2  A    between atoms: C4_4  and  N1_5
REMARK       I    between atoms: N1_5  and  C5_7
REMARK    3  A    between atoms: C5_7  and  C6_9
REMARK       I    between atoms: N2_13  and  C10_14
REMARK    4  A    between atoms: C10_14  and  C11_16
REMARK    5  A    between atoms: N3_18  and  C13_20
REMARK    6  A    between atoms: C13_20  and  N4_22
REMARK    7  A    between atoms: N4_22  and  C15_25
REMARK    8  A    between atoms: C15_25  and  C16_26
REMARK    9  A    between atoms: C15_25  and  C27_42
REMARK   10  A    between atoms: C16_26  and  O3_27
REMARK   11  A    between atoms: C25_38  and  C26_39
ROOT
HETATM    1  N4  UNL     1     -10.314  16.077  29.286  1.00  0.00    -0.043 N
ATOM      2  H41 UNL     1     -10.370  15.062  29.195  1.00  0.00     0.280 HD
ATOM      3  H42 UNL     1     -10.583  16.129  30.268  1.00  0.00     0.280 HD
ENDROOT
BRANCH   1   4
HETATM    4  C13 UNL     1     -11.251  16.815  28.367  1.00  0.00     0.281 C
HETATM    5  C14 UNL     1     -11.654  18.073  29.150  1.00  0.00     0.063 C
BRANCH   4   6
HETATM    6  N3  UNL     1     -12.310  16.025  28.006  1.00  0.00    -0.362 N
HETATM    7  C11 UNL     1     -13.087  15.131  28.658  1.00  0.00     0.071 C
HETATM    8  C12 UNL     1     -14.584  15.114  28.384  1.00  0.00     0.074 C
ATOM      9  H3  UNL     1     -12.572  16.137  27.027  1.00  0.00     0.161 HD
BRANCH   7  10
HETATM   10  C10 UNL     1     -12.607  13.857  29.213  1.00  0.00     0.266 C
HETATM   11  N2  UNL     1     -13.168  13.278  30.418  1.00  0.00    -0.334 N
HETATM   12  C6  UNL     1     -12.694  12.104  31.140  1.00  0.00     0.179 C
HETATM   13  C9  UNL     1     -14.400  13.666  31.062  1.00  0.00     0.127 C
HETATM   14  C7  UNL     1     -13.986  11.268  31.086  1.00  0.00     0.037 C
HETATM   15  C8  UNL     1     -15.021  12.329  31.462  1.00  0.00     0.022 C
HETATM   16  O2  UNL     1     -11.679  13.150  28.687  1.00  0.00    -0.266 OA
BRANCH  12  17
HETATM   17  C5  UNL     1     -12.463  12.504  32.567  1.00  0.00     0.240 C
HETATM   18  N1  UNL     1     -11.810  13.711  32.913  1.00  0.00    -0.359 N
ATOM     19  H1  UNL     1     -11.491  14.355  32.189  1.00  0.00     0.162 HD
HETATM   20  O1  UNL     1     -12.864  11.722  33.456  1.00  0.00    -0.271 OA
BRANCH  18  21
HETATM   21  C4  UNL     1     -11.603  14.012  34.306  1.00  0.00     0.126 C
BRANCH  21  22
HETATM   22  C2  UNL     1     -11.456  15.470  34.605  1.00  0.00    -0.005 C
HETATM   23  C1  UNL     1     -11.404  16.174  33.240  1.00  0.00     0.011 C
HETATM   24  C3  UNL     1     -10.162  15.833  35.293  1.00  0.00     0.011 C
ENDBRANCH  21  22
ENDBRANCH  18  21
ENDBRANCH  12  17
ENDBRANCH   7  10
ENDBRANCH   4   6
ENDBRANCH   1   4
BRANCH   1  25
HETATM   25  C15 UNL     1      -8.939  16.630  29.009  1.00  0.00     0.266 C
BRANCH  25  26
HETATM   26  C16 UNL     1      -8.481  16.126  27.733  1.00  0.00     0.146 C
HETATM   27  N5  UNL     1      -8.014  16.498  26.508  1.00  0.00    -0.350 N
HETATM   28  C17 UNL     1      -7.717  15.438  25.504  1.00  0.00     0.130 C
HETATM   29  C25 UNL     1      -7.755  17.810  26.012  1.00  0.00     0.175 C
HETATM   30  C18 UNL     1      -8.462  15.663  24.211  1.00  0.00     0.008 C
HETATM   31  C19 UNL     1      -7.974  14.642  23.213  1.00  0.00     0.006 C
HETATM   32  C23 UNL     1      -8.141  17.030  23.636  1.00  0.00    -0.006 C
HETATM   33  C20 UNL     1      -7.938  15.266  21.837  1.00  0.00     0.000 C
HETATM   34  C21 UNL     1      -6.846  16.293  21.699  1.00  0.00     0.000 C
HETATM   35  C22 UNL     1      -6.750  17.050  23.032  1.00  0.00     0.005 C
HETATM   36  C24 UNL     1      -8.354  18.107  24.643  1.00  0.00     0.039 C
BRANCH  26  37
HETATM   37  O3  UNL     1      -8.543  14.768  27.766  1.00  0.00    -0.348 OA
ATOM     38  H3  UNL     1      -7.804  14.424  27.279  1.00  0.00     0.219 HD
ENDBRANCH  26  37
BRANCH  29  39
HETATM   39  C26 UNL     1      -6.279  18.026  25.982  1.00  0.00     0.254 C
HETATM   40  N6  UNL     1      -5.772  19.244  25.488  1.00  0.00    -0.060 NA
HETATM   41  O4  UNL     1      -5.496  17.148  26.382  1.00  0.00    -0.275 OA
ENDBRANCH  29  39
ENDBRANCH  25  26
BRANCH  25  42
HETATM   42  C27 UNL     1      -8.209  16.354  30.273  1.00  0.00     0.024 C
HETATM   43  C28 UNL     1      -8.624  15.150  31.068  1.00  0.00     0.007 C
HETATM   44  C29 UNL     1      -7.356  14.683  31.826  1.00  0.00     0.000 C
HETATM   45  C30 UNL     1      -6.808  15.884  32.528  1.00  0.00     0.000 C
HETATM   46  C31 UNL     1      -7.799  17.023  32.582  1.00  0.00     0.000 C
HETATM   47  C32 UNL     1      -8.122  17.570  31.193  1.00  0.00     0.007 C
ENDBRANCH  25  42
ENDBRANCH   1  25
TORSDOF 11
ENDMDL