MODEL 4
REMARK VINA RESULT: -9.056241803      2.593     10.707
REMARK  12 active torsions:
REMARK  status: ('A' for Active; 'I' for Inactive)
REMARK    1  A    between atoms: C2_2  and  C4_4
REMARK    2  A    between atoms: C4_4  and  C5_5
REMARK    3  A    between atoms: C4_4  and  N3_21
REMARK    4  A    between atoms: C5_5  and  C6_6
REMARK    5  A    between atoms: C8_11  and  N2_13
REMARK       I    between atoms: N3_21  and  C16_23
REMARK       I    between atoms: C16_23  and  N4_25
REMARK    6  A    between atoms: N4_25  and  C18_27
REMARK    7  A    between atoms: C18_27  and  C19_28
REMARK    8  A    between atoms: N5_32  and  C23_33
REMARK    9  A    between atoms: C23_33  and  O4_34
REMARK   10  A    between atoms: C23_33  and  C24_36
REMARK   11  A    between atoms: C24_36  and  N6_37
REMARK   12  A    between atoms: C24_36  and  C26_44
REMARK       I    between atoms: N6_37  and  C25_39
ROOT
HETATM    1  N3  UNL     1      -8.264  15.694  29.292  1.00  0.00    -0.338 N
ATOM      2  H3  UNL     1      -7.930  16.654  29.374  1.00  0.00     0.164 HD
HETATM    3  C16 UNL     1      -7.898  14.946  28.137  1.00  0.00     0.318 C
HETATM    4  O3  UNL     1      -8.350  13.779  28.077  1.00  0.00    -0.247 OA
HETATM    5  N4  UNL     1      -7.072  15.481  27.119  1.00  0.00    -0.337 N
HETATM    6  C17 UNL     1      -6.765  14.583  25.993  1.00  0.00     0.154 C
ENDROOT
BRANCH   5   7
HETATM    7  C18 UNL     1      -6.605  16.832  27.209  1.00  0.00     0.152 C
BRANCH   7   8
HETATM    8  C19 UNL     1      -7.478  17.785  26.481  1.00  0.00     0.104 C
HETATM    9  C20 UNL     1      -8.111  18.789  27.395  1.00  0.00     0.028 C
HETATM   10  C21 UNL     1      -6.961  19.721  27.671  1.00  0.00     0.022 C
HETATM   11  C22 UNL     1      -6.163  19.695  26.359  1.00  0.00     0.125 C
HETATM   12  N5  UNL     1      -6.716  18.660  25.553  1.00  0.00    -0.357 N
BRANCH  12  13
HETATM   13  C23 UNL     1      -6.643  18.389  24.186  1.00  0.00     0.137 C
BRANCH  13  14
HETATM   14  O4  UNL     1      -6.674  19.422  23.376  1.00  0.00    -0.348 OA
ATOM     15  H4  UNL     1      -5.850  19.681  22.980  1.00  0.00     0.219 HD
ENDBRANCH  13  14
BRANCH  13  16
HETATM   16  C24 UNL     1      -6.531  17.050  23.559  1.00  0.00     0.163 C
BRANCH  16  17
HETATM   17  N6  UNL     1      -5.168  16.877  23.145  1.00  0.00    -0.352 N
HETATM   18  C25 UNL     1      -3.982  17.325  23.733  1.00  0.00     0.182 C
HETATM   19  N7  UNL     1      -3.100  16.433  24.138  1.00  0.00    -0.374 N
HETATM   20  N8  UNL     1      -3.580  18.665  23.940  1.00  0.00    -0.064 NA
ATOM     21  H72 UNL     1      -3.391  15.466  23.989  1.00  0.00     0.158 HD
ATOM     22  H71 UNL     1      -2.235  16.760  24.567  1.00  0.00     0.158 HD
ATOM     23  H6  UNL     1      -5.045  16.342  22.285  1.00  0.00     0.163 HD
ENDBRANCH  16  17
BRANCH  16  24
HETATM   24  C26 UNL     1      -7.572  16.760  22.552  1.00  0.00     0.016 C
HETATM   25  C27 UNL     1      -7.168  16.006  21.336  1.00  0.00     0.007 C
HETATM   26  C28 UNL     1      -8.311  16.011  20.346  1.00  0.00     0.000 C
HETATM   27  C29 UNL     1      -9.476  16.824  20.830  1.00  0.00     0.000 C
HETATM   28  C30 UNL     1      -9.968  16.430  22.205  1.00  0.00     0.000 C
HETATM   29  C31 UNL     1      -8.809  16.047  23.114  1.00  0.00     0.007 C
ENDBRANCH  16  24
ENDBRANCH  13  16
ENDBRANCH  12  13
ENDBRANCH   7   8
ENDBRANCH   5   7
BRANCH   1  30
HETATM   30  C4  UNL     1      -9.091  15.157  30.362  1.00  0.00     0.091 C
BRANCH  30  31
HETATM   31  C2  UNL     1      -8.241  15.326  31.625  1.00  0.00     0.000 C
HETATM   32  C1  UNL     1      -7.295  16.471  31.488  1.00  0.00     0.011 C
HETATM   33  C3  UNL     1      -9.126  15.538  32.833  1.00  0.00     0.011 C
ENDBRANCH  30  31
BRANCH  30  34
HETATM   34  C5  UNL     1     -10.400  15.858  30.508  1.00  0.00     0.058 C
BRANCH  34  35
HETATM   35  C6  UNL     1     -11.503  15.260  29.670  1.00  0.00     0.156 C
HETATM   36  N1  UNL     1     -12.773  15.675  30.249  1.00  0.00    -0.347 N
HETATM   37  C7  UNL     1     -13.607  14.728  30.877  1.00  0.00     0.246 C
ATOM     38  H1  UNL     1     -13.060  16.652  30.201  1.00  0.00     0.163 HD
HETATM   39  O1  UNL     1     -14.880  14.862  30.841  1.00  0.00    -0.271 OA
HETATM   40  C8  UNL     1     -13.136  13.526  31.618  1.00  0.00     0.112 C
HETATM   41  C9  UNL     1     -12.772  14.052  33.018  1.00  0.00     0.049 C
HETATM   42  C14 UNL     1     -11.834  13.033  31.002  1.00  0.00     0.121 C
HETATM   43  C15 UNL     1     -11.497  13.765  29.768  1.00  0.00     0.152 C
HETATM   44  O2  UNL     1     -11.196  13.141  28.769  1.00  0.00    -0.296 OA
BRANCH  40  45
HETATM   45  N2  UNL     1     -14.091  12.512  31.805  1.00  0.00    -0.396 N
HETATM   46  C10 UNL     1     -14.490  12.176  33.122  1.00  0.00     0.118 C
HETATM   47  C11 UNL     1     -15.509  11.058  32.845  1.00  0.00     0.021 C
HETATM   48  C12 UNL     1     -14.792  10.264  31.785  1.00  0.00     0.021 C
HETATM   49  C13 UNL     1     -14.054  11.358  30.995  1.00  0.00     0.118 C
ENDBRANCH  40  45
ENDBRANCH  34  35
ENDBRANCH  30  34
ENDBRANCH   1  30
TORSDOF 12
ENDMDL