MODEL 4
REMARK VINA RESULT: -9.576951105      1.251      2.007
REMARK  11 active torsions:
REMARK  status: ('A' for Active; 'I' for Inactive)
REMARK    1  A    between atoms: C2_2  and  N1_3
REMARK    2  A    between atoms: C2_2  and  C11_17
REMARK       I    between atoms: N1_3  and  C3_5
REMARK       I    between atoms: C3_5  and  N3_9
REMARK    3  A    between atoms: C11_17  and  N4_19
REMARK    4  A    between atoms: N4_19  and  C13_21
REMARK    5  A    between atoms: C13_21  and  C14_22
REMARK    6  A    between atoms: C13_21  and  C19_27
REMARK    7  A    between atoms: C14_22  and  C15_23
REMARK       I    between atoms: C19_27  and  N5_29
REMARK    8  A    between atoms: C26_36  and  C27_37
REMARK    9  A    between atoms: C27_37  and  C28_38
REMARK   10  A    between atoms: C28_38  and  C29_39
REMARK   11  A    between atoms: C29_39  and  N6_40
ROOT
HETATM    1  C13 UNL     1      -7.497  17.344  28.698  1.00  0.00     0.093 C
ENDROOT
BRANCH   1   2
HETATM    2  N4  UNL     1      -8.489  17.836  29.553  1.00  0.00    -0.379 N
ATOM      3  H4  UNL     1      -9.233  18.391  29.128  1.00  0.00     0.160 HD
BRANCH   2   4
HETATM    4  C11 UNL     1      -8.554  17.642  30.920  1.00  0.00     0.100 C
HETATM    5  C12 UNL     1      -7.418  16.689  31.392  1.00  0.00     0.034 C
BRANCH   4   6
HETATM    6  C2  UNL     1      -9.791  16.973  31.528  1.00  0.00     0.117 C
HETATM    7  C1  UNL     1      -9.535  16.063  32.659  1.00  0.00     0.035 C
BRANCH   6   8
HETATM    8  N1  UNL     1     -10.349  16.148  30.424  1.00  0.00    -0.220 N
HETATM    9  C3  UNL     1     -10.736  14.815  30.561  1.00  0.00     0.670 C
HETATM   10  N2  UNL     1      -9.757  13.912  30.418  1.00  0.00    -0.235 N
HETATM   11  N3  UNL     1     -11.998  14.256  30.811  1.00  0.00    -0.209 N
ATOM     12  H22 UNL     1      -8.840  14.318  30.236  1.00  0.00     0.174 HD
ATOM     13  H21 UNL     1     -10.041  12.937  30.518  1.00  0.00     0.174 HD
HETATM   14  C4  UNL     1     -12.567  13.949  32.092  1.00  0.00     0.147 C
HETATM   15  C8  UNL     1     -12.967  13.832  29.839  1.00  0.00     0.046 C
HETATM   16  C5  UNL     1     -12.923  12.465  31.859  1.00  0.00     0.011 A
HETATM   17  C6  UNL     1     -14.285  12.190  31.404  1.00  0.00     0.014 A
HETATM   18  C7  UNL     1     -13.301  12.444  30.346  1.00  0.00     0.020 A
HETATM   19  C9  UNL     1     -14.167  14.694  29.688  1.00  0.00     0.039 C
HETATM   20  C10 UNL     1     -12.345  13.691  28.438  1.00  0.00     0.039 C
ATOM     21  H1  UNL     1     -10.455  16.585  29.509  1.00  0.00     0.178 HD
ENDBRANCH   6   8
ENDBRANCH   4   6
ENDBRANCH   2   4
ENDBRANCH   1   2
BRANCH   1  22
HETATM   22  C14 UNL     1      -6.341  18.066  28.203  1.00  0.00     0.013 C
BRANCH  22  23
HETATM   23  C15 UNL     1      -5.114  17.515  27.667  1.00  0.00     0.010 C
HETATM   24  C16 UNL     1      -4.717  16.102  27.670  1.00  0.00     0.009 C
HETATM   25  C17 UNL     1      -3.867  16.427  26.417  1.00  0.00     0.001 C
HETATM   26  C18 UNL     1      -4.851  17.575  26.184  1.00  0.00     0.009 C
ENDBRANCH  22  23
ENDBRANCH   1  22
BRANCH   1  27
HETATM   27  C19 UNL     1      -7.937  16.266  27.782  1.00  0.00     0.269 C
HETATM   28  O1  UNL     1      -8.086  15.073  28.228  1.00  0.00    -0.266 OA
HETATM   29  N5  UNL     1      -8.242  16.364  26.373  1.00  0.00    -0.347 N
HETATM   30  C20 UNL     1      -8.410  15.081  25.708  1.00  0.00     0.127 C
HETATM   31  C24 UNL     1      -8.449  17.581  25.659  1.00  0.00     0.127 C
HETATM   32  C21 UNL     1      -9.207  15.013  24.487  1.00  0.00     0.039 C
HETATM   33  C22 UNL     1      -9.227  16.260  23.652  1.00  0.00     0.046 C
HETATM   34  C23 UNL     1      -9.526  17.387  24.571  1.00  0.00     0.039 C
HETATM   35  C25 UNL     1      -7.949  16.335  22.888  1.00  0.00     0.044 C
HETATM   36  C31 UNL     1     -10.283  16.273  22.601  1.00  0.00     0.227 C
HETATM   37  C26 UNL     1      -8.300  16.935  21.521  1.00  0.00     0.085 C
HETATM   38  N9  UNL     1      -9.712  16.724  21.369  1.00  0.00    -0.356 N
ATOM     39  H9  UNL     1     -10.234  16.873  20.505  1.00  0.00     0.162 HD
HETATM   40  O2  UNL     1     -11.476  15.954  22.721  1.00  0.00    -0.273 OA
BRANCH  37  41
HETATM   41  C27 UNL     1      -7.439  16.375  20.443  1.00  0.00     0.027 C
BRANCH  41  42
HETATM   42  C28 UNL     1      -6.088  15.893  20.789  1.00  0.00     0.022 C
BRANCH  42  43
HETATM   43  C29 UNL     1      -4.942  16.763  20.309  1.00  0.00     0.122 C
BRANCH  43  44
HETATM   44  N6  UNL     1      -4.815  17.913  21.195  1.00  0.00    -0.367 N
HETATM   45  C30 UNL     1      -3.981  17.959  22.165  1.00  0.00     0.196 C
HETATM   46  N7  UNL     1      -3.943  19.140  22.978  1.00  0.00    -0.067 NA
HETATM   47  N8  UNL     1      -3.115  16.887  22.425  1.00  0.00    -0.067 NA
ATOM     48  H6  UNL     1      -5.419  18.718  21.035  1.00  0.00     0.161 HD
ENDBRANCH  43  44
ENDBRANCH  42  43
ENDBRANCH  41  42
ENDBRANCH  37  41
ENDBRANCH   1  27
TORSDOF 11
ENDMDL