MODEL 3
REMARK VINA RESULT: -8.489563665      1.168      2.599
REMARK  11 active torsions:
REMARK  status: ('A' for Active; 'I' for Inactive)
REMARK    1  A    between atoms: C2_2  and  N1_3
REMARK    2  A    between atoms: C2_2  and  C18_26
REMARK       I    between atoms: N1_3  and  C3_5
REMARK       I    between atoms: C3_5  and  N2_7
REMARK    3  A    between atoms: C9_13  and  C10_14
REMARK       I    between atoms: C10_14  and  N3_16
REMARK    4  A    between atoms: N3_16  and  C11_17
REMARK    5  A    between atoms: C11_17  and  C12_18
REMARK    6  A    between atoms: C11_17  and  C15_23
REMARK    7  A    between atoms: C12_18  and  C13_19
REMARK    8  A    between atoms: C13_19  and  C14_20
REMARK       I    between atoms: C18_26  and  N5_28
REMARK    9  A    between atoms: N5_28  and  C19_30
REMARK       I    between atoms: N6_34  and  C23_35
REMARK       I    between atoms: C23_35  and  N7_37
REMARK   10  A    between atoms: N7_37  and  C24_39
REMARK   11  A    between atoms: C24_39  and  C26_41
ROOT
HETATM    1  N1  UNL     1      -9.531  16.850  27.105  1.00  0.00    -0.330 N
ATOM      2  H1  UNL     1      -9.718  15.850  27.185  1.00  0.00     0.165 HD
HETATM    3  C3  UNL     1      -9.204  17.377  25.848  1.00  0.00     0.319 C
HETATM    4  O1  UNL     1      -9.013  18.648  25.804  1.00  0.00    -0.247 OA
HETATM    5  N2  UNL     1      -9.066  16.574  24.697  1.00  0.00    -0.319 N
HETATM    6  C4  UNL     1      -9.403  15.194  24.684  1.00  0.00     0.133 C
HETATM    7  C5  UNL     1      -9.990  14.720  23.376  1.00  0.00     0.008 A
HETATM    8  C6  UNL     1     -10.592  15.773  22.500  1.00  0.00     0.011 A
HETATM    9  C7  UNL     1      -9.236  15.247  22.191  1.00  0.00    -0.006 A
HETATM   10  C8  UNL     1      -8.017  16.004  22.646  1.00  0.00     0.041 C
HETATM   11  C9  UNL     1      -8.442  17.178  23.489  1.00  0.00     0.196 C
ENDROOT
BRANCH   1  12
HETATM   12  C2  UNL     1      -9.615  17.669  28.286  1.00  0.00     0.174 C
HETATM   13  C1  UNL     1      -8.171  17.688  28.863  1.00  0.00     0.042 C
BRANCH  12  14
HETATM   14  C18 UNL     1     -10.552  17.259  29.332  1.00  0.00     0.240 C
HETATM   15  O4  UNL     1     -11.395  18.055  29.807  1.00  0.00    -0.271 OA
HETATM   16  N5  UNL     1     -10.517  15.906  29.828  1.00  0.00    -0.353 N
ATOM     17  H5  UNL     1      -9.821  15.280  29.423  1.00  0.00     0.163 HD
BRANCH  16  18
HETATM   18  C19 UNL     1     -11.366  15.371  30.830  1.00  0.00     0.102 C
HETATM   19  C20 UNL     1     -10.708  15.492  32.188  1.00  0.00     0.028 C
HETATM   20  C21 UNL     1     -11.474  14.841  33.278  1.00  0.00     0.022 C
HETATM   21  C22 UNL     1     -12.680  14.088  32.857  1.00  0.00     0.127 C
HETATM   22  N6  UNL     1     -12.519  13.417  31.576  1.00  0.00    -0.332 N
HETATM   23  C23 UNL     1     -13.340  12.295  31.328  1.00  0.00     0.318 C
HETATM   24  C30 UNL     1     -11.559  13.853  30.600  1.00  0.00     0.152 C
HETATM   25  O5  UNL     1     -13.219  11.718  30.192  1.00  0.00    -0.247 OA
HETATM   26  N7  UNL     1     -14.285  11.742  32.223  1.00  0.00    -0.338 N
ATOM     27  H7  UNL     1     -14.424  12.162  33.142  1.00  0.00     0.164 HD
BRANCH  26  28
HETATM   28  C24 UNL     1     -15.051  10.588  31.838  1.00  0.00     0.089 C
HETATM   29  C25 UNL     1     -16.535  10.863  31.819  1.00  0.00     0.033 C
BRANCH  28  30
HETATM   30  C26 UNL     1     -14.712   9.451  32.777  1.00  0.00    -0.031 C
HETATM   31  C27 UNL     1     -14.231  10.070  34.088  1.00  0.00     0.016 C
HETATM   32  C28 UNL     1     -15.876   8.565  33.089  1.00  0.00     0.016 C
HETATM   33  C29 UNL     1     -13.546   8.683  32.191  1.00  0.00     0.016 C
ENDBRANCH  28  30
ENDBRANCH  26  28
ENDBRANCH  16  18
ENDBRANCH  12  14
ENDBRANCH   1  12
BRANCH  11  34
HETATM   34  C10 UNL     1      -7.199  17.873  24.013  1.00  0.00     0.310 C
HETATM   35  O2  UNL     1      -7.143  19.109  23.659  1.00  0.00    -0.255 OA
HETATM   36  N3  UNL     1      -6.208  17.262  24.785  1.00  0.00    -0.407 NA
BRANCH  36  37
HETATM   37  C11 UNL     1      -5.260  16.685  25.520  1.00  0.00     0.170 C
BRANCH  37  38
HETATM   38  C12 UNL     1      -4.080  17.688  25.828  1.00  0.00     0.048 C
BRANCH  38  39
HETATM   39  C13 UNL     1      -3.104  17.612  24.675  1.00  0.00     0.102 C
BRANCH  39  40
HETATM   40  C14 UNL     1      -3.115  18.902  23.963  1.00  0.00     0.231 C
HETATM   41  N4  UNL     1      -2.250  19.944  24.393  1.00  0.00    -0.062 NA
HETATM   42  O3  UNL     1      -3.864  19.091  22.997  1.00  0.00    -0.277 OA
ENDBRANCH  39  40
ENDBRANCH  38  39
ENDBRANCH  37  38
BRANCH  37  43
HETATM   43  C15 UNL     1      -5.699  16.280  26.942  1.00  0.00     0.013 C
HETATM   44  C16 UNL     1      -4.496  16.057  27.831  1.00  0.00     0.012 C
HETATM   45  C17 UNL     1      -6.449  14.974  26.837  1.00  0.00     0.012 C
ENDBRANCH  37  43
ENDBRANCH  36  37
ENDBRANCH  11  34
TORSDOF 11
ENDMDL