MODEL 2
REMARK VINA RESULT: -9.041879538      1.102      1.475
REMARK  16 active torsions:
REMARK  status: ('A' for Active; 'I' for Inactive)
REMARK    1  A    between atoms: C2_2  and  O1_3
REMARK    2  A    between atoms: C2_2  and  N1_5
REMARK    3  A    between atoms: N1_5  and  C3_7
REMARK    4  A    between atoms: C3_7  and  O2_8
REMARK    5  A    between atoms: C3_7  and  C4_10
REMARK    6  A    between atoms: N2_19  and  C13_20
REMARK    7  A    between atoms: C13_20  and  O3_21
REMARK    8  A    between atoms: C13_20  and  C14_23
REMARK    9  A    between atoms: C14_23  and  N3_24
REMARK   10  A    between atoms: C14_23  and  N6_40
REMARK       I    between atoms: N3_24  and  C15_26
REMARK   11  A    between atoms: C15_26  and  C16_28
REMARK   12  A    between atoms: C16_28  and  N4_30
REMARK       I    between atoms: N4_30  and  C18_32
REMARK       I    between atoms: C18_32  and  N5_34
REMARK   13  A    between atoms: N5_34  and  C19_36
REMARK   14  A    between atoms: N6_40  and  C23_42
REMARK   15  A    between atoms: C23_42  and  C25_44
REMARK   16  A    between atoms: C25_44  and  C26_45
ROOT
HETATM    1  C14 UNL     1      -9.860  15.811  27.762  1.00  0.00     0.156 C
ENDROOT
BRANCH   1   2
HETATM    2  C13 UNL     1      -9.979  16.638  26.586  1.00  0.00     0.184 C
BRANCH   2   3
HETATM    3  N2  UNL     1      -9.561  16.456  25.242  1.00  0.00    -0.347 N
HETATM    4  C4  UNL     1      -8.802  17.562  24.616  1.00  0.00     0.162 C
HETATM    5  C5  UNL     1      -8.757  17.566  23.150  1.00  0.00     0.043 C
HETATM    6  C6  UNL     1      -9.078  16.305  22.427  1.00  0.00    -0.037 C
HETATM    7  C7  UNL     1      -7.886  15.393  22.258  1.00  0.00     0.010 C
HETATM    8  C10 UNL     1      -9.547  16.621  21.024  1.00  0.00     0.010 C
HETATM    9  C11 UNL     1     -10.175  15.520  23.113  1.00  0.00     0.029 C
HETATM   10  C8  UNL     1      -7.335  15.798  20.899  1.00  0.00     0.001 C
HETATM   11  C9  UNL     1      -8.580  15.909  20.082  1.00  0.00     0.001 C
HETATM   12  C12 UNL     1      -9.723  15.244  24.497  1.00  0.00     0.127 C
BRANCH   4  13
HETATM   13  C3  UNL     1      -7.491  17.624  25.282  1.00  0.00     0.140 C
BRANCH  13  14
HETATM   14  N1  UNL     1      -6.521  16.618  25.378  1.00  0.00    -0.324 N
ATOM     15  H1  UNL     1      -6.871  15.749  25.780  1.00  0.00     0.169 HD
BRANCH  14  16
HETATM   16  C2  UNL     1      -5.177  16.570  25.034  1.00  0.00     0.112 C
HETATM   17  C1  UNL     1      -3.969  16.510  25.852  1.00  0.00     0.097 C
BRANCH  16  18
HETATM   18  O1  UNL     1      -4.934  16.578  23.747  1.00  0.00    -0.350 OA
ATOM     19  H1  UNL     1      -5.707  16.422  23.216  1.00  0.00     0.219 HD
ENDBRANCH  16  18
ENDBRANCH  14  16
ENDBRANCH  13  14
BRANCH  13  20
HETATM   20  O2  UNL     1      -7.173  18.750  25.860  1.00  0.00    -0.348 OA
ATOM     21  H2  UNL     1      -7.884  19.377  25.933  1.00  0.00     0.219 HD
ENDBRANCH  13  20
ENDBRANCH   4  13
ENDBRANCH   2   3
BRANCH   2  22
HETATM   22  O3  UNL     1     -10.579  17.804  26.761  1.00  0.00    -0.343 OA
ATOM     23  H3  UNL     1     -11.390  17.714  27.247  1.00  0.00     0.219 HD
ENDBRANCH   2  22
ENDBRANCH   1   2
BRANCH   1  24
HETATM   24  N3  UNL     1     -11.150  15.247  28.185  1.00  0.00    -0.308 N
HETATM   25  C15 UNL     1     -12.127  15.926  28.935  1.00  0.00     0.245 C
HETATM   26  O4  UNL     1     -11.990  17.089  29.337  1.00  0.00    -0.271 OA
ATOM     27  H3  UNL     1     -11.353  14.286  27.912  1.00  0.00     0.170 HD
BRANCH  25  28
HETATM   28  C16 UNL     1     -13.394  15.196  29.259  1.00  0.00     0.174 C
HETATM   29  C17 UNL     1     -14.405  15.355  28.164  1.00  0.00     0.042 C
BRANCH  28  30
HETATM   30  N4  UNL     1     -13.224  13.827  29.584  1.00  0.00    -0.330 N
HETATM   31  C18 UNL     1     -13.645  13.211  30.792  1.00  0.00     0.317 C
HETATM   32  O5  UNL     1     -14.181  13.874  31.703  1.00  0.00    -0.247 OA
HETATM   33  N5  UNL     1     -13.444  11.815  30.937  1.00  0.00    -0.335 N
ATOM     34  H5  UNL     1     -13.017  11.297  30.170  1.00  0.00     0.165 HD
ATOM     35  H4  UNL     1     -12.762  13.236  28.892  1.00  0.00     0.165 HD
BRANCH  33  36
HETATM   36  C19 UNL     1     -13.819  11.109  32.120  1.00  0.00     0.023 C
HETATM   37  C20 UNL     1     -15.343  11.119  32.256  1.00  0.00     0.037 C
HETATM   38  C21 UNL     1     -13.458   9.617  31.940  1.00  0.00     0.037 C
HETATM   39  C22 UNL     1     -13.174  11.666  33.338  1.00  0.00     0.037 C
ENDBRANCH  33  36
ENDBRANCH  28  30
ENDBRANCH  25  28
ENDBRANCH   1  24
BRANCH   1  40
HETATM   40  N6  UNL     1      -8.962  15.896  28.782  1.00  0.00    -0.368 N
ATOM     41  H6  UNL     1      -9.057  15.213  29.534  1.00  0.00     0.161 HD
BRANCH  40  42
HETATM   42  C23 UNL     1      -7.923  16.823  28.905  1.00  0.00     0.084 C
HETATM   43  C24 UNL     1      -6.559  16.295  28.828  1.00  0.00     0.032 C
BRANCH  42  44
HETATM   44  C25 UNL     1      -8.117  17.802  30.062  1.00  0.00     0.082 C
BRANCH  44  45
HETATM   45  C26 UNL     1      -8.770  17.062  31.196  1.00  0.00     0.017 A
HETATM   46  N7  UNL     1     -10.112  16.956  31.413  1.00  0.00    -0.363 N
HETATM   47  C27 UNL     1     -10.323  16.231  32.520  1.00  0.00     0.006 A
ATOM     48  H7  UNL     1     -10.840  17.363  30.825  1.00  0.00     0.165 HD
HETATM   49  C28 UNL     1     -11.618  15.842  33.158  1.00  0.00     0.068 C
HETATM   50  C29 UNL     1      -9.092  15.845  33.054  1.00  0.00     0.033 A
HETATM   51  C30 UNL     1      -8.152  16.376  32.211  1.00  0.00    -0.037 A
HETATM   52  C31 UNL     1      -6.650  16.252  32.348  1.00  0.00     0.050 C
ENDBRANCH  44  45
ENDBRANCH  42  44
ENDBRANCH  40  42
ENDBRANCH   1  40
TORSDOF 16
ENDMDL