MODEL 3
REMARK VINA RESULT: -10.401533887      1.967      9.938
REMARK  8 active torsions:
REMARK  status: ('A' for Active; 'I' for Inactive)
REMARK    1  A    between atoms: C2_2  and  C4_4
REMARK    2  A    between atoms: C7_7  and  C8_8
REMARK       I    between atoms: C8_8  and  N1_10
REMARK    3  A    between atoms: N1_10  and  C10_12
REMARK    4  A    between atoms: C10_12  and  C11_13
REMARK    5  A    between atoms: C11_13  and  C12_14
REMARK    6  A    between atoms: C12_14  and  N2_15
REMARK       I    between atoms: N2_15  and  C13_17
REMARK    7  A    between atoms: C13_17  and  C14_19
REMARK    8  A    between atoms: C27_32  and  C29_34
ROOT
HETATM    1  C4  UNL     1      -5.767  17.702  27.528  1.00  0.00     0.019 C
HETATM    2  C5  UNL     1      -6.132  19.128  27.238  1.00  0.00     0.010 C
HETATM    3  C6  UNL     1      -7.050  19.099  26.037  1.00  0.00     0.020 C
HETATM    4  C7  UNL     1      -7.376  17.645  25.799  1.00  0.00     0.046 C
HETATM    5  C17 UNL     1      -8.833  17.370  25.521  1.00  0.00     0.020 C
HETATM    6  C18 UNL     1      -9.632  16.759  26.604  1.00  0.00     0.011 C
HETATM    7  C19 UNL     1      -8.978  15.634  27.363  1.00  0.00    -0.032 C
HETATM    8  C20 UNL     1      -8.424  14.557  26.462  1.00  0.00     0.016 C
HETATM    9  C21 UNL     1      -7.738  16.317  27.957  1.00  0.00     0.000 C
HETATM   10  C22 UNL     1      -8.151  17.320  28.977  1.00  0.00     0.006 C
HETATM   11  C23 UNL     1      -9.319  16.858  29.859  1.00  0.00     0.006 C
HETATM   12  C24 UNL     1      -9.370  15.382  29.833  1.00  0.00    -0.001 C
HETATM   13  C25 UNL     1     -10.190  14.750  30.926  1.00  0.00    -0.001 C
HETATM   14  C26 UNL     1      -9.540  15.045  32.234  1.00  0.00     0.024 C
HETATM   15  C27 UNL     1     -10.376  15.088  33.459  1.00  0.00     0.035 C
HETATM   16  C28 UNL     1     -10.153  13.816  34.300  1.00  0.00     0.025 C
HETATM   17  C30 UNL     1     -11.851  15.304  33.219  1.00  0.00     0.019 C
HETATM   18  C31 UNL     1     -12.024  15.973  31.906  1.00  0.00     0.011 C
HETATM   19  C32 UNL     1     -11.649  14.965  30.800  1.00  0.00    -0.040 C
HETATM   20  C33 UNL     1     -12.459  13.724  31.244  1.00  0.00     0.015 C
HETATM   21  C34 UNL     1     -12.174  15.368  29.480  1.00  0.00     0.010 C
HETATM   22  C35 UNL     1     -11.284  15.554  28.319  1.00  0.00     0.011 C
HETATM   23  C36 UNL     1      -9.877  15.046  28.432  1.00  0.00    -0.032 C
HETATM   24  C37 UNL     1      -9.950  13.564  28.185  1.00  0.00     0.016 C
HETATM   25  C38 UNL     1      -6.815  16.837  26.895  1.00  0.00     0.016 C
ENDROOT
BRANCH   4  26
HETATM   26  C8  UNL     1      -6.729  17.349  24.452  1.00  0.00     0.228 C
HETATM   27  O1  UNL     1      -6.531  16.148  24.155  1.00  0.00    -0.273 OA
HETATM   28  N1  UNL     1      -6.343  18.324  23.522  1.00  0.00    -0.356 N
HETATM   29  C9  UNL     1      -6.503  19.738  23.609  1.00  0.00     0.152 C
BRANCH  28  30
HETATM   30  C10 UNL     1      -5.686  17.829  22.296  1.00  0.00     0.127 C
BRANCH  30  31
HETATM   31  C11 UNL     1      -6.552  18.090  21.072  1.00  0.00     0.039 C
BRANCH  31  32
HETATM   32  C12 UNL     1      -6.739  16.753  20.399  1.00  0.00     0.124 C
BRANCH  32  33
HETATM   33  N2  UNL     1      -7.553  15.878  21.214  1.00  0.00    -0.361 N
HETATM   34  C13 UNL     1      -8.947  16.020  21.403  1.00  0.00     0.221 C
HETATM   35  O2  UNL     1      -9.549  16.957  20.836  1.00  0.00    -0.273 OA
ATOM     36  H2  UNL     1      -7.087  15.103  21.687  1.00  0.00     0.162 HD
BRANCH  34  37
HETATM   37  C14 UNL     1      -9.712  15.088  22.256  1.00  0.00     0.070 C
HETATM   38  C15 UNL     1      -8.770  14.271  23.085  1.00  0.00     0.019 C
HETATM   39  C16 UNL     1     -10.645  15.908  23.110  1.00  0.00     0.019 C
ENDBRANCH  34  37
ENDBRANCH  32  33
ENDBRANCH  31  32
ENDBRANCH  30  31
ENDBRANCH  28  30
ENDBRANCH   4  26
BRANCH   1  40
HETATM   40  C2  UNL     1      -4.412  17.307  27.083  1.00  0.00    -0.089 C
HETATM   41  C1  UNL     1      -3.817  17.582  25.960  1.00  0.00     0.014 C
HETATM   42  C3  UNL     1      -3.624  16.502  28.099  1.00  0.00     0.043 C
ENDBRANCH   1  40
BRANCH  15  43
HETATM   43  C29 UNL     1      -9.957  16.190  34.363  1.00  0.00     0.239 C
HETATM   44  N3  UNL     1     -10.798  16.571  35.440  1.00  0.00    -0.061 NA
HETATM   45  O3  UNL     1      -8.881  16.803  34.215  1.00  0.00    -0.276 OA
ENDBRANCH  15  43
TORSDOF 8
ENDMDL