MODEL 4
REMARK VINA RESULT: -9.487170051      5.432     12.427
REMARK  8 active torsions:
REMARK  status: ('A' for Active; 'I' for Inactive)
REMARK    1  A    between atoms: C2_2  and  C4_4
REMARK    2  A    between atoms: C5_5  and  N1_6
REMARK       I    between atoms: N1_6  and  C6_8
REMARK       I    between atoms: C6_8  and  N2_10
REMARK    3  A    between atoms: N2_10  and  C7_12
REMARK    4  A    between atoms: C7_12  and  C8_13
REMARK    5  A    between atoms: C7_12  and  C13_19
REMARK    6  A    between atoms: C8_13  and  N3_14
REMARK    7  A    between atoms: N3_14  and  C10_16
REMARK    8  A    between atoms: C13_19  and  N4_21
ROOT
HETATM    1  N4  UNL     1      -7.344  17.226  24.630  1.00  0.00    -0.373 N
HETATM    2  C14 UNL     1      -8.715  17.446  24.914  1.00  0.00     0.124 C
HETATM    3  C15 UNL     1      -9.065  17.365  26.407  1.00  0.00     0.030 C
HETATM    4  C16 UNL     1      -7.951  17.760  27.277  1.00  0.00    -0.029 C
HETATM    5  C17 UNL     1      -7.791  19.290  27.117  1.00  0.00     0.016 C
HETATM    6  C18 UNL     1      -7.732  17.334  28.643  1.00  0.00     0.004 C
HETATM    7  C19 UNL     1      -8.712  16.864  29.594  1.00  0.00    -0.004 C
HETATM    8  C20 UNL     1     -10.115  16.611  29.192  1.00  0.00     0.006 C
HETATM    9  C21 UNL     1     -10.934  16.482  30.495  1.00  0.00     0.006 C
HETATM   10  C22 UNL     1     -10.439  15.243  31.184  1.00  0.00     0.002 C
HETATM   11  C23 UNL     1     -11.278  14.836  32.354  1.00  0.00    -0.043 C
HETATM   12  C24 UNL     1     -12.157  13.617  32.041  1.00  0.00     0.015 C
HETATM   13  C25 UNL     1     -12.274  15.947  32.717  1.00  0.00     0.015 C
HETATM   14  C26 UNL     1     -10.525  14.517  33.602  1.00  0.00     0.009 C
HETATM   15  C27 UNL     1      -9.268  13.748  33.394  1.00  0.00     0.002 C
HETATM   16  C28 UNL     1      -8.600  13.952  32.077  1.00  0.00     0.010 C
HETATM   17  C29 UNL     1      -8.959  15.294  31.478  1.00  0.00    -0.036 C
HETATM   18  C30 UNL     1      -8.601  16.347  32.497  1.00  0.00     0.016 C
HETATM   19  C31 UNL     1      -8.189  15.571  30.237  1.00  0.00    -0.002 C
HETATM   20  C32 UNL     1      -8.082  14.455  29.269  1.00  0.00     0.006 C
HETATM   21  C33 UNL     1      -7.365  14.918  28.025  1.00  0.00     0.006 C
HETATM   22  C34 UNL     1      -6.763  16.260  28.123  1.00  0.00     0.001 C
HETATM   23  C35 UNL     1      -6.625  17.117  26.904  1.00  0.00    -0.016 C
HETATM   24  C36 UNL     1      -5.418  18.057  27.062  1.00  0.00     0.018 C
HETATM   25  C37 UNL     1      -6.576  16.463  25.592  1.00  0.00     0.133 C
ENDROOT
BRANCH   1  26
HETATM   26  C13 UNL     1      -6.737  17.695  23.469  1.00  0.00     0.100 C
HETATM   27  S1  UNL     1      -6.563  19.345  23.309  1.00  0.00    -0.063 SA
BRANCH  26  28
HETATM   28  C7  UNL     1      -6.227  16.824  22.346  1.00  0.00     0.176 C
BRANCH  28  29
HETATM   29  N2  UNL     1      -6.265  17.732  21.178  1.00  0.00    -0.330 N
HETATM   30  C6  UNL     1      -5.393  17.544  20.056  1.00  0.00     0.320 C
HETATM   31  N1  UNL     1      -5.422  18.393  18.942  1.00  0.00    -0.319 N
HETATM   32  O1  UNL     1      -4.599  16.578  20.114  1.00  0.00    -0.247 OA
ATOM     33  H1  UNL     1      -6.072  19.173  19.046  1.00  0.00     0.169 HD
ATOM     34  H2  UNL     1      -6.926  18.509  21.172  1.00  0.00     0.165 HD
BRANCH  31  35
HETATM   35  C5  UNL     1      -4.749  18.397  17.719  1.00  0.00     0.089 C
HETATM   36  C4  UNL     1      -5.138  17.721  16.503  1.00  0.00    -0.006 C
BRANCH  36  37
HETATM   37  C2  UNL     1      -5.427  16.320  16.275  1.00  0.00     0.001 C
HETATM   38  C1  UNL     1      -4.276  15.437  15.902  1.00  0.00     0.013 C
HETATM   39  C3  UNL     1      -6.612  16.083  15.334  1.00  0.00     0.013 C
ENDBRANCH  36  37
ENDBRANCH  31  35
ENDBRANCH  28  29
BRANCH  28  40
HETATM   40  C8  UNL     1      -7.250  15.760  21.991  1.00  0.00     0.304 C
BRANCH  40  41
HETATM   41  N3  UNL     1      -8.579  16.244  21.770  1.00  0.00     0.090 N
HETATM   42  C9  UNL     1      -8.764  16.232  20.296  1.00  0.00     0.310 C
BRANCH  41  43
HETATM   43  C10 UNL     1      -9.487  15.188  22.301  1.00  0.00     0.214 C
HETATM   44  C11 UNL     1     -10.704  15.807  22.952  1.00  0.00     0.042 C
HETATM   45  C12 UNL     1      -8.768  14.307  23.282  1.00  0.00     0.042 C
ENDBRANCH  41  43
ENDBRANCH  40  41
ENDBRANCH  28  40
ENDBRANCH  26  28
ENDBRANCH   1  26
TORSDOF 8
ENDMDL