MODEL 3
REMARK VINA RESULT: -8.619639294      2.800      5.007
REMARK  8 active torsions:
REMARK  status: ('A' for Active; 'I' for Inactive)
REMARK    1  A    between atoms: C2_2  and  C4_4
REMARK    2  A    between atoms: C7_7  and  C8_8
REMARK       I    between atoms: C8_8  and  N1_10
REMARK    3  A    between atoms: N1_10  and  C9_12
REMARK    4  A    between atoms: C9_12  and  C10_13
REMARK    5  A    between atoms: C26_29  and  C27_30
REMARK       I    between atoms: C27_30  and  N2_32
REMARK    6  A    between atoms: N2_32  and  C28_34
REMARK    7  A    between atoms: C28_34  and  C29_35
REMARK    8  A    between atoms: C28_34  and  C32_40
REMARK       I    between atoms: C29_35  and  N3_37
ROOT
HETATM    1  C4  UNL     1      -5.648  18.177  27.210  1.00  0.00     0.019 C
HETATM    2  C5  UNL     1      -5.575  19.552  26.514  1.00  0.00     0.010 C
HETATM    3  C6  UNL     1      -6.247  19.327  25.181  1.00  0.00     0.020 C
HETATM    4  C7  UNL     1      -7.009  18.024  25.297  1.00  0.00     0.045 C
HETATM    5  C16 UNL     1      -8.488  18.204  24.979  1.00  0.00     0.020 C
HETATM    6  C17 UNL     1      -9.120  16.859  25.204  1.00  0.00     0.012 C
HETATM    7  C18 UNL     1      -8.928  16.234  26.539  1.00  0.00    -0.029 C
HETATM    8  C19 UNL     1      -8.920  14.708  26.285  1.00  0.00     0.016 C
HETATM    9  C20 UNL     1      -7.635  16.551  27.238  1.00  0.00     0.001 C
HETATM   10  C21 UNL     1      -7.835  16.703  28.744  1.00  0.00     0.006 C
HETATM   11  C22 UNL     1      -8.915  17.634  29.143  1.00  0.00     0.006 C
HETATM   12  C23 UNL     1     -10.090  17.679  28.236  1.00  0.00    -0.001 C
HETATM   13  C24 UNL     1     -11.352  17.834  29.024  1.00  0.00     0.010 C
HETATM   14  C25 UNL     1     -11.767  16.654  29.820  1.00  0.00     0.044 C
HETATM   15  C26 UNL     1     -11.034  15.403  29.483  1.00  0.00     0.007 C
HETATM   16  C35 UNL     1     -10.294  15.280  28.400  1.00  0.00    -0.004 C
HETATM   17  C36 UNL     1     -10.151  16.410  27.439  1.00  0.00    -0.014 C
HETATM   18  C37 UNL     1     -11.427  16.383  26.611  1.00  0.00     0.021 C
HETATM   19  C38 UNL     1      -6.963  17.765  26.746  1.00  0.00     0.016 C
ENDROOT
BRANCH  15  20
HETATM   20  C27 UNL     1     -11.164  14.292  30.419  1.00  0.00     0.248 C
HETATM   21  O2  UNL     1     -10.154  13.537  30.625  1.00  0.00    -0.268 OA
HETATM   22  N2  UNL     1     -12.348  13.998  31.114  1.00  0.00    -0.344 N
ATOM     23  H2  UNL     1     -13.172  14.580  30.969  1.00  0.00     0.163 HD
BRANCH  22  24
HETATM   24  C28 UNL     1     -12.419  12.863  32.047  1.00  0.00     0.180 C
BRANCH  24  25
HETATM   25  C29 UNL     1     -12.650  13.365  33.407  1.00  0.00     0.242 C
HETATM   26  O3  UNL     1     -13.882  13.341  33.786  1.00  0.00    -0.271 OA
HETATM   27  N3  UNL     1     -11.720  13.858  34.324  1.00  0.00    -0.359 N
HETATM   28  C30 UNL     1     -10.325  13.967  34.003  1.00  0.00     0.152 C
HETATM   29  C31 UNL     1     -12.144  14.277  35.641  1.00  0.00     0.152 C
ENDBRANCH  24  25
BRANCH  24  30
HETATM   30  C32 UNL     1     -13.556  11.956  31.619  1.00  0.00     0.009 C
HETATM   31  C33 UNL     1     -13.082  10.636  31.096  1.00  0.00     0.012 C
HETATM   32  C34 UNL     1     -14.427  12.625  30.597  1.00  0.00     0.012 C
ENDBRANCH  24  30
ENDBRANCH  22  24
ENDBRANCH  15  20
BRANCH   4  33
HETATM   33  C8  UNL     1      -6.418  17.084  24.359  1.00  0.00     0.226 C
HETATM   34  O1  UNL     1      -6.017  15.919  24.561  1.00  0.00    -0.273 OA
HETATM   35  N1  UNL     1      -6.263  17.532  23.011  1.00  0.00    -0.360 N
ATOM     36  H1  UNL     1      -6.569  18.475  22.777  1.00  0.00     0.162 HD
BRANCH  35  37
HETATM   37  C9  UNL     1      -5.700  16.722  21.973  1.00  0.00     0.127 C
BRANCH  37  38
HETATM   38  C10 UNL     1      -6.755  16.432  20.938  1.00  0.00     0.003 C
HETATM   39  C11 UNL     1      -6.287  16.781  19.541  1.00  0.00     0.006 C
HETATM   40  C12 UNL     1      -7.529  16.822  18.666  1.00  0.00     0.000 C
HETATM   41  C13 UNL     1      -8.624  15.928  19.219  1.00  0.00     0.000 C
HETATM   42  C14 UNL     1      -9.158  16.469  20.528  1.00  0.00     0.000 C
HETATM   43  C15 UNL     1      -8.022  17.220  21.189  1.00  0.00     0.006 C
ENDBRANCH  37  38
ENDBRANCH  35  37
ENDBRANCH   4  33
BRANCH   1  44
HETATM   44  C2  UNL     1      -4.468  17.361  27.067  1.00  0.00    -0.089 C
HETATM   45  C1  UNL     1      -4.215  16.365  27.891  1.00  0.00     0.014 C
HETATM   46  C3  UNL     1      -3.483  17.566  25.956  1.00  0.00     0.043 C
ENDBRANCH   1  44
TORSDOF 8
ENDMDL