MODEL 3
REMARK VINA RESULT: -6.725547269      8.453     15.084
REMARK  8 active torsions:
REMARK  status: ('A' for Active; 'I' for Inactive)
REMARK    1  A    between atoms: C2_2  and  C4_4
REMARK    2  A    between atoms: C7_7  and  C8_8
REMARK       I    between atoms: C8_8  and  N1_10
REMARK    3  A    between atoms: N1_10  and  C9_12
REMARK    4  A    between atoms: C9_12  and  C10_13
REMARK    5  A    between atoms: C9_12  and  C14_17
REMARK    6  A    between atoms: C10_13  and  C11_14
REMARK    7  A    between atoms: C24_29  and  C25_30
REMARK    8  A    between atoms: C25_30  and  N3_32
ROOT
HETATM    1  C4  UNL     1      -5.812  18.174  18.258  1.00  0.00     0.029 C
HETATM    2  C5  UNL     1      -6.459  16.806  18.321  1.00  0.00     0.012 C
HETATM    3  C6  UNL     1      -6.662  16.565  19.815  1.00  0.00     0.025 C
HETATM    4  C7  UNL     1      -5.448  17.165  20.448  1.00  0.00     0.072 C
HETATM    5  C15 UNL     1      -4.356  16.087  20.604  1.00  0.00    -0.009 C
HETATM    6  C16 UNL     1      -3.069  16.373  21.099  1.00  0.00    -0.018 C
HETATM    7  C17 UNL     1      -1.825  16.875  20.391  1.00  0.00    -0.005 C
HETATM    8  C18 UNL     1      -0.985  17.397  21.562  1.00  0.00     0.021 C
HETATM    9  C19 UNL     1      -1.069  15.754  19.781  1.00  0.00     0.007 C
HETATM   10  C20 UNL     1      -1.976  14.713  19.210  1.00  0.00     0.007 C
HETATM   11  C21 UNL     1      -1.229  13.497  18.640  1.00  0.00     0.010 C
HETATM   12  C22 UNL     1      -0.243  13.904  17.591  1.00  0.00    -0.034 C
HETATM   13  C23 UNL     1      -0.838  14.434  16.341  1.00  0.00     0.016 C
HETATM   14  C24 UNL     1       0.803  12.848  17.372  1.00  0.00     0.016 C
HETATM   15  C29 UNL     1       1.801  13.672  16.624  1.00  0.00     0.008 C
HETATM   16  C30 UNL     1       1.837  15.005  17.431  1.00  0.00     0.007 C
HETATM   17  C31 UNL     1       0.643  14.915  18.276  1.00  0.00     0.003 C
HETATM   18  C32 UNL     1       0.081  16.135  18.883  1.00  0.00    -0.035 C
HETATM   19  C33 UNL     1       1.296  16.611  19.730  1.00  0.00     0.016 C
HETATM   20  C34 UNL     1      -0.211  17.297  18.008  1.00  0.00     0.011 C
HETATM   21  C35 UNL     1      -1.597  17.811  18.061  1.00  0.00     0.023 C
HETATM   22  C36 UNL     1      -2.162  18.036  19.423  1.00  0.00     0.019 C
HETATM   23  C37 UNL     1      -1.498  19.352  19.859  1.00  0.00     0.029 C
HETATM   24  C38 UNL     1      -3.575  18.207  19.442  1.00  0.00    -0.165 C
HETATM   25  C39 UNL     1      -4.968  18.300  19.491  1.00  0.00     0.082 C
ENDROOT
BRANCH   4  26
HETATM   26  C8  UNL     1      -5.679  17.722  21.798  1.00  0.00     0.232 C
HETATM   27  O1  UNL     1      -5.306  18.924  22.019  1.00  0.00    -0.272 OA
HETATM   28  N1  UNL     1      -6.272  17.011  22.823  1.00  0.00    -0.347 N
ATOM     29  H1  UNL     1      -6.576  16.049  22.670  1.00  0.00     0.163 HD
BRANCH  28  30
HETATM   30  C9  UNL     1      -6.467  17.648  24.145  1.00  0.00     0.174 C
BRANCH  30  31
HETATM   31  C10 UNL     1      -5.548  16.901  25.071  1.00  0.00     0.038 C
BRANCH  31  32
HETATM   32  C11 UNL     1      -4.422  17.705  25.600  1.00  0.00    -0.020 C
HETATM   33  C12 UNL     1      -4.791  19.171  25.601  1.00  0.00     0.009 C
HETATM   34  C13 UNL     1      -3.215  17.559  24.659  1.00  0.00     0.009 C
ENDBRANCH  31  32
ENDBRANCH  30  31
BRANCH  30  35
HETATM   35  C14 UNL     1      -7.867  17.532  24.557  1.00  0.00     0.254 C
HETATM   36  N2  UNL     1      -8.442  18.121  25.694  1.00  0.00    -0.060 NA
HETATM   37  O2  UNL     1      -8.627  16.824  23.800  1.00  0.00    -0.275 OA
ENDBRANCH  30  35
ENDBRANCH  28  30
ENDBRANCH   4  26
BRANCH   1  38
HETATM   38  C2  UNL     1      -5.214  18.394  16.964  1.00  0.00    -0.088 C
HETATM   39  C1  UNL     1      -4.942  19.546  16.373  1.00  0.00     0.014 C
HETATM   40  C3  UNL     1      -4.812  17.179  16.135  1.00  0.00     0.043 C
ENDBRANCH   1  38
BRANCH  14  41
HETATM   41  C25 UNL     1       0.559  11.519  16.977  1.00  0.00     0.079 C
HETATM   42  C26 UNL     1       0.763  11.084  15.548  1.00  0.00     0.032 C
BRANCH  41  43
HETATM   43  N3  UNL     1       1.132  10.505  17.781  1.00  0.00    -0.417 N
HETATM   44  C27 UNL     1       0.681  10.281  19.100  1.00  0.00     0.143 C
HETATM   45  C28 UNL     1       1.516   9.288  17.166  1.00  0.00     0.143 C
ENDBRANCH  41  43
ENDBRANCH  14  41
TORSDOF 8
ENDMDL