MODEL 2
REMARK VINA RESULT: -8.044482353      2.188      4.314
REMARK  8 active torsions:
REMARK  status: ('A' for Active; 'I' for Inactive)
REMARK    1  A    between atoms: C2_2  and  C4_4
REMARK    2  A    between atoms: C7_7  and  C8_8
REMARK    3  A    between atoms: C22_24  and  C23_25
REMARK       I    between atoms: C23_25  and  N2_27
REMARK    4  A    between atoms: N2_27  and  C24_29
REMARK    5  A    between atoms: C24_29  and  C25_30
REMARK    6  A    between atoms: C25_30  and  C26_31
REMARK    7  A    between atoms: C26_31  and  N3_32
REMARK    8  A    between atoms: N3_32  and  C28_34
ROOT
HETATM    1  C8  UNL     1      -6.096  16.031  27.172  1.00  0.00     0.237 C
HETATM    2  O1  UNL     1      -5.582  16.085  28.311  1.00  0.00    -0.280 OA
HETATM    3  C9  UNL     1      -5.243  16.529  26.102  1.00  0.00     0.139 C
HETATM    4  N1  UNL     1      -4.572  16.940  25.250  1.00  0.00    -0.188 NA
ENDROOT
BRANCH   1   5
HETATM    5  C7  UNL     1      -7.457  15.513  26.861  1.00  0.00     0.040 C
HETATM    6  C6  UNL     1      -7.283  14.938  25.435  1.00  0.00     0.019 C
HETATM    7  C5  UNL     1      -8.678  15.023  24.859  1.00  0.00     0.010 C
HETATM    8  C4  UNL     1      -9.027  16.448  25.272  1.00  0.00     0.019 C
HETATM    9  C39 UNL     1      -8.467  16.553  26.644  1.00  0.00     0.015 C
HETATM   10  C14 UNL     1      -9.551  16.654  27.724  1.00  0.00     0.000 C
HETATM   11  C12 UNL     1     -10.085  15.382  28.249  1.00  0.00    -0.032 C
HETATM   12  C15 UNL     1      -9.225  17.718  28.722  1.00  0.00     0.006 C
HETATM   13  C11 UNL     1      -9.179  14.206  28.200  1.00  0.00     0.011 C
HETATM   14  C13 UNL     1     -11.388  14.926  27.552  1.00  0.00     0.016 C
HETATM   15  C37 UNL     1     -10.638  15.682  29.665  1.00  0.00    -0.032 C
HETATM   16  C10 UNL     1      -7.778  14.404  27.792  1.00  0.00     0.020 C
HETATM   17  C17 UNL     1      -9.485  16.003  30.548  1.00  0.00     0.003 C
HETATM   18  C36 UNL     1     -11.333  14.467  30.234  1.00  0.00     0.011 C
HETATM   19  C38 UNL     1     -11.676  16.754  29.554  1.00  0.00     0.016 C
HETATM   20  C16 UNL     1      -8.970  17.346  30.111  1.00  0.00     0.006 C
HETATM   21  C18 UNL     1      -9.655  15.802  32.009  1.00  0.00    -0.035 C
HETATM   22  C19 UNL     1      -9.060  17.024  32.717  1.00  0.00     0.016 C
HETATM   23  C20 UNL     1      -8.771  14.645  32.462  1.00  0.00     0.011 C
HETATM   24  C34 UNL     1     -11.079  15.647  32.457  1.00  0.00     0.003 C
HETATM   25  C21 UNL     1      -9.449  13.681  33.373  1.00  0.00     0.015 C
HETATM   26  C22 UNL     1     -10.232  14.364  34.472  1.00  0.00     0.086 C
HETATM   27  C31 UNL     1     -11.288  15.260  33.890  1.00  0.00    -0.031 C
HETATM   28  C32 UNL     1     -12.617  14.541  34.063  1.00  0.00     0.016 C
HETATM   29  C33 UNL     1     -11.380  16.491  34.799  1.00  0.00     0.016 C
HETATM   30  C35 UNL     1     -11.922  14.794  31.577  1.00  0.00     0.007 C
BRANCH   8  31
HETATM   31  C2  UNL     1      -8.516  17.304  24.216  1.00  0.00    -0.089 C
HETATM   32  C1  UNL     1      -7.801  18.374  24.347  1.00  0.00     0.014 C
HETATM   33  C3  UNL     1      -8.863  16.895  22.794  1.00  0.00     0.043 C
ENDBRANCH   8  31
BRANCH  26  34
HETATM   34  C23 UNL     1     -10.753  13.297  35.367  1.00  0.00     0.222 C
HETATM   35  O2  UNL     1     -10.814  13.453  36.634  1.00  0.00    -0.273 OA
HETATM   36  N2  UNL     1     -11.212  12.048  34.867  1.00  0.00    -0.361 N
ATOM     37  H2  UNL     1     -11.180  11.886  33.861  1.00  0.00     0.162 HD
BRANCH  36  38
HETATM   38  C24 UNL     1     -11.720  11.006  35.710  1.00  0.00     0.124 C
BRANCH  38  39
HETATM   39  C25 UNL     1     -12.734  10.134  35.005  1.00  0.00     0.050 C
BRANCH  39  40
HETATM   40  C26 UNL     1     -13.680  11.017  34.230  1.00  0.00     0.274 C
BRANCH  40  41
HETATM   41  N3  UNL     1     -13.616  10.609  32.835  1.00  0.00     0.088 N
HETATM   42  C27 UNL     1     -13.364   9.177  32.827  1.00  0.00     0.310 C
BRANCH  41  43
HETATM   43  C28 UNL     1     -14.853  10.928  32.143  1.00  0.00     0.214 C
HETATM   44  C29 UNL     1     -15.162   9.728  31.257  1.00  0.00     0.042 C
HETATM   45  C30 UNL     1     -14.604  12.163  31.318  1.00  0.00     0.042 C
ENDBRANCH  41  43
ENDBRANCH  40  41
ENDBRANCH  39  40
ENDBRANCH  38  39
ENDBRANCH  36  38
ENDBRANCH  26  34
ENDBRANCH   1   5
TORSDOF 8
ENDMDL