MODEL 4
REMARK VINA RESULT: -9.051430385      1.246      2.122
REMARK  10 active torsions:
REMARK  status: ('A' for Active; 'I' for Inactive)
REMARK    1  A    between atoms: C2_2  and  C3_3
REMARK    2  A    between atoms: C4_4  and  C5_5
REMARK    3  A    between atoms: C5_5  and  C7_7
REMARK    4  A    between atoms: C18_18  and  C19_19
REMARK       I    between atoms: C19_19  and  N1_21
REMARK    5  A    between atoms: N1_21  and  C20_23
REMARK    6  A    between atoms: C29_32  and  C30_33
REMARK    7  A    between atoms: C32_35  and  C33_36
REMARK    8  A    between atoms: C33_36  and  C35_38
REMARK    9  A    between atoms: C35_38  and  O2_39
REMARK   10  A    between atoms: C35_38  and  N2_41
ROOT
HETATM    1  C7  UNL     1      -9.759  15.837  28.305  1.00  0.00     0.001 C
HETATM    2  C8  UNL     1      -9.233  14.594  27.591  1.00  0.00     0.006 C
HETATM    3  C9  UNL     1     -10.306  13.503  27.805  1.00  0.00     0.006 C
HETATM    4  C10 UNL     1     -11.158  14.184  28.847  1.00  0.00    -0.000 C
HETATM    5  C11 UNL     1     -12.282  13.496  29.427  1.00  0.00     0.012 C
HETATM    6  C12 UNL     1     -12.741  12.213  28.819  1.00  0.00    -0.009 C
HETATM    7  C13 UNL     1     -13.403  12.137  27.535  1.00  0.00     0.011 C
HETATM    8  C14 UNL     1     -13.632  11.497  29.820  1.00  0.00    -0.014 C
HETATM    9  C15 UNL     1     -12.876  10.997  31.015  1.00  0.00     0.010 C
HETATM   10  C16 UNL     1     -14.777  12.349  30.267  1.00  0.00     0.006 C
HETATM   11  C17 UNL     1     -14.693  13.772  29.852  1.00  0.00     0.020 C
HETATM   12  C18 UNL     1     -13.308  14.397  30.008  1.00  0.00     0.045 C
HETATM   13  C25 UNL     1     -13.417  15.777  29.425  1.00  0.00     0.020 C
HETATM   14  C26 UNL     1     -12.105  16.413  29.076  1.00  0.00     0.011 C
HETATM   15  C27 UNL     1     -11.234  15.562  28.242  1.00  0.00    -0.036 C
HETATM   16  C28 UNL     1     -11.612  15.563  26.787  1.00  0.00     0.016 C
ENDROOT
BRANCH   1  17
HETATM   17  C5  UNL     1      -9.183  17.106  27.935  1.00  0.00     0.009 C
HETATM   18  C6  UNL     1      -8.209  17.492  29.083  1.00  0.00     0.014 C
BRANCH  17  19
HETATM   19  C4  UNL     1      -8.347  17.093  26.739  1.00  0.00    -0.022 C
HETATM   20  C3  UNL     1      -8.704  17.654  25.565  1.00  0.00     0.003 C
BRANCH  20  21
HETATM   21  C2  UNL     1      -7.834  17.592  24.463  1.00  0.00    -0.062 C
HETATM   22  C1  UNL     1      -6.529  18.415  24.650  1.00  0.00     0.048 C
HETATM   23  C29 UNL     1      -7.937  16.962  23.342  1.00  0.00     0.013 C
BRANCH  23  24
HETATM   24  C30 UNL     1      -8.962  16.134  22.838  1.00  0.00    -0.065 C
HETATM   25  C31 UNL     1     -10.104  15.649  23.665  1.00  0.00     0.048 C
HETATM   26  C32 UNL     1      -8.961  15.731  21.551  1.00  0.00    -0.008 C
BRANCH  26  27
HETATM   27  C33 UNL     1      -7.983  16.050  20.540  1.00  0.00     0.079 C
HETATM   28  C34 UNL     1      -8.013  17.584  20.312  1.00  0.00     0.023 C
BRANCH  27  29
HETATM   29  C35 UNL     1      -6.590  15.734  20.875  1.00  0.00     0.121 C
BRANCH  29  30
HETATM   30  O2  UNL     1      -6.378  14.653  21.581  1.00  0.00    -0.349 OA
ATOM     31  H2  UNL     1      -5.543  14.586  22.029  1.00  0.00     0.219 HD
ENDBRANCH  29  30
BRANCH  29  32
HETATM   32  N2  UNL     1      -5.441  16.451  20.528  1.00  0.00    -0.355 N
HETATM   33  C36 UNL     1      -4.853  16.289  19.178  1.00  0.00     0.145 C
HETATM   34  C37 UNL     1      -4.877  17.653  18.483  1.00  0.00     0.142 C
HETATM   35  N3  UNL     1      -4.141  18.613  19.317  1.00  0.00    -0.358 N
HETATM   36  C38 UNL     1      -3.805  18.204  20.617  1.00  0.00     0.235 C
ATOM     37  H3  UNL     1      -3.887  19.537  18.968  1.00  0.00     0.162 HD
HETATM   38  O3  UNL     1      -2.703  18.537  21.162  1.00  0.00    -0.272 OA
HETATM   39  C39 UNL     1      -4.758  17.345  21.406  1.00  0.00     0.227 C
ENDBRANCH  29  32
ENDBRANCH  27  29
ENDBRANCH  26  27
ENDBRANCH  23  24
ENDBRANCH  20  21
ENDBRANCH  17  19
ENDBRANCH   1  17
BRANCH  12  40
HETATM   40  C19 UNL     1     -13.142  14.592  31.472  1.00  0.00     0.227 C
HETATM   41  O1  UNL     1     -14.196  14.667  32.206  1.00  0.00    -0.273 OA
HETATM   42  N1  UNL     1     -11.944  14.713  32.183  1.00  0.00    -0.356 N
ATOM     43  H1  UNL     1     -11.067  14.661  31.664  1.00  0.00     0.162 HD
BRANCH  42  44
HETATM   44  C20 UNL     1     -11.880  14.908  33.620  1.00  0.00     0.084 C
HETATM   45  C21 UNL     1     -10.829  15.881  34.048  1.00  0.00     0.025 C
HETATM   46  C22 UNL     1      -9.938  15.204  35.056  1.00  0.00     0.002 C
HETATM   47  C23 UNL     1     -10.823  14.131  35.629  1.00  0.00     0.002 C
HETATM   48  C24 UNL     1     -11.530  13.635  34.360  1.00  0.00     0.025 C
ENDBRANCH  42  44
ENDBRANCH  12  40
TORSDOF 10
ENDMDL