MODEL 4
REMARK VINA RESULT: -9.889627493      0.839      1.330
REMARK  9 active torsions:
REMARK  status: ('A' for Active; 'I' for Inactive)
REMARK    1  A    between atoms: C2_2  and  N1_3
REMARK    2  A    between atoms: N1_3  and  C3_4
REMARK    3  A    between atoms: N1_3  and  C5_6
REMARK    4  A    between atoms: C5_6  and  C6_7
REMARK    5  A    between atoms: C6_7  and  N2_8
REMARK       I    between atoms: N2_8  and  C7_10
REMARK    6  A    between atoms: C7_10  and  C8_12
REMARK    7  A    between atoms: C19_23  and  C20_24
REMARK    8  A    between atoms: C27_31  and  C28_32
REMARK       I    between atoms: C28_32  and  N3_34
REMARK    9  A    between atoms: N3_34  and  C29_36
ROOT
HETATM    1  C8  UNL     1      -7.983  16.783  24.715  1.00  0.00     0.045 C
HETATM    2  C9  UNL     1      -7.774  18.133  24.010  1.00  0.00     0.020 C
HETATM    3  C10 UNL     1      -6.379  18.662  24.179  1.00  0.00     0.006 C
HETATM    4  C11 UNL     1      -6.290  18.961  25.665  1.00  0.00    -0.014 C
HETATM    5  C12 UNL     1      -5.118  19.852  25.979  1.00  0.00     0.010 C
HETATM    6  C13 UNL     1      -6.201  17.646  26.358  1.00  0.00    -0.009 C
HETATM    7  C14 UNL     1      -4.701  17.290  26.347  1.00  0.00     0.011 C
HETATM    8  C15 UNL     1      -7.051  16.546  25.832  1.00  0.00     0.012 C
HETATM    9  C16 UNL     1      -7.787  15.777  26.874  1.00  0.00    -0.000 C
HETATM   10  C17 UNL     1      -7.028  15.337  28.073  1.00  0.00     0.006 C
HETATM   11  C18 UNL     1      -8.206  14.586  28.718  1.00  0.00     0.006 C
HETATM   12  C19 UNL     1      -9.383  15.480  28.547  1.00  0.00    -0.001 C
HETATM   13  C36 UNL     1      -9.052  16.329  27.374  1.00  0.00    -0.036 C
HETATM   14  C37 UNL     1      -9.215  17.763  27.643  1.00  0.00     0.016 C
HETATM   15  C38 UNL     1      -9.987  16.078  26.172  1.00  0.00     0.011 C
HETATM   16  C39 UNL     1      -9.437  16.672  24.939  1.00  0.00     0.020 C
ENDROOT
BRANCH  12  17
HETATM   17  C20 UNL     1      -9.923  16.080  29.772  1.00  0.00    -0.000 C
HETATM   18  C21 UNL     1      -9.324  17.330  30.293  1.00  0.00     0.006 C
HETATM   19  C22 UNL     1      -8.429  16.932  31.474  1.00  0.00     0.006 C
HETATM   20  C23 UNL     1      -8.703  15.509  31.800  1.00  0.00     0.004 C
HETATM   21  C24 UNL     1      -9.560  15.406  33.056  1.00  0.00    -0.030 C
HETATM   22  C34 UNL     1      -9.928  15.163  31.000  1.00  0.00    -0.023 C
HETATM   23  C25 UNL     1      -9.187  16.491  34.039  1.00  0.00     0.016 C
HETATM   24  C26 UNL     1      -9.563  14.085  33.752  1.00  0.00     0.016 C
HETATM   25  C27 UNL     1     -10.715  15.716  32.152  1.00  0.00     0.095 C
HETATM   26  C35 UNL     1     -10.153  13.736  30.649  1.00  0.00     0.017 C
BRANCH  25  27
HETATM   27  C28 UNL     1     -12.012  15.181  32.476  1.00  0.00     0.223 C
HETATM   28  O2  UNL     1     -12.735  15.707  33.345  1.00  0.00    -0.273 OA
HETATM   29  N3  UNL     1     -12.530  14.036  31.829  1.00  0.00    -0.356 N
ATOM     30  H3  UNL     1     -11.939  13.605  31.118  1.00  0.00     0.162 HD
BRANCH  29  31
HETATM   31  C29 UNL     1     -13.801  13.418  32.070  1.00  0.00     0.084 C
HETATM   32  C30 UNL     1     -14.216  12.735  30.788  1.00  0.00     0.025 C
HETATM   33  C31 UNL     1     -15.271  11.765  31.273  1.00  0.00     0.002 C
HETATM   34  C32 UNL     1     -14.531  11.125  32.450  1.00  0.00     0.002 C
HETATM   35  C33 UNL     1     -13.657  12.203  32.999  1.00  0.00     0.025 C
ENDBRANCH  29  31
ENDBRANCH  25  27
ENDBRANCH  12  17
BRANCH   1  36
HETATM   36  C7  UNL     1      -7.635  15.819  23.589  1.00  0.00     0.226 C
HETATM   37  N2  UNL     1      -7.180  16.308  22.334  1.00  0.00    -0.359 N
ATOM     38  H2  UNL     1      -7.099  17.317  22.212  1.00  0.00     0.162 HD
HETATM   39  O1  UNL     1      -7.739  14.590  23.739  1.00  0.00    -0.273 OA
BRANCH  37  40
HETATM   40  C6  UNL     1      -6.819  15.448  21.208  1.00  0.00     0.152 C
BRANCH  40  41
HETATM   41  C5  UNL     1      -6.077  16.130  20.136  1.00  0.00     0.292 C
BRANCH  41  42
HETATM   42  N1  UNL     1      -4.663  16.162  20.337  1.00  0.00     0.089 N
BRANCH  42  43
HETATM   43  C2  UNL     1      -4.037  17.369  20.709  1.00  0.00     0.268 C
HETATM   44  C1  UNL     1      -3.570  17.526  22.122  1.00  0.00     0.037 C
ENDBRANCH  42  43
BRANCH  42  45
HETATM   45  C3  UNL     1      -4.013  15.753  19.050  1.00  0.00     0.268 C
HETATM   46  C4  UNL     1      -4.761  16.506  17.974  1.00  0.00     0.037 C
ENDBRANCH  42  45
ENDBRANCH  41  42
ENDBRANCH  40  41
ENDBRANCH  37  40
ENDBRANCH   1  36
TORSDOF 9
ENDMDL