MODEL 3
REMARK VINA RESULT: -6.343418968      0.876      1.033
REMARK  8 active torsions:
REMARK  status: ('A' for Active; 'I' for Inactive)
REMARK    1  A    between atoms: C2_2  and  C3_3
REMARK    2  A    between atoms: C3_3  and  C4_4
REMARK    3  A    between atoms: C4_4  and  N1_5
REMARK       I    between atoms: N1_5  and  C5_7
REMARK       I    between atoms: C5_7  and  N2_9
REMARK    4  A    between atoms: N2_9  and  C6_11
REMARK    5  A    between atoms: C6_11  and  C7_12
REMARK    6  A    between atoms: C22_27  and  C23_28
REMARK    7  A    between atoms: C23_28  and  N3_30
REMARK    8  A    between atoms: C29_35  and  C30_36
REMARK       I    between atoms: C30_36  and  N4_38
ROOT
HETATM    1  C7  UNL     1      -6.427  17.888  19.874  1.00  0.00     0.005 C
HETATM    2  C8  UNL     1      -6.453  18.236  18.449  1.00  0.00     0.015 C
HETATM    3  C9  UNL     1      -5.236  17.780  17.699  1.00  0.00    -0.043 C
HETATM    4  C10 UNL     1      -5.097  18.869  16.585  1.00  0.00     0.015 C
HETATM    5  C11 UNL     1      -5.460  16.540  16.906  1.00  0.00     0.015 C
HETATM    6  C12 UNL     1      -4.017  17.905  18.510  1.00  0.00     0.002 C
HETATM    7  C13 UNL     1      -2.741  17.911  17.757  1.00  0.00     0.007 C
HETATM    8  C14 UNL     1      -1.583  17.212  18.444  1.00  0.00     0.011 C
HETATM    9  C15 UNL     1      -1.483  17.622  19.920  1.00  0.00    -0.032 C
HETATM   10  C16 UNL     1      -1.143  19.124  19.735  1.00  0.00     0.016 C
HETATM   11  C17 UNL     1      -2.783  17.530  20.607  1.00  0.00     0.003 C
HETATM   12  C18 UNL     1      -2.875  16.871  21.911  1.00  0.00     0.006 C
HETATM   13  C19 UNL     1      -1.521  16.601  22.598  1.00  0.00     0.006 C
HETATM   14  C20 UNL     1      -0.700  15.924  21.611  1.00  0.00     0.000 C
HETATM   15  C21 UNL     1       0.501  15.198  21.841  1.00  0.00     0.014 C
HETATM   16  C22 UNL     1       0.873  14.061  22.579  1.00  0.00     0.024 C
HETATM   17  C27 UNL     1       1.948  13.393  21.694  1.00  0.00     0.008 C
HETATM   18  C28 UNL     1       2.333  14.554  20.725  1.00  0.00     0.020 C
HETATM   19  C29 UNL     1       0.939  14.925  20.379  1.00  0.00     0.046 C
HETATM   20  C33 UNL     1       0.664  16.238  19.747  1.00  0.00     0.030 C
HETATM   21  C34 UNL     1      -0.281  17.033  20.609  1.00  0.00    -0.031 C
HETATM   22  C35 UNL     1       0.580  18.090  21.219  1.00  0.00     0.016 C
HETATM   23  C36 UNL     1      -3.990  17.062  19.763  1.00  0.00    -0.035 C
HETATM   24  C37 UNL     1      -4.079  15.609  19.552  1.00  0.00     0.016 C
HETATM   25  C38 UNL     1      -5.207  17.465  20.560  1.00  0.00     0.016 C
ENDROOT
BRANCH   1  26
HETATM   26  C6  UNL     1      -7.523  16.820  20.083  1.00  0.00     0.129 C
BRANCH  26  27
HETATM   27  N2  UNL     1      -7.203  16.020  21.238  1.00  0.00    -0.343 N
HETATM   28  C5  UNL     1      -8.012  15.733  22.343  1.00  0.00     0.316 C
HETATM   29  N1  UNL     1      -7.550  14.906  23.395  1.00  0.00    -0.343 N
HETATM   30  O1  UNL     1      -9.165  16.189  22.446  1.00  0.00    -0.247 OA
ATOM     31  H1  UNL     1      -6.606  14.526  23.330  1.00  0.00     0.164 HD
ATOM     32  H2  UNL     1      -6.269  15.612  21.252  1.00  0.00     0.164 HD
BRANCH  29  33
HETATM   33  C4  UNL     1      -8.339  14.572  24.551  1.00  0.00     0.124 C
BRANCH  33  34
HETATM   34  C3  UNL     1      -8.061  15.397  25.761  1.00  0.00     0.019 C
BRANCH  34  35
HETATM   35  C2  UNL     1      -8.295  14.539  27.002  1.00  0.00    -0.003 C
HETATM   36  C1  UNL     1      -9.777  14.441  27.324  1.00  0.00     0.005 C
ENDBRANCH  34  35
ENDBRANCH  33  34
ENDBRANCH  29  33
ENDBRANCH  26  27
ENDBRANCH   1  26
BRANCH  19  37
HETATM   37  C30 UNL     1       0.301  13.842  19.678  1.00  0.00     0.228 C
HETATM   38  O2  UNL     1      -0.780  13.276  20.006  1.00  0.00    -0.273 OA
HETATM   39  N4  UNL     1       0.840  13.291  18.518  1.00  0.00    -0.360 N
HETATM   40  C31 UNL     1       0.174  12.188  17.812  1.00  0.00     0.152 C
HETATM   41  C32 UNL     1       2.056  13.715  17.909  1.00  0.00     0.152 C
ENDBRANCH  19  37
BRANCH  16  42
HETATM   42  C23 UNL     1       0.036  13.102  23.298  1.00  0.00     0.222 C
HETATM   43  C24 UNL     1       0.507  11.642  23.021  1.00  0.00     0.043 C
BRANCH  42  44
HETATM   44  N3  UNL     1       0.243  13.176  24.760  1.00  0.00     0.084 N
HETATM   45  C25 UNL     1       1.410  13.879  25.146  1.00  0.00     0.309 C
HETATM   46  C26 UNL     1       0.047  11.900  25.377  1.00  0.00     0.309 C
ENDBRANCH  42  44
ENDBRANCH  16  42
TORSDOF 8
ENDMDL