MODEL 2
REMARK VINA RESULT: -9.455297273      1.482      2.196
REMARK  10 active torsions:
REMARK  status: ('A' for Active; 'I' for Inactive)
REMARK    1  A    between atoms: C2_2  and  C3_3
REMARK    2  A    between atoms: C4_4  and  C5_5
REMARK    3  A    between atoms: C5_5  and  N1_6
REMARK       I    between atoms: N1_6  and  C6_8
REMARK    4  A    between atoms: C6_8  and  O2_10
REMARK    5  A    between atoms: O2_10  and  C7_11
REMARK    6  A    between atoms: C24_28  and  C26_30
REMARK       I    between atoms: C26_30  and  N2_32
REMARK    7  A    between atoms: N2_32  and  C27_34
REMARK    8  A    between atoms: C27_34  and  C28_35
REMARK    9  A    between atoms: C28_35  and  C29_36
REMARK   10  A    between atoms: C29_36  and  N3_37
ROOT
HETATM    1  C7  UNL     1     -12.906  12.192  33.481  1.00  0.00     0.134 C
HETATM    2  C8  UNL     1     -13.883  11.123  33.047  1.00  0.00     0.033 C
HETATM    3  C9  UNL     1     -13.447  10.859  31.598  1.00  0.00     0.012 C
HETATM    4  C10 UNL     1     -14.013  12.046  30.796  1.00  0.00    -0.040 C
HETATM    5  C11 UNL     1     -15.530  11.908  31.028  1.00  0.00     0.015 C
HETATM    6  C12 UNL     1     -13.779  11.705  29.369  1.00  0.00     0.010 C
HETATM    7  C13 UNL     1     -12.632  12.369  28.709  1.00  0.00     0.011 C
HETATM    8  C14 UNL     1     -12.608  13.842  28.956  1.00  0.00    -0.032 C
HETATM    9  C15 UNL     1     -13.777  14.446  28.225  1.00  0.00     0.016 C
HETATM   10  C16 UNL     1     -12.572  14.085  30.405  1.00  0.00    -0.001 C
HETATM   11  C17 UNL     1     -12.655  15.601  30.633  1.00  0.00     0.006 C
HETATM   12  C18 UNL     1     -11.616  16.364  29.907  1.00  0.00     0.006 C
HETATM   13  C19 UNL     1     -11.373  15.962  28.499  1.00  0.00    -0.001 C
HETATM   14  C20 UNL     1     -10.005  16.464  28.015  1.00  0.00    -0.004 C
HETATM   15  C21 UNL     1      -9.925  17.976  28.140  1.00  0.00     0.005 C
HETATM   16  C22 UNL     1      -9.650  18.642  26.805  1.00  0.00     0.002 C
HETATM   17  C23 UNL     1      -8.464  18.066  26.106  1.00  0.00     0.019 C
HETATM   18  C24 UNL     1      -8.481  16.545  26.060  1.00  0.00     0.041 C
HETATM   19  C25 UNL     1      -7.354  16.072  26.930  1.00  0.00     0.026 C
HETATM   20  C32 UNL     1      -9.835  16.119  26.577  1.00  0.00     0.007 C
HETATM   21  C33 UNL     1     -10.029  14.664  26.253  1.00  0.00     0.007 C
HETATM   22  C34 UNL     1     -11.159  13.999  26.958  1.00  0.00     0.011 C
HETATM   23  C35 UNL     1     -11.347  14.466  28.364  1.00  0.00    -0.032 C
HETATM   24  C36 UNL     1     -10.097  13.998  29.111  1.00  0.00     0.016 C
HETATM   25  C37 UNL     1     -13.540  13.351  31.286  1.00  0.00     0.001 C
HETATM   26  C38 UNL     1     -13.057  13.431  32.694  1.00  0.00     0.038 C
ENDROOT
BRANCH  18  27
HETATM   27  C26 UNL     1      -8.253  16.076  24.677  1.00  0.00     0.226 C
HETATM   28  O3  UNL     1      -7.228  15.405  24.412  1.00  0.00    -0.273 OA
HETATM   29  N2  UNL     1      -9.152  16.357  23.631  1.00  0.00    -0.360 N
ATOM     30  H2  UNL     1      -9.993  16.902  23.822  1.00  0.00     0.162 HD
BRANCH  29  31
HETATM   31  C27 UNL     1      -8.897  15.886  22.301  1.00  0.00     0.124 C
BRANCH  31  32
HETATM   32  C28 UNL     1      -9.005  17.000  21.292  1.00  0.00     0.050 C
BRANCH  32  33
HETATM   33  C29 UNL     1      -7.758  17.091  20.452  1.00  0.00     0.273 C
BRANCH  33  34
HETATM   34  N3  UNL     1      -6.593  16.861  21.288  1.00  0.00     0.080 N
HETATM   35  C30 UNL     1      -5.582  16.119  20.562  1.00  0.00     0.309 C
HETATM   36  C31 UNL     1      -6.031  18.122  21.696  1.00  0.00     0.309 C
ENDBRANCH  33  34
ENDBRANCH  32  33
ENDBRANCH  31  32
ENDBRANCH  29  31
ENDBRANCH  18  27
BRANCH   1  37
HETATM   37  O2  UNL     1     -12.975  12.409  34.887  1.00  0.00    -0.299 OA
BRANCH  37  38
HETATM   38  C6  UNL     1     -12.086  13.247  35.553  1.00  0.00     0.361 C
HETATM   39  N1  UNL     1     -12.339  14.588  35.851  1.00  0.00    -0.327 N
ATOM     40  H1  UNL     1     -13.224  15.016  35.579  1.00  0.00     0.165 HD
HETATM   41  O1  UNL     1     -10.994  12.730  35.894  1.00  0.00    -0.238 OA
BRANCH  39  42
HETATM   42  C5  UNL     1     -11.339  15.367  36.550  1.00  0.00     0.219 C
BRANCH  42  43
HETATM   43  C4  UNL     1     -10.343  15.916  35.598  1.00  0.00    -0.087 C
HETATM   44  C3  UNL     1      -9.540  16.350  34.808  1.00  0.00    -0.105 C
BRANCH  44  45
HETATM   45  C2  UNL     1      -8.576  16.861  33.832  1.00  0.00     0.089 C
HETATM   46  C1  UNL     1      -8.743  16.165  32.475  1.00  0.00     0.018 C
ENDBRANCH  44  45
ENDBRANCH  42  43
ENDBRANCH  39  42
ENDBRANCH  37  38
ENDBRANCH   1  37
TORSDOF 10
ENDMDL