MODEL 4
REMARK VINA RESULT: -7.227180401      9.189     12.669
REMARK  11 active torsions:
REMARK  status: ('A' for Active; 'I' for Inactive)
REMARK    1  A    between atoms: C2_2  and  C3_3
REMARK    2  A    between atoms: C2_2  and  C8_12
REMARK    3  A    between atoms: C3_3  and  C4_4
REMARK    4  A    between atoms: C4_4  and  N1_5
REMARK    5  A    between atoms: C4_4  and  C5_9
REMARK    6  A    between atoms: C25_29  and  C27_31
REMARK    7  A    between atoms: C27_31  and  O1_32
REMARK    8  A    between atoms: C27_31  and  C28_34
REMARK    9  A    between atoms: C28_34  and  C29_35
REMARK   10  A    between atoms: C29_35  and  N2_36
REMARK   11  A    between atoms: N2_36  and  C30_39
ROOT
HETATM    1  C8  UNL     1     -10.294  15.224  31.850  1.00  0.00     0.021 C
HETATM    2  C9  UNL     1      -9.966  15.534  30.374  1.00  0.00     0.010 C
HETATM    3  C10 UNL     1     -10.615  14.340  29.699  1.00  0.00     0.011 C
HETATM    4  C11 UNL     1     -11.969  14.431  30.471  1.00  0.00    -0.030 C
HETATM    5  C12 UNL     1     -12.399  15.823  30.136  1.00  0.00     0.016 C
HETATM    6  C13 UNL     1     -11.385  14.180  31.803  1.00  0.00     0.032 C
HETATM    7  C14 UNL     1     -12.294  14.196  33.011  1.00  0.00     0.128 C
HETATM    8  C15 UNL     1     -13.693  14.680  32.687  1.00  0.00     0.033 C
HETATM    9  C16 UNL     1     -14.468  13.877  31.719  1.00  0.00     0.008 C
HETATM   10  C17 UNL     1     -13.735  12.851  30.936  1.00  0.00    -0.001 C
HETATM   11  C18 UNL     1     -14.481  11.659  30.477  1.00  0.00    -0.004 C
HETATM   12  C19 UNL     1     -15.089  10.790  31.517  1.00  0.00     0.015 C
HETATM   13  C20 UNL     1     -13.843   9.933  31.635  1.00  0.00    -0.040 C
HETATM   14  C21 UNL     1     -14.297   8.463  31.460  1.00  0.00     0.015 C
HETATM   15  C22 UNL     1     -12.978  10.076  32.766  1.00  0.00     0.010 C
HETATM   16  C23 UNL     1     -13.540  10.747  34.015  1.00  0.00     0.004 C
HETATM   17  C24 UNL     1     -12.463  11.210  34.959  1.00  0.00     0.040 C
HETATM   18  C25 UNL     1     -12.319  12.771  34.970  1.00  0.00     0.083 C
HETATM   19  C26 UNL     1     -10.985  12.884  35.730  1.00  0.00     0.049 C
HETATM   20  O2  UNL     1     -12.214  13.089  33.730  1.00  0.00    -0.372 OA
HETATM   21  C35 UNL     1     -13.492  10.483  30.302  1.00  0.00    -0.002 C
HETATM   22  C36 UNL     1     -12.173  11.018  29.981  1.00  0.00     0.006 C
HETATM   23  C37 UNL     1     -12.220  12.300  29.132  1.00  0.00     0.011 C
HETATM   24  C38 UNL     1     -12.872  13.459  29.827  1.00  0.00    -0.032 C
HETATM   25  C39 UNL     1     -13.765  14.124  28.782  1.00  0.00     0.016 C
ENDROOT
BRANCH  18  26
HETATM   26  C27 UNL     1     -13.349  13.257  35.902  1.00  0.00     0.153 C
BRANCH  26  27
HETATM   27  O1  UNL     1     -14.573  12.603  35.921  1.00  0.00    -0.393 OA
ATOM     28  H1  UNL     1     -14.762  12.032  36.657  1.00  0.00     0.210 HD
ENDBRANCH  26  27
BRANCH  26  29
HETATM   29  C28 UNL     1     -12.859  13.312  37.327  1.00  0.00     0.062 C
BRANCH  29  30
HETATM   30  C29 UNL     1     -13.781  12.448  38.222  1.00  0.00     0.237 C
BRANCH  30  31
HETATM   31  N2  UNL     1     -13.044  11.231  38.482  1.00  0.00    -0.046 N
ATOM     32  H22 UNL     1     -12.387  11.028  37.728  1.00  0.00     0.279 HD
ATOM     33  H21 UNL     1     -12.379  11.358  39.245  1.00  0.00     0.279 HD
BRANCH  31  34
HETATM   34  C30 UNL     1     -13.921  10.102  38.733  1.00  0.00     0.387 C
HETATM   35  C31 UNL     1     -14.607   9.559  37.500  1.00  0.00     0.091 C
HETATM   36  C32 UNL     1     -14.205   8.213  38.067  1.00  0.00     0.243 C
HETATM   37  N3  UNL     1     -13.152   8.881  38.810  1.00  0.00    -0.046 N
HETATM   38  C33 UNL     1     -11.917   8.946  38.054  1.00  0.00     0.274 C
HETATM   39  C34 UNL     1     -13.015   8.403  40.161  1.00  0.00     0.274 C
ENDBRANCH  31  34
ENDBRANCH  30  31
ENDBRANCH  29  30
ENDBRANCH  26  29
ENDBRANCH  18  26
BRANCH   1  40
HETATM   40  C2  UNL     1      -9.003  14.838  32.415  1.00  0.00    -0.083 C
HETATM   41  C1  UNL     1      -8.424  13.675  32.354  1.00  0.00     0.015 C
BRANCH  40  42
HETATM   42  C3  UNL     1      -8.284  15.934  33.163  1.00  0.00     0.066 C
BRANCH  42  43
HETATM   43  C4  UNL     1      -9.129  16.703  34.103  1.00  0.00     0.190 C
BRANCH  43  44
HETATM   44  N1  UNL     1      -8.264  17.855  34.518  1.00  0.00    -0.074 N
ATOM     45  H13 UNL     1      -8.020  18.491  33.758  1.00  0.00     0.274 HD
ATOM     46  H12 UNL     1      -8.739  18.548  35.096  1.00  0.00     0.274 HD
ATOM     47  H11 UNL     1      -7.460  17.415  34.968  1.00  0.00     0.274 HD
ENDBRANCH  43  44
BRANCH  43  48
HETATM   48  C5  UNL     1      -9.348  15.953  35.409  1.00  0.00     0.008 C
HETATM   49  C6  UNL     1     -10.787  16.203  35.847  1.00  0.00     0.011 C
HETATM   50  C7  UNL     1      -8.488  16.547  36.515  1.00  0.00     0.011 C
ENDBRANCH  43  48
ENDBRANCH  42  43
ENDBRANCH  40  42
ENDBRANCH   1  40
TORSDOF 11
ENDMDL