MODEL 1
REMARK VINA RESULT: -8.487163295      0.000      0.000
REMARK  10 active torsions:
REMARK  status: ('A' for Active; 'I' for Inactive)
REMARK    1  A    between atoms: C2_2  and  C3_3
REMARK    2  A    between atoms: C3_3  and  C4_4
REMARK       I    between atoms: C4_4  and  N1_6
REMARK    3  A    between atoms: N1_6  and  C5_7
REMARK    4  A    between atoms: N1_6  and  C12_17
REMARK    5  A    between atoms: C5_7  and  C6_8
REMARK    6  A    between atoms: C12_17  and  C13_18
REMARK    7  A    between atoms: C12_17  and  C19_28
REMARK    8  A    between atoms: C13_18  and  O3_19
REMARK    9  A    between atoms: C13_18  and  N3_21
REMARK   10  A    between atoms: N3_21  and  C14_23
ROOT
HETATM    1  C4  UNL     1      -6.974  17.153  27.597  1.00  0.00     0.224 C
HETATM    2  O1  UNL     1      -6.698  16.689  28.762  1.00  0.00    -0.273 OA
HETATM    3  N1  UNL     1      -8.269  17.017  27.049  1.00  0.00    -0.318 N
ENDROOT
BRANCH   3   4
HETATM    4  C5  UNL     1      -8.622  17.452  25.777  1.00  0.00     0.084 C
BRANCH   4   5
HETATM    5  C6  UNL     1      -8.061  16.836  24.535  1.00  0.00     0.092 C
HETATM    6  C7  UNL     1      -7.420  17.808  23.548  1.00  0.00     0.041 C
HETATM    7  C8  UNL     1      -7.194  17.204  22.181  1.00  0.00     0.124 C
HETATM    8  N2  UNL     1      -8.304  16.899  21.340  1.00  0.00    -0.360 N
HETATM    9  C9  UNL     1      -9.539  16.171  21.500  1.00  0.00     0.227 C
ATOM     10  H2  UNL     1      -8.200  17.286  20.402  1.00  0.00     0.162 HD
HETATM   11  O2  UNL     1     -10.293  16.023  20.536  1.00  0.00    -0.273 OA
HETATM   12  C10 UNL     1      -9.936  15.572  22.845  1.00  0.00     0.183 C
HETATM   13  C11 UNL     1      -9.074  16.085  23.857  1.00  0.00    -0.164 C
ENDBRANCH   4   5
ENDBRANCH   3   4
BRANCH   3  14
HETATM   14  C12 UNL     1      -9.266  16.433  28.012  1.00  0.00     0.170 C
BRANCH  14  15
HETATM   15  C13 UNL     1      -9.626  17.539  28.935  1.00  0.00     0.136 C
BRANCH  15  16
HETATM   16  O3  UNL     1     -10.263  18.552  28.377  1.00  0.00    -0.348 OA
ATOM     17  H3  UNL     1     -11.134  18.718  28.717  1.00  0.00     0.219 HD
ENDBRANCH  15  16
BRANCH  15  18
HETATM   18  N3  UNL     1      -9.417  17.714  30.300  1.00  0.00    -0.368 N
ATOM     19  H3  UNL     1      -9.422  18.650  30.706  1.00  0.00     0.161 HD
BRANCH  18  20
HETATM   20  C14 UNL     1      -9.191  16.536  31.150  1.00  0.00     0.083 C
HETATM   21  C15 UNL     1     -10.448  15.880  31.598  1.00  0.00     0.025 C
HETATM   22  C16 UNL     1      -9.989  15.022  32.772  1.00  0.00     0.002 C
HETATM   23  C17 UNL     1      -8.619  15.558  33.178  1.00  0.00     0.002 C
HETATM   24  C18 UNL     1      -8.494  16.896  32.439  1.00  0.00     0.025 C
ENDBRANCH  18  20
ENDBRANCH  15  18
ENDBRANCH  14  15
BRANCH  14  25
HETATM   25  C19 UNL     1     -10.365  15.696  27.389  1.00  0.00     0.017 C
HETATM   26  C20 UNL     1     -11.678  16.092  28.080  1.00  0.00     0.007 C
HETATM   27  C21 UNL     1     -12.319  14.794  28.559  1.00  0.00     0.000 C
HETATM   28  C22 UNL     1     -11.719  13.717  27.669  1.00  0.00     0.000 C
HETATM   29  C23 UNL     1     -10.284  14.228  27.614  1.00  0.00     0.007 C
ENDBRANCH  14  25
ENDBRANCH   3  14
BRANCH   1  30
HETATM   30  C3  UNL     1      -5.840  17.821  26.928  1.00  0.00     0.103 C
BRANCH  30  31
HETATM   31  C2  UNL     1      -4.637  16.878  26.838  1.00  0.00     0.005 C
HETATM   32  C1  UNL     1      -4.158  16.844  25.401  1.00  0.00     0.005 C
ENDBRANCH  30  31
ENDBRANCH   1  30
TORSDOF 10
ENDMDL