MODEL 3
REMARK VINA RESULT: -8.547206883      2.049      3.706
REMARK  8 active torsions:
REMARK  status: ('A' for Active; 'I' for Inactive)
REMARK    1  A    between atoms: C2_2  and  N1_3
REMARK    2  A    between atoms: N1_3  and  S1_5
REMARK    3  A    between atoms: S1_5  and  N2_8
REMARK    4  A    between atoms: N2_8  and  C3_9
REMARK    5  A    between atoms: N2_8  and  C12_21
REMARK    6  A    between atoms: C3_9  and  C4_10
REMARK       I    between atoms: C4_10  and  N3_12
REMARK    7  A    between atoms: N3_12  and  C5_14
REMARK    8  A    between atoms: C5_14  and  C6_15
ROOT
HETATM    1  N2  UNL     1      -8.745  17.044  27.370  1.00  0.00    -0.249 N
ENDROOT
BRANCH   1   2
HETATM    2  S1  UNL     1      -8.234  15.740  28.372  1.00  0.00     0.322 S
HETATM    3  O1  UNL     1      -8.805  14.430  27.876  1.00  0.00    -0.182 OA
HETATM    4  O2  UNL     1      -6.724  15.612  28.192  1.00  0.00    -0.182 OA
BRANCH   2   5
HETATM    5  N1  UNL     1      -8.504  15.944  30.035  1.00  0.00    -0.303 N
ATOM      6  H1  UNL     1      -8.170  16.751  30.562  1.00  0.00     0.173 HD
BRANCH   5   7
HETATM    7  C2  UNL     1      -9.254  14.860  30.631  1.00  0.00     0.129 C
HETATM    8  C1  UNL     1     -10.027  15.279  31.839  1.00  0.00     0.027 C
ENDBRANCH   5   7
ENDBRANCH   2   5
ENDBRANCH   1   2
BRANCH   1   9
HETATM    9  C3  UNL     1      -9.657  17.994  27.939  1.00  0.00     0.246 C
BRANCH   9  10
HETATM   10  C4  UNL     1     -10.881  17.490  28.542  1.00  0.00     0.236 C
HETATM   11  O3  UNL     1     -11.254  17.796  29.682  1.00  0.00    -0.272 OA
HETATM   12  N3  UNL     1     -11.704  16.602  27.800  1.00  0.00    -0.359 N
ATOM     13  H3  UNL     1     -11.420  16.334  26.858  1.00  0.00     0.162 HD
BRANCH  12  14
HETATM   14  C5  UNL     1     -12.941  16.062  28.344  1.00  0.00     0.127 C
BRANCH  14  15
HETATM   15  C6  UNL     1     -12.600  14.777  29.051  1.00  0.00     0.003 C
HETATM   16  C7  UNL     1     -12.236  13.725  28.027  1.00  0.00     0.006 C
HETATM   17  C8  UNL     1     -12.348  12.359  28.645  1.00  0.00     0.000 C
HETATM   18  C9  UNL     1     -12.075  12.452  30.143  1.00  0.00     0.000 C
HETATM   19  C10 UNL     1     -13.212  13.192  30.799  1.00  0.00     0.000 C
HETATM   20  C11 UNL     1     -13.761  14.240  29.852  1.00  0.00     0.006 C
ENDBRANCH  14  15
ENDBRANCH  12  14
ENDBRANCH   9  10
ENDBRANCH   1   9
BRANCH   1  21
HETATM   21  C12 UNL     1      -8.223  17.249  26.047  1.00  0.00     0.059 A
HETATM   22  C13 UNL     1      -8.710  16.645  24.940  1.00  0.00    -0.033 A
HETATM   23  C14 UNL     1      -9.852  15.706  24.919  1.00  0.00     0.050 C
HETATM   24  C15 UNL     1      -8.149  16.917  23.687  1.00  0.00     0.016 A
HETATM   25  C16 UNL     1      -7.098  17.789  23.511  1.00  0.00    -0.055 A
HETATM   26  C17 UNL     1      -6.526  18.056  22.178  1.00  0.00     0.049 C
HETATM   27  C18 UNL     1      -6.614  18.396  24.652  1.00  0.00    -0.048 A
HETATM   28  C19 UNL     1      -5.475  19.346  24.487  1.00  0.00     0.049 C
HETATM   29  C20 UNL     1      -7.143  18.150  25.898  1.00  0.00    -0.027 A
HETATM   30  C21 UNL     1      -6.604  18.814  27.093  1.00  0.00     0.051 C
ENDBRANCH   1  21
TORSDOF 8
ENDMDL