MODEL 4
REMARK VINA RESULT: -8.058666646      2.114      3.370
REMARK  8 active torsions:
REMARK  status: ('A' for Active; 'I' for Inactive)
REMARK    1  A    between atoms: C2_2  and  C3_3
REMARK       I    between atoms: C3_3  and  N1_5
REMARK    2  A    between atoms: C5_7  and  C6_8
REMARK       I    between atoms: C6_8  and  N2_10
REMARK    3  A    between atoms: N2_10  and  C7_12
REMARK    4  A    between atoms: C7_12  and  C8_13
REMARK    5  A    between atoms: C7_12  and  C12_17
REMARK    6  A    between atoms: C8_13  and  C9_14
REMARK    7  A    between atoms: C13_20  and  C14_21
REMARK    8  A    between atoms: C14_21  and  C15_22
ROOT
HETATM    1  C3  UNL     1     -11.888  14.521  28.565  1.00  0.00     0.219 C
HETATM    2  O1  UNL     1     -12.802  15.024  29.263  1.00  0.00    -0.273 OA
HETATM    3  N1  UNL     1     -10.680  15.253  28.414  1.00  0.00    -0.347 N
HETATM    4  C4  UNL     1     -10.538  16.522  29.050  1.00  0.00     0.140 C
HETATM    5  C5  UNL     1      -9.189  16.733  29.678  1.00  0.00     0.100 C
HETATM    6  C13 UNL     1      -8.044  16.287  28.853  1.00  0.00     0.002 C
HETATM    7  C21 UNL     1      -8.241  14.989  28.138  1.00  0.00     0.030 C
HETATM    8  C22 UNL     1      -9.599  14.713  27.616  1.00  0.00     0.083 C
HETATM    9  C23 UNL     1      -9.764  15.286  26.211  1.00  0.00     0.032 C
ENDROOT
BRANCH   5  10
HETATM   10  C6  UNL     1      -9.126  16.155  31.055  1.00  0.00     0.224 C
HETATM   11  O2  UNL     1      -7.965  15.826  31.463  1.00  0.00    -0.273 OA
HETATM   12  N2  UNL     1     -10.276  15.983  31.858  1.00  0.00    -0.348 N
ATOM     13  H2  UNL     1     -11.191  16.257  31.502  1.00  0.00     0.163 HD
BRANCH  12  14
HETATM   14  C7  UNL     1     -10.155  15.423  33.170  1.00  0.00     0.174 C
BRANCH  14  15
HETATM   15  C8  UNL     1     -11.152  14.364  33.478  1.00  0.00     0.038 C
BRANCH  15  16
HETATM   16  C9  UNL     1     -12.308  14.220  32.569  1.00  0.00    -0.020 C
HETATM   17  C10 UNL     1     -13.484  15.112  32.848  1.00  0.00     0.009 C
HETATM   18  C11 UNL     1     -12.811  12.775  32.740  1.00  0.00     0.009 C
ENDBRANCH  15  16
ENDBRANCH  14  15
BRANCH  14  19
HETATM   19  C12 UNL     1     -10.003  16.450  34.221  1.00  0.00     0.254 C
HETATM   20  N3  UNL     1      -8.824  17.199  34.428  1.00  0.00    -0.060 NA
HETATM   21  O3  UNL     1     -10.998  16.678  34.991  1.00  0.00    -0.275 OA
ENDBRANCH  14  19
ENDBRANCH  12  14
ENDBRANCH   5  10
BRANCH   6  22
HETATM   22  C14 UNL     1      -7.564  17.302  27.862  1.00  0.00     0.010 C
BRANCH  22  23
HETATM   23  C15 UNL     1      -6.583  16.817  26.858  1.00  0.00    -0.014 C
HETATM   24  C16 UNL     1      -6.574  17.533  25.556  1.00  0.00     0.005 C
HETATM   25  C17 UNL     1      -5.457  18.548  25.444  1.00  0.00     0.000 C
HETATM   26  C18 UNL     1      -4.115  17.860  25.381  1.00  0.00     0.000 C
HETATM   27  C19 UNL     1      -4.120  16.765  26.419  1.00  0.00     0.000 C
HETATM   28  C20 UNL     1      -5.191  17.029  27.478  1.00  0.00     0.005 C
ENDBRANCH  22  23
ENDBRANCH   6  22
BRANCH   1  29
HETATM   29  C2  UNL     1     -12.065  13.177  27.905  1.00  0.00     0.098 C
HETATM   30  C1  UNL     1     -12.406  12.189  28.978  1.00  0.00     0.014 C
ENDBRANCH   1  29
TORSDOF 8
ENDMDL