MODEL 3
REMARK VINA RESULT: -8.526367573      1.375      1.714
REMARK  8 active torsions:
REMARK  status: ('A' for Active; 'I' for Inactive)
REMARK    1  A    between atoms: C2_2  and  C3_3
REMARK    2  A    between atoms: C6_6  and  N1_7
REMARK       I    between atoms: N1_7  and  C7_9
REMARK    3  A    between atoms: C7_9  and  C8_11
REMARK    4  A    between atoms: C8_11  and  C9_12
REMARK    5  A    between atoms: C8_11  and  C17_24
REMARK    6  A    between atoms: C9_12  and  C10_13
REMARK       I    between atoms: C10_13  and  N2_15
REMARK    7  A    between atoms: C13_18  and  C14_19
REMARK    8  A    between atoms: C17_24  and  C18_25
ROOT
HETATM    1  C8  UNL     1     -10.075  16.132  25.878  1.00  0.00     0.087 C
ENDROOT
BRANCH   1   2
HETATM    2  C7  UNL     1      -9.288  17.350  25.994  1.00  0.00     0.222 C
HETATM    3  N1  UNL     1      -7.870  17.387  26.092  1.00  0.00    -0.356 N
ATOM      4  H1  UNL     1      -7.363  16.501  26.078  1.00  0.00     0.162 HD
HETATM    5  O1  UNL     1      -9.882  18.481  26.015  1.00  0.00    -0.273 OA
BRANCH   3   6
HETATM    6  C6  UNL     1      -7.114  18.601  26.208  1.00  0.00     0.088 A
HETATM    7  C3  UNL     1      -5.631  18.475  26.289  1.00  0.00     0.008 A
HETATM    8  C4  UNL     1      -5.646  19.260  27.580  1.00  0.00     0.009 A
HETATM    9  C5  UNL     1      -7.138  19.281  27.533  1.00  0.00     0.026 A
BRANCH   7  10
HETATM   10  C2  UNL     1      -5.101  17.077  26.530  1.00  0.00     0.002 C
HETATM   11  C1  UNL     1      -4.036  16.781  25.502  1.00  0.00     0.005 C
ENDBRANCH   7  10
ENDBRANCH   3   6
ENDBRANCH   1   2
BRANCH   1  12
HETATM   12  C9  UNL     1      -9.405  14.961  26.631  1.00  0.00     0.117 C
BRANCH  12  13
HETATM   13  C10 UNL     1     -10.211  14.566  27.814  1.00  0.00     0.220 C
HETATM   14  O2  UNL     1     -11.259  13.880  27.704  1.00  0.00    -0.273 OA
HETATM   15  N2  UNL     1      -9.819  14.955  29.128  1.00  0.00    -0.352 N
HETATM   16  C11 UNL     1     -10.631  14.549  30.246  1.00  0.00     0.126 C
HETATM   17  C16 UNL     1      -8.619  15.750  29.365  1.00  0.00     0.126 C
HETATM   18  C12 UNL     1      -9.837  14.717  31.505  1.00  0.00     0.033 C
HETATM   19  C13 UNL     1      -9.488  16.178  31.665  1.00  0.00     0.078 C
HETATM   20  C15 UNL     1      -8.914  16.779  30.406  1.00  0.00     0.033 C
BRANCH  19  21
HETATM   21  C14 UNL     1      -8.506  16.340  32.751  1.00  0.00     0.235 C
HETATM   22  N3  UNL     1      -8.900  16.925  33.973  1.00  0.00    -0.062 NA
HETATM   23  O3  UNL     1      -7.328  15.963  32.598  1.00  0.00    -0.277 OA
ENDBRANCH  19  21
ENDBRANCH  12  13
ENDBRANCH   1  12
BRANCH   1  24
HETATM   24  C17 UNL     1     -10.472  15.675  24.517  1.00  0.00     0.019 C
BRANCH  24  25
HETATM   25  C18 UNL     1      -9.693  16.055  23.345  1.00  0.00    -0.014 C
HETATM   26  C19 UNL     1      -8.348  15.505  23.084  1.00  0.00     0.005 C
HETATM   27  C20 UNL     1      -7.667  16.483  22.104  1.00  0.00     0.000 C
HETATM   28  C21 UNL     1      -8.537  16.931  21.003  1.00  0.00     0.000 C
HETATM   29  C22 UNL     1      -9.838  16.248  20.844  1.00  0.00     0.000 C
HETATM   30  C23 UNL     1     -10.506  15.784  22.071  1.00  0.00     0.005 C
ENDBRANCH  24  25
ENDBRANCH   1  24
TORSDOF 8
ENDMDL