MODEL 2
REMARK VINA RESULT: -7.272398111      2.398      4.758
REMARK  10 active torsions:
REMARK  status: ('A' for Active; 'I' for Inactive)
REMARK    1  A    between atoms: C3_3  and  N1_4
REMARK    2  A    between atoms: N1_4  and  C4_5
REMARK    3  A    between atoms: N1_4  and  C9_10
REMARK    4  A    between atoms: C9_10  and  C10_11
REMARK    5  A    between atoms: C9_10  and  C21_28
REMARK       I    between atoms: C10_11  and  N2_13
REMARK    6  A    between atoms: N2_13  and  C11_15
REMARK    7  A    between atoms: C11_15  and  C12_16
REMARK    8  A    between atoms: C11_15  and  C17_24
REMARK    9  A    between atoms: C12_16  and  C13_17
REMARK   10  A    between atoms: C17_24  and  C19_26
ROOT
HETATM    1  C1  UNL     1     -12.906  14.338  33.351  1.00  0.00     0.018 C
HETATM    2  C2  UNL     1     -12.378  14.947  32.452  1.00  0.00    -0.072 C
HETATM    3  C3  UNL     1     -11.733  15.681  31.321  1.00  0.00     0.155 C
ENDROOT
BRANCH   3   4
HETATM    4  N1  UNL     1     -10.650  14.950  30.884  1.00  0.00    -0.343 N
BRANCH   4   5
HETATM    5  C4  UNL     1      -9.466  15.233  31.617  1.00  0.00     0.090 C
HETATM    6  C5  UNL     1      -9.078  16.650  31.796  1.00  0.00     0.026 C
HETATM    7  C6  UNL     1      -7.877  16.536  32.714  1.00  0.00     0.002 C
HETATM    8  C7  UNL     1      -8.163  15.352  33.582  1.00  0.00     0.002 C
HETATM    9  C8  UNL     1      -9.400  14.674  32.997  1.00  0.00     0.026 C
ENDBRANCH   4   5
BRANCH   4  10
HETATM   10  C9  UNL     1     -10.537  14.338  29.632  1.00  0.00     0.088 C
BRANCH  10  11
HETATM   11  C10 UNL     1      -9.624  14.949  28.643  1.00  0.00     0.265 C
HETATM   12  O1  UNL     1      -8.765  14.225  28.013  1.00  0.00    -0.266 OA
HETATM   13  N2  UNL     1      -9.541  16.308  28.257  1.00  0.00    -0.351 N
ATOM     14  H2  UNL     1     -10.191  16.965  28.689  1.00  0.00     0.163 HD
BRANCH  13  15
HETATM   15  C11 UNL     1      -8.600  16.829  27.292  1.00  0.00     0.089 C
BRANCH  15  16
HETATM   16  C12 UNL     1      -9.226  17.652  26.240  1.00  0.00     0.039 C
BRANCH  16  17
HETATM   17  C13 UNL     1      -9.332  17.141  24.861  1.00  0.00     0.081 C
HETATM   18  C14 UNL     1      -9.596  15.677  24.702  1.00  0.00     0.034 C
HETATM   19  C15 UNL     1      -8.717  15.213  23.555  1.00  0.00     0.123 C
HETATM   20  N3  UNL     1      -7.519  15.996  23.836  1.00  0.00    -0.361 N
HETATM   21  C16 UNL     1      -7.982  17.274  24.226  1.00  0.00     0.221 C
ATOM     22  H3  UNL     1      -6.550  15.686  23.766  1.00  0.00     0.162 HD
HETATM   23  O2  UNL     1      -7.303  18.330  24.036  1.00  0.00    -0.273 OA
ENDBRANCH  16  17
ENDBRANCH  15  16
BRANCH  15  24
HETATM   24  C17 UNL     1      -7.377  17.411  27.925  1.00  0.00     0.004 C
HETATM   25  C18 UNL     1      -7.103  18.838  27.520  1.00  0.00     0.012 C
BRANCH  24  26
HETATM   26  C19 UNL     1      -6.130  16.633  27.566  1.00  0.00     0.002 C
HETATM   27  C20 UNL     1      -5.170  17.445  26.725  1.00  0.00     0.005 C
ENDBRANCH  24  26
ENDBRANCH  15  24
ENDBRANCH  13  15
ENDBRANCH  10  11
BRANCH  10  28
HETATM   28  C21 UNL     1     -11.875  13.921  29.041  1.00  0.00    -0.003 C
HETATM   29  C22 UNL     1     -12.320  12.699  29.868  1.00  0.00     0.021 C
HETATM   30  C23 UNL     1     -12.959  14.894  29.037  1.00  0.00     0.021 C
HETATM   31  C24 UNL     1     -11.626  13.360  27.658  1.00  0.00     0.021 C
ENDBRANCH  10  28
ENDBRANCH   4  10
ENDBRANCH   3   4
TORSDOF 10
ENDMDL