MODEL 3
REMARK VINA RESULT: -8.148166889      1.714      3.631
REMARK  9 active torsions:
REMARK  status: ('A' for Active; 'I' for Inactive)
REMARK    1  A    between atoms: C1_2  and  C2_3
REMARK       I    between atoms: C1_2  and  N1_10
REMARK    2  A    between atoms: C2_3  and  C3_4
REMARK    3  A    between atoms: N1_10  and  C9_12
REMARK    4  A    between atoms: C9_12  and  C10_13
REMARK    5  A    between atoms: C10_13  and  C11_14
REMARK    6  A    between atoms: C11_14  and  N2_15
REMARK    7  A    between atoms: N2_15  and  C12_17
REMARK    8  A    between atoms: C12_17  and  C13_19
REMARK       I    between atoms: N3_22  and  C16_23
REMARK    9  A    between atoms: C16_23  and  C17_25
ROOT
HETATM    1  N2  UNL     1      -7.927  16.152  29.429  1.00  0.00    -0.383 N
ATOM      2  H2  UNL     1      -6.956  15.859  29.312  1.00  0.00     0.160 HD
ENDROOT
BRANCH   1   3
HETATM    3  C11 UNL     1      -8.719  15.540  30.445  1.00  0.00     0.122 C
BRANCH   3   4
HETATM    4  C10 UNL     1      -8.350  16.033  31.838  1.00  0.00     0.039 C
BRANCH   4   5
HETATM    5  C9  UNL     1      -9.112  15.327  32.905  1.00  0.00     0.124 C
BRANCH   5   6
HETATM    6  N1  UNL     1     -10.139  14.508  32.331  1.00  0.00    -0.361 N
HETATM    7  C1  UNL     1     -11.523  14.656  32.561  1.00  0.00     0.217 C
HETATM    8  O1  UNL     1     -11.951  15.563  33.331  1.00  0.00    -0.274 OA
ATOM      9  H1  UNL     1      -9.845  13.758  31.705  1.00  0.00     0.162 HD
BRANCH   7  10
HETATM   10  C2  UNL     1     -12.488  13.739  31.896  1.00  0.00     0.107 C
BRANCH  10  11
HETATM   11  C3  UNL     1     -12.226  13.721  30.428  1.00  0.00    -0.006 C
HETATM   12  C4  UNL     1     -12.966  14.900  29.766  1.00  0.00     0.005 C
HETATM   13  C5  UNL     1     -12.717  14.882  28.268  1.00  0.00     0.000 C
HETATM   14  C6  UNL     1     -11.720  13.811  27.877  1.00  0.00     0.000 C
HETATM   15  C7  UNL     1     -12.068  12.446  28.374  1.00  0.00     0.000 C
HETATM   16  C8  UNL     1     -12.796  12.494  29.719  1.00  0.00     0.005 C
ENDBRANCH  10  11
ENDBRANCH   7  10
ENDBRANCH   5   6
ENDBRANCH   4   5
ENDBRANCH   3   4
ENDBRANCH   1   3
BRANCH   1  17
HETATM   17  C12 UNL     1      -8.451  17.151  28.583  1.00  0.00     0.096 C
HETATM   18  S1  UNL     1     -10.015  17.596  28.740  1.00  0.00    -0.063 SA
BRANCH  17  19
HETATM   19  C13 UNL     1      -7.571  17.773  27.561  1.00  0.00     0.150 A
HETATM   20  C14 UNL     1      -6.123  17.529  27.735  1.00  0.00     0.052 A
HETATM   21  C15 UNL     1      -6.163  16.872  26.408  1.00  0.00     0.129 A
HETATM   22  N3  UNL     1      -7.557  17.168  26.258  1.00  0.00    -0.341 N
HETATM   23  C16 UNL     1      -8.569  16.978  25.254  1.00  0.00     0.224 C
HETATM   24  O2  UNL     1      -9.725  17.396  25.485  1.00  0.00    -0.273 OA
BRANCH  23  25
HETATM   25  C17 UNL     1      -8.284  16.306  23.966  1.00  0.00     0.078 C
HETATM   26  C18 UNL     1      -7.570  17.243  23.079  1.00  0.00     0.014 C
HETATM   27  C19 UNL     1      -8.121  17.364  21.688  1.00  0.00     0.001 C
HETATM   28  C20 UNL     1      -8.478  15.945  21.227  1.00  0.00     0.000 C
HETATM   29  C21 UNL     1      -9.728  15.592  22.004  1.00  0.00     0.001 C
HETATM   30  C22 UNL     1      -9.565  15.730  23.466  1.00  0.00     0.014 C
ENDBRANCH  23  25
ENDBRANCH  17  19
ENDBRANCH   1  17
TORSDOF 9
ENDMDL