MODEL 4
REMARK VINA RESULT: -7.495525205      1.572      4.893
REMARK  9 active torsions:
REMARK  status: ('A' for Active; 'I' for Inactive)
REMARK    1  A    between atoms: C2_2  and  C4_4
REMARK    2  A    between atoms: C4_4  and  C5_5
REMARK    3  A    between atoms: C5_5  and  C6_6
REMARK    4  A    between atoms: C5_5  and  N2_16
REMARK       I    between atoms: C6_6  and  N1_8
REMARK    5  A    between atoms: N1_8  and  C7_10
REMARK    6  A    between atoms: C7_10  and  C8_11
REMARK    7  A    between atoms: C8_11  and  C9_12
REMARK    8  A    between atoms: C16_21  and  C17_22
REMARK       I    between atoms: C17_22  and  N3_24
REMARK    9  A    between atoms: N3_24  and  C18_26
ROOT
HETATM    1  N2  UNL     1      -9.296  16.076  28.111  1.00  0.00    -0.299 N
HETATM    2  C13 UNL     1      -9.796  17.013  29.068  1.00  0.00     0.225 C
HETATM    3  O2  UNL     1     -10.597  17.966  28.908  1.00  0.00    -0.273 OA
HETATM    4  C14 UNL     1      -9.177  16.665  30.377  1.00  0.00     0.106 C
HETATM    5  C15 UNL     1      -7.820  16.160  29.940  1.00  0.00     0.044 C
HETATM    6  C16 UNL     1      -7.881  15.824  28.483  1.00  0.00     0.185 C
ENDROOT
BRANCH   1   7
HETATM    7  C5  UNL     1     -10.039  15.478  27.056  1.00  0.00     0.102 C
BRANCH   7   8
HETATM    8  C4  UNL     1     -11.377  14.902  27.337  1.00  0.00     0.012 C
BRANCH   8   9
HETATM    9  C2  UNL     1     -11.650  14.043  28.483  1.00  0.00     0.002 C
HETATM   10  C1  UNL     1     -12.970  14.637  29.112  1.00  0.00     0.013 C
HETATM   11  C3  UNL     1     -12.079  12.625  28.166  1.00  0.00     0.013 C
ENDBRANCH   8   9
ENDBRANCH   7   8
BRANCH   7  12
HETATM   12  C6  UNL     1      -9.925  16.111  25.733  1.00  0.00     0.268 C
HETATM   13  O1  UNL     1      -9.803  17.351  25.546  1.00  0.00    -0.266 OA
HETATM   14  N1  UNL     1      -9.948  15.306  24.554  1.00  0.00    -0.356 N
ATOM     15  H1  UNL     1     -10.041  14.299  24.681  1.00  0.00     0.162 HD
BRANCH  14  16
HETATM   16  C7  UNL     1      -9.855  15.782  23.222  1.00  0.00     0.123 C
BRANCH  16  17
HETATM   17  C8  UNL     1      -8.692  15.226  22.451  1.00  0.00     0.028 C
BRANCH  17  18
HETATM   18  C9  UNL     1      -8.535  15.969  21.139  1.00  0.00    -0.050 C
HETATM   19  C10 UNL     1      -9.299  15.199  20.081  1.00  0.00     0.014 C
HETATM   20  C11 UNL     1      -7.076  16.066  20.769  1.00  0.00     0.014 C
HETATM   21  C12 UNL     1      -9.114  17.356  21.207  1.00  0.00     0.014 C
ENDBRANCH  17  18
ENDBRANCH  16  17
ENDBRANCH  14  16
ENDBRANCH   7  12
ENDBRANCH   1   7
BRANCH   6  22
HETATM   22  C17 UNL     1      -6.938  16.704  27.772  1.00  0.00     0.241 C
HETATM   23  O3  UNL     1      -6.302  17.647  28.298  1.00  0.00    -0.271 OA
HETATM   24  N3  UNL     1      -6.683  16.520  26.361  1.00  0.00    -0.355 N
ATOM     25  H3  UNL     1      -7.168  15.769  25.869  1.00  0.00     0.162 HD
BRANCH  24  26
HETATM   26  C18 UNL     1      -5.769  17.359  25.618  1.00  0.00     0.084 C
HETATM   27  C19 UNL     1      -4.370  16.795  25.560  1.00  0.00     0.025 C
HETATM   28  C20 UNL     1      -3.538  17.640  24.654  1.00  0.00     0.002 C
HETATM   29  C21 UNL     1      -4.132  17.577  23.261  1.00  0.00     0.000 C
HETATM   30  C22 UNL     1      -5.459  18.309  23.318  1.00  0.00     0.002 C
HETATM   31  C23 UNL     1      -6.366  17.558  24.249  1.00  0.00     0.025 C
ENDBRANCH  24  26
ENDBRANCH   6  22
TORSDOF 9
ENDMDL