MODEL 3
REMARK VINA RESULT: -7.671217236      1.675      2.272
REMARK  9 active torsions:
REMARK  status: ('A' for Active; 'I' for Inactive)
REMARK    1  A    between atoms: C2_2  and  C5_5
REMARK       I    between atoms: C5_5  and  N1_7
REMARK    2  A    between atoms: C8_10  and  C9_11
REMARK       I    between atoms: C9_11  and  N2_13
REMARK    3  A    between atoms: N2_13  and  C10_15
REMARK    4  A    between atoms: C10_15  and  C11_16
REMARK    5  A    between atoms: C11_16  and  C12_17
REMARK    6  A    between atoms: C12_17  and  C13_18
REMARK       I    between atoms: C13_18  and  N3_20
REMARK    7  A    between atoms: N3_20  and  C14_22
REMARK    8  A    between atoms: C14_22  and  C15_23
REMARK    9  A    between atoms: C15_23  and  C16_24
ROOT
HETATM    1  C9  UNL     1      -9.061  16.453  24.092  1.00  0.00     0.221 C
HETATM    2  O2  UNL     1      -8.407  17.503  24.300  1.00  0.00    -0.273 OA
HETATM    3  N2  UNL     1      -9.292  16.023  22.772  1.00  0.00    -0.361 N
ATOM      4  H2  UNL     1      -9.821  15.169  22.600  1.00  0.00     0.162 HD
ENDROOT
BRANCH   3   5
HETATM    5  C10 UNL     1      -8.780  16.788  21.664  1.00  0.00     0.123 C
BRANCH   5   6
HETATM    6  C11 UNL     1      -7.487  16.239  21.144  1.00  0.00     0.029 C
BRANCH   6   7
HETATM    7  C12 UNL     1      -6.551  17.335  20.696  1.00  0.00     0.104 C
BRANCH   7   8
HETATM    8  C13 UNL     1      -5.951  18.012  21.873  1.00  0.00     0.217 C
HETATM    9  O3  UNL     1      -6.380  19.145  22.204  1.00  0.00    -0.274 OA
HETATM   10  N3  UNL     1      -4.915  17.404  22.621  1.00  0.00    -0.361 N
ATOM     11  H3  UNL     1      -4.595  16.484  22.320  1.00  0.00     0.162 HD
BRANCH  10  12
HETATM   12  C14 UNL     1      -4.281  17.983  23.767  1.00  0.00     0.123 C
BRANCH  12  13
HETATM   13  C15 UNL     1      -4.177  17.053  24.954  1.00  0.00     0.024 C
BRANCH  13  14
HETATM   14  C16 UNL     1      -5.295  17.406  25.919  1.00  0.00    -0.013 C
HETATM   15  C17 UNL     1      -5.648  18.858  25.924  1.00  0.00     0.005 C
HETATM   16  C18 UNL     1      -6.387  19.203  27.170  1.00  0.00     0.000 C
HETATM   17  C19 UNL     1      -7.139  18.044  27.792  1.00  0.00     0.000 C
HETATM   18  C20 UNL     1      -6.210  16.890  28.105  1.00  0.00     0.000 C
HETATM   19  C21 UNL     1      -4.904  17.021  27.347  1.00  0.00     0.005 C
ENDBRANCH  13  14
ENDBRANCH  12  13
ENDBRANCH  10  12
ENDBRANCH   7   8
ENDBRANCH   6   7
ENDBRANCH   5   6
ENDBRANCH   3   5
BRANCH   1  20
HETATM   20  C8  UNL     1      -9.609  15.632  25.215  1.00  0.00     0.081 C
HETATM   21  C7  UNL     1     -10.579  16.502  25.979  1.00  0.00     0.034 C
HETATM   22  C6  UNL     1     -10.939  15.899  27.320  1.00  0.00     0.126 C
HETATM   23  N1  UNL     1      -9.827  15.308  27.985  1.00  0.00    -0.351 N
HETATM   24  C5  UNL     1      -9.435  15.581  29.302  1.00  0.00     0.227 C
HETATM   25  C23 UNL     1      -9.041  14.339  27.206  1.00  0.00     0.126 C
HETATM   26  O1  UNL     1      -8.411  14.952  29.749  1.00  0.00    -0.273 OA
HETATM   27  C22 UNL     1      -8.461  15.158  26.046  1.00  0.00     0.034 C
BRANCH  24  28
HETATM   28  C2  UNL     1     -10.068  16.514  30.239  1.00  0.00     0.030 C
HETATM   29  C1  UNL     1      -9.098  16.816  31.360  1.00  0.00     0.025 C
HETATM   30  C3  UNL     1     -11.296  15.874  30.881  1.00  0.00     0.025 C
HETATM   31  C4  UNL     1     -10.516  17.794  29.567  1.00  0.00     0.025 C
ENDBRANCH  24  28
ENDBRANCH   1  20
TORSDOF 9
ENDMDL