MODEL 3
REMARK VINA RESULT: -7.940150491      2.215      3.879
REMARK  8 active torsions:
REMARK  status: ('A' for Active; 'I' for Inactive)
REMARK    1  A    between atoms: C2_2  and  C3_3
REMARK    2  A    between atoms: C2_2  and  N2_16
REMARK       I    between atoms: C3_3  and  N1_5
REMARK    3  A    between atoms: N1_5  and  C4_7
REMARK    4  A    between atoms: N2_16  and  C13_17
REMARK       I    between atoms: N2_16  and  C20_24
REMARK    5  A    between atoms: C13_17  and  C14_18
REMARK    6  A    between atoms: C20_24  and  C21_26
REMARK    7  A    between atoms: C21_26  and  C22_27
REMARK    8  A    between atoms: C22_27  and  C23_28
ROOT
HETATM    1  C1  UNL     1     -13.077  15.926  28.336  1.00  0.00     0.042 C
HETATM    2  C2  UNL     1     -12.314  14.833  28.974  1.00  0.00     0.175 C
ENDROOT
BRANCH   2   3
HETATM    3  C3  UNL     1     -10.864  14.838  28.539  1.00  0.00     0.240 C
HETATM    4  O1  UNL     1     -10.198  13.775  28.542  1.00  0.00    -0.271 OA
HETATM    5  N1  UNL     1     -10.230  16.030  28.123  1.00  0.00    -0.354 N
ATOM      6  H1  UNL     1     -10.744  16.911  28.109  1.00  0.00     0.162 HD
BRANCH   5   7
HETATM    7  C4  UNL     1      -8.852  15.985  27.718  1.00  0.00     0.093 C
HETATM    8  C5  UNL     1      -8.163  17.168  28.363  1.00  0.00     0.026 C
HETATM    9  C6  UNL     1      -6.722  17.283  28.026  1.00  0.00     0.002 C
HETATM   10  C7  UNL     1      -6.290  16.814  26.706  1.00  0.00     0.001 C
HETATM   11  C8  UNL     1      -7.211  15.949  25.941  1.00  0.00     0.011 C
HETATM   12  C9  UNL     1      -8.664  16.140  26.234  1.00  0.00    -0.020 C
HETATM   13  C10 UNL     1      -9.512  15.289  25.356  1.00  0.00     0.011 C
HETATM   14  C12 UNL     1      -9.304  17.362  25.624  1.00  0.00     0.011 C
HETATM   15  C11 UNL     1      -9.647  16.490  24.410  1.00  0.00     0.002 C
ENDBRANCH   5   7
ENDBRANCH   2   3
BRANCH   2  16
HETATM   16  N2  UNL     1     -12.376  14.797  30.415  1.00  0.00    -0.339 N
HETATM   17  C20 UNL     1     -13.362  14.024  31.123  1.00  0.00     0.221 C
HETATM   18  O2  UNL     1     -13.331  14.105  32.403  1.00  0.00    -0.273 OA
BRANCH  16  19
HETATM   19  C13 UNL     1     -11.494  15.603  31.228  1.00  0.00     0.131 C
BRANCH  19  20
HETATM   20  C14 UNL     1     -10.378  14.954  31.920  1.00  0.00     0.004 C
HETATM   21  C15 UNL     1     -10.579  15.096  33.432  1.00  0.00     0.006 C
HETATM   22  C16 UNL     1     -10.034  16.395  33.952  1.00  0.00     0.000 C
HETATM   23  C17 UNL     1      -8.573  16.604  33.548  1.00  0.00     0.000 C
HETATM   24  C18 UNL     1      -8.600  16.734  32.019  1.00  0.00     0.000 C
HETATM   25  C19 UNL     1      -9.005  15.342  31.521  1.00  0.00     0.006 C
ENDBRANCH  19  20
ENDBRANCH  16  19
BRANCH  17  26
HETATM   26  C21 UNL     1     -14.377  13.165  30.478  1.00  0.00     0.112 C
BRANCH  26  27
HETATM   27  C22 UNL     1     -14.256  11.772  31.072  1.00  0.00     0.109 C
BRANCH  27  28
HETATM   28  C23 UNL     1     -13.017  11.103  30.624  1.00  0.00     0.231 C
HETATM   29  N3  UNL     1     -12.394  10.051  31.320  1.00  0.00    -0.062 NA
HETATM   30  O3  UNL     1     -12.488  11.498  29.560  1.00  0.00    -0.277 OA
ENDBRANCH  27  28
ENDBRANCH  26  27
ENDBRANCH  17  26
ENDBRANCH   2  16
TORSDOF 8
ENDMDL