MODEL 4
REMARK VINA RESULT: -8.109738023      3.346      8.697
REMARK  8 active torsions:
REMARK  status: ('A' for Active; 'I' for Inactive)
REMARK    1  A    between atoms: C2_2  and  C4_4
REMARK    2  A    between atoms: C4_4  and  C5_5
REMARK    3  A    between atoms: C5_5  and  N1_6
REMARK    4  A    between atoms: C5_5  and  C21_29
REMARK       I    between atoms: N1_6  and  C6_8
REMARK    5  A    between atoms: C6_8  and  C7_10
REMARK       I    between atoms: N2_14  and  C11_15
REMARK    6  A    between atoms: C11_15  and  C12_17
REMARK    7  A    between atoms: C12_17  and  N3_19
REMARK       I    between atoms: N3_19  and  C14_21
REMARK    8  A    between atoms: C14_21  and  C15_23
ROOT
HETATM    1  C7  UNL     1      -6.566  16.719  26.140  1.00  0.00     0.179 C
HETATM    2  C8  UNL     1      -5.593  17.042  27.272  1.00  0.00     0.037 C
HETATM    3  C9  UNL     1      -5.871  18.496  27.543  1.00  0.00     0.022 C
HETATM    4  C10 UNL     1      -7.241  18.791  27.033  1.00  0.00     0.127 C
HETATM    5  N2  UNL     1      -7.732  17.521  26.506  1.00  0.00    -0.337 N
HETATM    6  C11 UNL     1      -9.080  17.152  26.398  1.00  0.00     0.243 C
HETATM    7  O2  UNL     1      -9.969  17.999  26.763  1.00  0.00    -0.271 OA
ENDROOT
BRANCH   1   8
HETATM    8  C6  UNL     1      -6.006  17.117  24.833  1.00  0.00     0.241 C
HETATM    9  N1  UNL     1      -4.637  17.087  24.601  1.00  0.00    -0.354 N
ATOM     10  H1  UNL     1      -4.037  16.780  25.367  1.00  0.00     0.162 HD
HETATM   11  O1  UNL     1      -6.792  17.483  23.935  1.00  0.00    -0.271 OA
BRANCH   9  12
HETATM   12  C5  UNL     1      -3.991  17.459  23.353  1.00  0.00     0.088 C
BRANCH  12  13
HETATM   13  C4  UNL     1      -3.583  18.898  23.358  1.00  0.00     0.029 C
BRANCH  13  14
HETATM   14  C2  UNL     1      -3.367  19.485  24.700  1.00  0.00    -0.021 C
HETATM   15  C1  UNL     1      -1.947  20.074  24.712  1.00  0.00     0.009 C
HETATM   16  C3  UNL     1      -4.289  20.586  25.086  1.00  0.00     0.009 C
ENDBRANCH  13  14
ENDBRANCH  12  13
BRANCH  12  17
HETATM   17  C21 UNL     1      -2.831  16.524  23.095  1.00  0.00     0.000 C
HETATM   18  C22 UNL     1      -2.173  16.063  24.366  1.00  0.00     0.011 C
HETATM   19  C23 UNL     1      -1.768  17.187  22.242  1.00  0.00     0.011 C
ENDBRANCH  12  17
ENDBRANCH   9  12
ENDBRANCH   1   8
BRANCH   6  20
HETATM   20  C12 UNL     1      -9.526  15.827  25.885  1.00  0.00     0.172 C
HETATM   21  C13 UNL     1     -10.165  15.920  24.521  1.00  0.00     0.042 C
BRANCH  20  22
HETATM   22  N3  UNL     1     -10.561  15.310  26.793  1.00  0.00    -0.348 N
HETATM   23  C14 UNL     1     -10.169  14.457  27.841  1.00  0.00     0.222 C
HETATM   24  O3  UNL     1      -8.952  14.146  27.992  1.00  0.00    -0.273 OA
ATOM     25  H3  UNL     1     -11.541  15.564  26.666  1.00  0.00     0.163 HD
BRANCH  23  26
HETATM   26  C15 UNL     1     -11.135  13.879  28.811  1.00  0.00     0.078 C
HETATM   27  C16 UNL     1     -11.955  12.751  28.199  1.00  0.00     0.014 C
HETATM   28  C17 UNL     1     -12.641  12.063  29.383  1.00  0.00     0.001 C
HETATM   29  C18 UNL     1     -13.551  13.043  30.072  1.00  0.00     0.000 C
HETATM   30  C19 UNL     1     -12.889  14.333  30.443  1.00  0.00     0.001 C
HETATM   31  C20 UNL     1     -12.146  14.917  29.267  1.00  0.00     0.014 C
ENDBRANCH  23  26
ENDBRANCH  20  22
ENDBRANCH   6  20
TORSDOF 8
ENDMDL