MODEL 5
REMARK VINA RESULT: -6.729071963      2.500      4.189
REMARK  3 active torsions:
REMARK  status: ('A' for Active; 'I' for Inactive)
REMARK    1  A    between atoms: N1_1  and  N2_4
REMARK       I    between atoms: N2_4  and  C1_5
REMARK    2  A    between atoms: C1_5  and  C2_7
REMARK       I    between atoms: C2_7  and  N3_9
REMARK    3  A    between atoms: N3_9  and  C3_11
ROOT
HETATM    1  C2  UNL     1      29.269  66.453  10.038  1.00  0.00     0.344 C
HETATM    2  O2  UNL     1      28.959  67.401  10.802  1.00  0.00    -0.260 OA
HETATM    3  N3  UNL     1      30.531  65.830  10.130  1.00  0.00    -0.149 N
ATOM      4  H3  UNL     1      30.699  65.085  10.805  1.00  0.00     0.188 HD
ENDROOT
BRANCH   3   5
HETATM    5  C3  UNL     1      31.465  66.228   9.337  1.00  0.00     0.700 A
HETATM    6  N4  UNL     1      31.214  66.693   8.081  1.00  0.00    -0.185 N
HETATM    7  C4  UNL     1      32.374  67.028   7.494  1.00  0.00     0.215 A
ATOM      8  H4  UNL     1      30.291  66.773   7.654  1.00  0.00     0.185 HD
HETATM    9  N5  UNL     1      33.327  66.759   8.412  1.00  0.00    -0.281 N
HETATM   10  N6  UNL     1      32.794  66.278   9.525  1.00  0.00    -0.131 N
ATOM     11  H5  UNL     1      34.325  66.908   8.267  1.00  0.00     0.188 HD
ATOM     12  H6  UNL     1      33.298  65.997  10.366  1.00  0.00     0.205 HD
ENDBRANCH   3   5
BRANCH   1  13
HETATM   13  C1  UNL     1      28.244  66.011   9.024  1.00  0.00     0.403 C
HETATM   14  N2  UNL     1      28.227  66.520   7.783  1.00  0.00    -0.284 NA
HETATM   15  O1  UNL     1      27.460  65.132   9.537  1.00  0.00    -0.244 OA
BRANCH  14  16
HETATM   16  N1  UNL     1      28.212  67.028   6.546  1.00  0.00    -0.276 N
ATOM     17  H12 UNL     1      28.247  66.677   7.503  1.00  0.00     0.191 HD
ATOM     18  H11 UNL     1      28.199  67.414   5.603  1.00  0.00     0.191 HD
ENDBRANCH  14  16
ENDBRANCH   1  13
TORSDOF 3
ENDMDL