MODEL 4
REMARK VINA RESULT: -5.559785339      2.387      3.323
REMARK  1 active torsions:
REMARK  status: ('A' for Active; 'I' for Inactive)
REMARK       I    between atoms: C2_4  and  N3_6
REMARK    1  A    between atoms: N3_6  and  C3_8
ROOT
HETATM    1  C3  UNL     1      29.159  66.056   9.865  1.00  0.00     0.705 A
HETATM    2  N4  UNL     1      29.798  65.497  10.905  1.00  0.00    -0.138 N
ATOM      3  H4  UNL     1      30.781  65.618  11.152  1.00  0.00     0.189 HD
HETATM    4  C4  UNL     1      28.883  64.738  11.568  1.00  0.00     0.353 A
HETATM    5  O1  UNL     1      29.133  64.071  12.593  1.00  0.00    -0.245 OA
HETATM    6  N5  UNL     1      27.719  64.873  10.892  1.00  0.00    -0.235 N
ATOM      7  H5  UNL     1      26.840  64.421  11.146  1.00  0.00     0.192 HD
HETATM    8  N6  UNL     1      27.882  65.668   9.864  1.00  0.00    -0.124 N
HETATM    9  C5  UNL     1      26.885  66.059   8.904  1.00  0.00     0.197 C
ENDROOT
BRANCH   1  10
HETATM   10  N3  UNL     1      29.701  66.840   9.012  1.00  0.00    -0.162 N
HETATM   11  C2  UNL     1      31.003  66.623   8.487  1.00  0.00     0.202 C
HETATM   12  N1  UNL     1      31.134  66.492   7.216  1.00  0.00    -0.368 N
HETATM   13  N2  UNL     1      32.163  66.544   9.296  1.00  0.00    -0.063 NA
HETATM   14  C1  UNL     1      29.985  66.563   6.339  1.00  0.00     0.148 C
ATOM     15  H1  UNL     1      32.060  66.336   6.820  1.00  0.00     0.161 HD
ATOM     16  H3  UNL     1      29.177  67.655   8.696  1.00  0.00     0.187 HD
ENDBRANCH   1  10
TORSDOF 1
ENDMDL