MODEL 2
REMARK VINA RESULT: -5.581645412      1.172      1.200
REMARK  1 active torsions:
REMARK  status: ('A' for Active; 'I' for Inactive)
REMARK    1  A    between atoms: C2_2  and  N1_3
REMARK       I    between atoms: N1_3  and  C3_5
ROOT
HETATM    1  C1  UNL     1      29.145  65.741   5.806  1.00  0.00     0.074 C
HETATM    2  C2  UNL     1      29.384  66.214   7.219  1.00  0.00     0.189 C
HETATM    3  N4  UNL     1      29.711  65.141   8.123  1.00  0.00    -0.308 N
ATOM      4  H4  UNL     1      29.344  64.189   8.112  1.00  0.00     0.167 HD
HETATM    5  C4  UNL     1      30.654  65.693   9.036  1.00  0.00     0.325 C
HETATM    6  O1  UNL     1      30.953  65.219  10.182  1.00  0.00    -0.247 OA
HETATM    7  N5  UNL     1      31.228  66.868   8.486  1.00  0.00    -0.276 N
ATOM      8  H5  UNL     1      31.930  67.472   8.914  1.00  0.00     0.173 HD
HETATM    9  C5  UNL     1      30.616  67.027   7.214  1.00  0.00     0.274 C
HETATM   10  O2  UNL     1      31.018  67.721   6.244  1.00  0.00    -0.268 OA
ENDROOT
BRANCH   2  11
HETATM   11  N1  UNL     1      28.293  66.966   7.748  1.00  0.00    -0.331 N
HETATM   12  C3  UNL     1      27.127  66.298   8.250  1.00  0.00     0.184 C
HETATM   13  N2  UNL     1      26.462  66.724   9.265  1.00  0.00    -0.374 N
HETATM   14  N3  UNL     1      26.681  65.125   7.611  1.00  0.00    -0.064 NA
ATOM     15  H22 UNL     1      26.785  67.573   9.728  1.00  0.00     0.158 HD
ATOM     16  H21 UNL     1      25.633  66.248   9.622  1.00  0.00     0.158 HD
ATOM     17  H1  UNL     1      28.343  67.985   7.770  1.00  0.00     0.165 HD
ENDBRANCH   2  11
TORSDOF 1
ENDMDL