MODEL 1
REMARK VINA RESULT: -6.917774093      0.000      0.000
REMARK  1 active torsions:
REMARK  status: ('A' for Active; 'I' for Inactive)
REMARK    1  A    between atoms: N4_12  and  O3_13
ROOT
HETATM    1  O1  UNL     1      28.296  64.990  10.713  1.00  0.00    -0.247 OA
HETATM    2  C1  UNL     1      29.162  65.501   9.939  1.00  0.00     0.328 A
HETATM    3  N1  UNL     1      28.749  66.027   8.772  1.00  0.00    -0.273 N
ATOM      4  H1  UNL     1      27.759  66.010   8.523  1.00  0.00     0.173 HD
HETATM    5  C2  UNL     1      29.648  66.573   7.937  1.00  0.00     0.283 A
HETATM    6  O2  UNL     1      29.277  67.065   6.850  1.00  0.00    -0.265 OA
HETATM    7  C3  UNL     1      30.991  66.612   8.245  1.00  0.00     0.192 A
HETATM    8  C4  UNL     1      31.412  66.064   9.461  1.00  0.00     0.159 A
HETATM    9  N2  UNL     1      32.747  66.225   9.522  1.00  0.00    -0.265 N
ATOM     10  H2  UNL     1      33.340  65.922  10.294  1.00  0.00     0.186 HD
HETATM   11  N3  UNL     1      33.171  66.834   8.427  1.00  0.00     0.008 NA
HETATM   12  N4  UNL     1      32.109  67.061   7.669  1.00  0.00    -0.138 N
HETATM   13  N5  UNL     1      30.470  65.532  10.253  1.00  0.00    -0.291 N
ATOM     14  H5  UNL     1      30.761  65.128  11.142  1.00  0.00     0.172 HD
ENDROOT
BRANCH  12  15
HETATM   15  O3  UNL     1      32.154  67.615   6.574  1.00  0.00    -0.269 OA
ATOM     16  H3  UNL     1      32.586  68.445   6.407  1.00  0.00     0.246 HD
ENDBRANCH  12  15
TORSDOF 1
ENDMDL