MODEL 2
REMARK VINA RESULT: -5.931157561      1.735      1.923
REMARK  2 active torsions:
REMARK  status: ('A' for Active; 'I' for Inactive)
REMARK    1  A    between atoms: C1_2  and  N2_4
REMARK    2  A    between atoms: N2_4  and  C2_6
ROOT
HETATM    1  C2  UNL     1      30.424  66.950   7.829  1.00  0.00     0.191 A
HETATM    2  N3  UNL     1      30.675  66.512   9.076  1.00  0.00    -0.280 N
ATOM      3  H3  UNL     1      29.894  66.303   9.698  1.00  0.00     0.188 HD
HETATM    4  N4  UNL     1      31.924  66.342   9.517  1.00  0.00    -0.294 N
ATOM      5  H4  UNL     1      32.102  66.010  10.465  1.00  0.00     0.187 HD
HETATM    6  C3  UNL     1      32.940  66.622   8.683  1.00  0.00     0.200 A
HETATM    7  N5  UNL     1      32.745  67.064   7.424  1.00  0.00    -0.315 N
ATOM      8  H5  UNL     1      33.538  67.266   6.816  1.00  0.00     0.170 HD
HETATM    9  C4  UNL     1      31.472  67.235   6.980  1.00  0.00     0.291 A
HETATM   10  O1  UNL     1      31.207  67.637   5.835  1.00  0.00    -0.264 OA
ENDROOT
BRANCH   1  11
HETATM   11  N2  UNL     1      29.216  67.111   7.411  1.00  0.00    -0.316 N
ATOM     12  H2  UNL     1      28.846  68.054   7.300  1.00  0.00     0.169 HD
BRANCH  11  13
HETATM   13  C1  UNL     1      28.390  65.995   7.104  1.00  0.00     0.186 C
HETATM   14  N1  UNL     1      28.832  64.907   6.303  1.00  0.00    -0.070 NA
HETATM   15  S1  UNL     1      26.877  66.003   7.715  1.00  0.00    -0.044 SA
ENDBRANCH  11  13
ENDBRANCH   1  11
TORSDOF 2
ENDMDL