MODEL 4
REMARK VINA RESULT: -5.728360999      2.899      4.363
REMARK  1 active torsions:
REMARK  status: ('A' for Active; 'I' for Inactive)
REMARK    1  A    between atoms: C3_3  and  N1_4
ROOT
HETATM    1  C1  UNL     1      24.345  64.431   8.177  1.00  0.00     0.017 C
HETATM    2  C2  UNL     1      25.291  65.120   8.470  1.00  0.00    -0.046 C
HETATM    3  C3  UNL     1      26.470  65.949   8.819  1.00  0.00     0.343 C
HETATM    4  N2  UNL     1      27.171  66.231   7.620  1.00  0.00    -0.292 N
ATOM      5  H2  UNL     1      26.544  66.349   6.823  1.00  0.00     0.168 HD
HETATM    6  C4  UNL     1      28.536  66.389   7.260  1.00  0.00     0.327 C
HETATM    7  O1  UNL     1      28.760  66.865   6.131  1.00  0.00    -0.247 OA
HETATM    8  N3  UNL     1      29.651  66.060   8.051  1.00  0.00    -0.261 N
ATOM      9  H3  UNL     1      30.561  66.262   7.637  1.00  0.00     0.175 HD
HETATM   10  C5  UNL     1      29.676  65.485   9.349  1.00  0.00     0.330 C
HETATM   11  O2  UNL     1      30.803  65.280   9.862  1.00  0.00    -0.246 OA
HETATM   12  N4  UNL     1      28.593  65.098  10.175  1.00  0.00    -0.274 N
ATOM     13  H4  UNL     1      28.819  64.684  11.080  1.00  0.00     0.173 HD
HETATM   14  C6  UNL     1      27.218  65.237   9.847  1.00  0.00     0.295 C
HETATM   15  O3  UNL     1      26.472  64.583  10.644  1.00  0.00    -0.267 OA
ENDROOT
BRANCH   3  16
HETATM   16  N1  UNL     1      25.948  67.203   9.348  1.00  0.00    -0.032 N
ATOM     17  H13 UNL     1      26.678  67.857   9.633  1.00  0.00     0.279 HD
ATOM     18  H12 UNL     1      25.520  67.795   8.636  1.00  0.00     0.279 HD
ATOM     19  H11 UNL     1      25.311  66.953  10.104  1.00  0.00     0.279 HD
ENDBRANCH   3  16
TORSDOF 1
ENDMDL