MODEL 5
REMARK VINA RESULT: -5.771253891      1.627      1.775
REMARK  2 active torsions:
REMARK  status: ('A' for Active; 'I' for Inactive)
REMARK    1  A    between atoms: C2_2  and  C3_3
REMARK    2  A    between atoms: C3_3  and  O1_4
ROOT
HETATM    1  C3  UNL     1      27.622  66.032   8.222  1.00  0.00     0.163 C
HETATM    2  N1  UNL     1      27.565  66.601   9.437  1.00  0.00    -0.275 N
ATOM      3  H1  UNL     1      28.527  66.827   9.691  1.00  0.00     0.180 HD
HETATM    4  C4  UNL     1      26.799  67.008  10.472  1.00  0.00     0.183 C
HETATM    5  N2  UNL     1      26.094  67.300  11.351  1.00  0.00    -0.172 NA
ENDROOT
BRANCH   1   6
HETATM    6  C2  UNL     1      28.878  65.955   7.427  1.00  0.00     0.178 C
HETATM    7  C1  UNL     1      28.883  65.088   6.240  1.00  0.00     0.058 C
HETATM    8  N3  UNL     1      29.336  67.356   7.141  1.00  0.00    -0.318 N
HETATM    9  C5  UNL     1      30.735  67.276   7.010  1.00  0.00     0.324 C
ATOM     10  H3  UNL     1      28.756  68.191   7.059  1.00  0.00     0.166 HD
HETATM   11  O2  UNL     1      31.421  68.089   6.304  1.00  0.00    -0.247 OA
HETATM   12  N4  UNL     1      31.224  66.129   7.785  1.00  0.00    -0.277 N
HETATM   13  C6  UNL     1      30.021  65.580   8.344  1.00  0.00     0.262 C
ATOM     14  H4  UNL     1      32.184  65.802   7.899  1.00  0.00     0.173 HD
HETATM   15  O3  UNL     1      29.955  64.909   9.380  1.00  0.00    -0.270 OA
ENDBRANCH   1   6
BRANCH   1  16
HETATM   16  O1  UNL     1      26.576  65.474   7.600  1.00  0.00    -0.347 OA
ATOM     17  H1  UNL     1      25.742  65.726   7.981  1.00  0.00     0.219 HD
ENDBRANCH   1  16
TORSDOF 2
ENDMDL