MODEL 5
REMARK VINA RESULT: -6.580652793      1.208      2.425
REMARK  0 active torsions:
REMARK  status: ('A' for Active; 'I' for Inactive)
ROOT
HETATM    1  C1  UNL     1      26.385  66.154   9.126  1.00  0.00     0.165 C
HETATM    2  N1  UNL     1      27.540  65.879   9.955  1.00  0.00    -0.229 N
ATOM      3  H1  UNL     1      27.422  65.497  10.893  1.00  0.00     0.177 HD
HETATM    4  C2  UNL     1      28.711  66.121   9.497  1.00  0.00     0.694 A
HETATM    5  N2  UNL     1      28.890  66.653   8.198  1.00  0.00    -0.172 N
ATOM      6  H2  UNL     1      28.068  66.842   7.624  1.00  0.00     0.186 HD
HETATM    7  C3  UNL     1      30.069  66.908   7.711  1.00  0.00     0.169 A
HETATM    8  N3  UNL     1      30.496  67.403   6.537  1.00  0.00    -0.280 N
ATOM      9  H3  UNL     1      29.882  67.680   5.771  1.00  0.00     0.188 HD
HETATM   10  N4  UNL     1      31.807  67.482   6.503  1.00  0.00    -0.263 N
ATOM     11  H4  UNL     1      32.375  67.822   5.727  1.00  0.00     0.190 HD
HETATM   12  C4  UNL     1      32.256  67.028   7.688  1.00  0.00     0.291 A
HETATM   13  O1  UNL     1      33.462  66.949   8.036  1.00  0.00    -0.264 OA
HETATM   14  C5  UNL     1      31.181  66.652   8.487  1.00  0.00     0.164 A
HETATM   15  N5  UNL     1      31.104  66.165   9.688  1.00  0.00    -0.278 N
ATOM     16  H5  UNL     1      31.962  65.998  10.213  1.00  0.00     0.188 HD
HETATM   17  N6  UNL     1      29.860  65.862  10.285  1.00  0.00    -0.132 N
ATOM     18  H6  UNL     1      29.793  65.479  11.229  1.00  0.00     0.205 HD
ENDROOT
TORSDOF 0
ENDMDL