MODEL 2
REMARK VINA RESULT: -5.860340998      1.647      1.879
REMARK  0 active torsions:
REMARK  status: ('A' for Active; 'I' for Inactive)
ROOT
HETATM    1  C1  UNL     1      32.840  66.085   9.825  1.00  0.00     0.064 C
HETATM    2  C2  UNL     1      31.699  66.447   9.227  1.00  0.00     0.114 C
HETATM    3  N1  UNL     1      31.793  66.906   7.883  1.00  0.00    -0.305 N
ATOM      4  H1  UNL     1      32.735  67.113   7.551  1.00  0.00     0.170 HD
HETATM    5  C3  UNL     1      30.736  67.116   6.931  1.00  0.00     0.315 C
HETATM    6  O1  UNL     1      31.106  67.503   5.792  1.00  0.00    -0.262 OA
HETATM    7  C4  UNL     1      29.289  66.954   7.064  1.00  0.00     0.328 C
HETATM    8  O2  UNL     1      28.584  66.973   6.017  1.00  0.00    -0.261 OA
HETATM    9  N2  UNL     1      28.618  66.773   8.319  1.00  0.00    -0.151 N
ATOM     10  H2  UNL     1      27.600  66.759   8.262  1.00  0.00     0.188 HD
HETATM   11  C5  UNL     1      29.143  66.608   9.633  1.00  0.00     0.682 C
HETATM   12  N3  UNL     1      28.336  66.705  10.634  1.00  0.00    -0.230 N
ATOM     13  H3  UNL     1      28.731  66.586  11.567  1.00  0.00     0.177 HD
HETATM   14  C6  UNL     1      26.939  66.966  10.545  1.00  0.00     0.165 C
HETATM   15  N4  UNL     1      30.499  66.342   9.984  1.00  0.00    -0.177 N
ATOM     16  H4  UNL     1      30.631  66.022  10.943  1.00  0.00     0.185 HD
ENDROOT
TORSDOF 0
ENDMDL