MODEL 3
REMARK VINA RESULT: -6.786307347      1.849      4.514
REMARK  1 active torsions:
REMARK  status: ('A' for Active; 'I' for Inactive)
REMARK    1  A    between atoms: C3_7  and  N3_8
REMARK       I    between atoms: N3_8  and  C4_10
ROOT
HETATM    1  C1  UNL     1      28.020  64.120  11.719  1.00  0.00     0.049 C
HETATM    2  C2  UNL     1      28.704  64.834  10.834  1.00  0.00     0.089 A
HETATM    3  N1  UNL     1      29.995  65.134  11.070  1.00  0.00    -0.296 N
ATOM      4  H1  UNL     1      30.433  64.805  11.931  1.00  0.00     0.187 HD
HETATM    5  N2  UNL     1      30.704  65.836  10.224  1.00  0.00    -0.284 N
ATOM      6  H2  UNL     1      31.680  66.046  10.431  1.00  0.00     0.188 HD
HETATM    7  C3  UNL     1      30.131  66.293   9.047  1.00  0.00     0.136 A
HETATM    8  C5  UNL     1      28.817  66.006   8.775  1.00  0.00     0.052 A
HETATM    9  C6  UNL     1      28.238  66.419   7.674  1.00  0.00     0.032 C
HETATM   10  C7  UNL     1      28.075  65.259   9.683  1.00  0.00     0.212 A
HETATM   11  O1  UNL     1      26.890  65.014   9.413  1.00  0.00    -0.285 OA
ENDROOT
BRANCH   7  12
HETATM   12  N3  UNL     1      30.882  66.942   8.323  1.00  0.00    -0.315 N
HETATM   13  C4  UNL     1      31.624  67.032   7.218  1.00  0.00     0.187 C
HETATM   14  N4  UNL     1      32.904  66.721   7.281  1.00  0.00    -0.373 N
HETATM   15  N5  UNL     1      31.161  67.458   5.911  1.00  0.00    -0.064 NA
ATOM     16  H42 UNL     1      33.229  66.422   8.200  1.00  0.00     0.158 HD
ATOM     17  H41 UNL     1      33.471  66.791   6.437  1.00  0.00     0.158 HD
ATOM     18  H3  UNL     1      30.990  67.842   8.791  1.00  0.00     0.170 HD
ENDBRANCH   7  12
TORSDOF 1
ENDMDL