MODEL 5
REMARK VINA RESULT: -5.022228400      1.817      2.320
REMARK  16 active torsions:
REMARK  status: ('A' for Active; 'I' for Inactive)
REMARK    1  A    between atoms: C3_3  and  C6_6
REMARK    2  A    between atoms: C7_7  and  O1_8
REMARK    3  A    between atoms: C8_12  and  C9_13
REMARK    4  A    between atoms: C9_13  and  C10_14
REMARK    5  A    between atoms: C13_17  and  O2_18
REMARK    6  A    between atoms: C14_22  and  C15_23
REMARK    7  A    between atoms: C15_23  and  C16_24
REMARK    8  A    between atoms: C19_27  and  O3_28
REMARK    9  A    between atoms: C20_32  and  C21_33
REMARK   10  A    between atoms: C21_33  and  C22_34
REMARK   11  A    between atoms: C22_34  and  C23_35
REMARK   12  A    between atoms: C23_35  and  N4_36
REMARK   13  A    between atoms: C26_45  and  C27_46
REMARK   14  A    between atoms: N8_51  and  C31_52
REMARK   15  A    between atoms: C31_52  and  C33_54
REMARK   16  A    between atoms: C33_54  and  C34_55
ROOT
HETATM    1  C1  UNL     1      17.655   9.069  14.835  1.00  0.00     0.098 C
HETATM    2  C2  UNL     1      16.547   9.175  15.355  1.00  0.00    -0.176 C
HETATM    3  C3  UNL     1      15.250   9.335  16.007  1.00  0.00     0.032 C
HETATM    4  C4  UNL     1      14.474  10.289  15.126  1.00  0.00     0.030 C
HETATM    5  C5  UNL     1      15.501  10.195  17.269  1.00  0.00     0.030 C
ENDROOT
BRANCH   3   6
HETATM    6  C6  UNL     1      14.568   8.090  16.358  1.00  0.00     0.181 C
HETATM    7  C7  UNL     1      15.261   6.891  15.798  1.00  0.00     0.141 C
HETATM    8  N1  UNL     1      15.993   5.846  16.326  1.00  0.00    -0.339 N
HETATM    9  C8  UNL     1      17.300   5.578  16.807  1.00  0.00     0.062 C
ATOM     10  H1  UNL     1      15.416   5.008  16.390  1.00  0.00     0.167 HD
HETATM   11  C13 UNL     1      17.659   5.954  18.184  1.00  0.00     0.159 C
HETATM   12  N2  UNL     1      17.188   5.552  19.419  1.00  0.00    -0.357 N
HETATM   13  C14 UNL     1      17.036   4.282  20.056  1.00  0.00     0.158 C
ATOM     14  H2  UNL     1      16.883   6.331  20.002  1.00  0.00     0.162 HD
HETATM   15  C19 UNL     1      16.102   4.376  21.215  1.00  0.00     0.135 C
HETATM   16  N3  UNL     1      14.745   4.718  21.178  1.00  0.00    -0.359 N
HETATM   17  C20 UNL     1      14.141   5.942  20.681  1.00  0.00     0.175 C
ATOM     18  H3  UNL     1      14.100   4.019  21.547  1.00  0.00     0.162 HD
HETATM   19  C25 UNL     1      12.723   5.650  20.351  1.00  0.00     0.241 C
HETATM   20  O4  UNL     1      12.077   4.762  21.029  1.00  0.00    -0.271 OA
HETATM   21  N7  UNL     1      12.089   6.329  19.309  1.00  0.00    -0.346 N
HETATM   22  C26 UNL     1      12.451   7.608  18.717  1.00  0.00     0.180 C
ATOM     23  H7  UNL     1      11.269   5.870  18.913  1.00  0.00     0.163 HD
HETATM   24  C30 UNL     1      12.265   7.498  17.263  1.00  0.00     0.244 C
HETATM   25  O5  UNL     1      11.173   6.884  16.982  1.00  0.00    -0.271 OA
HETATM   26  N8  UNL     1      13.126   7.976  16.209  1.00  0.00    -0.332 N
BRANCH   7  27
HETATM   27  O1  UNL     1      15.083   6.903  14.492  1.00  0.00    -0.348 OA
ATOM     28  H1  UNL     1      15.872   7.257  14.099  1.00  0.00     0.219 HD
ENDBRANCH   7  27
BRANCH   9  29
HETATM   29  C9  UNL     1      18.444   5.906  15.843  1.00  0.00     0.065 C
BRANCH  29  30
HETATM   30  C10 UNL     1      18.423   5.060  14.619  1.00  0.00    -0.017 C
HETATM   31  C11 UNL     1      18.441   3.573  14.900  1.00  0.00     0.010 C
HETATM   32  C12 UNL     1      19.707   5.370  13.845  1.00  0.00     0.010 C
ENDBRANCH  29  30
ENDBRANCH   9  29
BRANCH  11  33
HETATM   33  O2  UNL     1      18.619   6.844  18.230  1.00  0.00    -0.345 OA
ATOM     34  H2  UNL     1      19.449   6.473  18.504  1.00  0.00     0.219 HD
ENDBRANCH  11  33
BRANCH  13  35
HETATM   35  C15 UNL     1      16.650   3.132  19.210  1.00  0.00     0.037 C
BRANCH  35  36
HETATM   36  C16 UNL     1      17.776   2.121  19.132  1.00  0.00    -0.020 C
HETATM   37  C17 UNL     1      19.028   2.681  18.537  1.00  0.00     0.009 C
HETATM   38  C18 UNL     1      17.271   1.014  18.187  1.00  0.00     0.009 C
ENDBRANCH  35  36
ENDBRANCH  13  35
BRANCH  15  39
HETATM   39  O3  UNL     1      16.569   4.116  22.402  1.00  0.00    -0.348 OA
ATOM     40  H3  UNL     1      16.269   4.650  23.127  1.00  0.00     0.219 HD
ENDBRANCH  15  39
BRANCH  17  41
HETATM   41  C21 UNL     1      14.120   6.995  21.801  1.00  0.00     0.036 C
BRANCH  41  42
HETATM   42  C22 UNL     1      15.053   8.125  21.531  1.00  0.00     0.022 C
BRANCH  42  43
HETATM   43  C23 UNL     1      16.307   7.900  22.378  1.00  0.00     0.122 C
BRANCH  43  44
HETATM   44  N4  UNL     1      17.439   8.460  21.700  1.00  0.00    -0.367 N
HETATM   45  C24 UNL     1      18.553   7.851  21.600  1.00  0.00     0.196 C
HETATM   46  N5  UNL     1      19.632   8.462  20.917  1.00  0.00    -0.067 NA
HETATM   47  N6  UNL     1      18.698   6.567  22.176  1.00  0.00    -0.067 NA
ATOM     48  H4  UNL     1      17.349   9.386  21.280  1.00  0.00     0.161 HD
ENDBRANCH  43  44
ENDBRANCH  42  43
ENDBRANCH  41  42
ENDBRANCH  17  41
BRANCH  22  49
HETATM   49  C27 UNL     1      11.458   8.578  19.377  1.00  0.00     0.009 C
HETATM   50  C28 UNL     1      12.124   9.705  20.095  1.00  0.00     0.012 C
HETATM   51  C29 UNL     1      10.395   7.894  20.166  1.00  0.00     0.012 C
ENDBRANCH  22  49
BRANCH  26  52
HETATM   52  C31 UNL     1      12.377   8.260  14.997  1.00  0.00     0.084 C
HETATM   53  C32 UNL     1      11.788   6.927  14.445  1.00  0.00     0.032 C
BRANCH  52  54
HETATM   54  C33 UNL     1      11.163   9.131  15.197  1.00  0.00     0.024 C
BRANCH  54  55
HETATM   55  C34 UNL     1      10.446   9.359  13.854  1.00  0.00    -0.002 C
HETATM   56  C35 UNL     1      11.280  10.423  13.130  1.00  0.00     0.005 C
ENDBRANCH  54  55
ENDBRANCH  52  54
ENDBRANCH  26  52
ENDBRANCH   3   6
TORSDOF 16
ENDMDL