MODEL 1
REMARK VINA RESULT: -8.436869017      0.000      0.000
REMARK  17 active torsions:
REMARK  status: ('A' for Active; 'I' for Inactive)
REMARK    1  A    between atoms: C2_2  and  C3_3
REMARK    2  A    between atoms: C3_3  and  C4_4
REMARK    3  A    between atoms: C4_4  and  C5_5
REMARK    4  A    between atoms: C7_10  and  C8_11
REMARK    5  A    between atoms: C8_11  and  C9_12
REMARK    6  A    between atoms: C17_24  and  O2_25
REMARK    7  A    between atoms: C18_27  and  C19_28
REMARK    8  A    between atoms: C19_28  and  C20_29
REMARK    9  A    between atoms: C24_36  and  C25_37
REMARK   10  A    between atoms: C25_37  and  C26_38
REMARK   11  A    between atoms: C26_38  and  C27_39
REMARK   12  A    between atoms: C27_39  and  C28_40
REMARK   13  A    between atoms: C28_40  and  C29_41
REMARK   14  A    between atoms: C29_41  and  C30_42
REMARK   15  A    between atoms: C32_47  and  O5_48
REMARK   16  A    between atoms: C36_53  and  O6_54
REMARK   17  A    between atoms: C37_56  and  O7_57
ROOT
HETATM    1  C5  UNL     1      18.709   1.081  16.785  1.00  0.00     0.144 C
HETATM    2  N1  UNL     1      19.341   1.260  15.501  1.00  0.00    -0.345 N
ATOM      3  H1  UNL     1      19.944   2.077  15.413  1.00  0.00     0.163 HD
HETATM    4  C6  UNL     1      19.235   0.459  14.361  1.00  0.00     0.265 C
HETATM    5  O1  UNL     1      20.292   0.377  13.639  1.00  0.00    -0.266 OA
HETATM    6  C7  UNL     1      18.076  -0.305  13.876  1.00  0.00     0.083 C
HETATM    7  N3  UNL     1      17.236   0.248  12.892  1.00  0.00    -0.338 N
ATOM      8  H3  UNL     1      16.247   0.140  13.121  1.00  0.00     0.167 HD
HETATM    9  C17 UNL     1      17.427   0.905  11.684  1.00  0.00     0.139 C
HETATM   10  C18 UNL     1      18.417   1.921  11.258  1.00  0.00     0.159 C
HETATM   11  N4  UNL     1      17.708   2.949  10.459  1.00  0.00    -0.347 N
ATOM     12  H4  UNL     1      17.132   2.608   9.689  1.00  0.00     0.163 HD
HETATM   13  C23 UNL     1      17.743   4.320  10.644  1.00  0.00     0.241 C
HETATM   14  O3  UNL     1      17.952   5.026   9.582  1.00  0.00    -0.271 OA
HETATM   15  C24 UNL     1      17.572   5.076  11.912  1.00  0.00     0.176 C
HETATM   16  N5  UNL     1      18.839   5.077  12.591  1.00  0.00    -0.350 N
ATOM     17  H5  UNL     1      19.623   4.815  11.994  1.00  0.00     0.163 HD
HETATM   18  C32 UNL     1      19.205   5.364  13.892  1.00  0.00     0.194 C
HETATM   19  C33 UNL     1      18.725   4.984  15.128  1.00  0.00    -0.019 C
HETATM   20  C34 UNL     1      18.377   4.702  16.133  1.00  0.00    -0.067 C
HETATM   21  C35 UNL     1      17.976   4.393  17.410  1.00  0.00     0.104 C
HETATM   22  C36 UNL     1      18.229   3.311  18.128  1.00  0.00     0.104 C
HETATM   23  C37 UNL     1      19.006   2.147  17.741  1.00  0.00     0.099 C
ENDROOT
BRANCH   6  24
HETATM   24  C8  UNL     1      18.447  -1.771  13.729  1.00  0.00     0.104 C
BRANCH  24  25
HETATM   25  C9  UNL     1      18.785  -2.227  12.396  1.00  0.00    -0.025 A
HETATM   26  C10 UNL     1      19.882  -1.768  11.656  1.00  0.00     0.096 A
HETATM   27  N2  UNL     1      19.920  -2.453  10.492  1.00  0.00    -0.365 N
HETATM   28  C11 UNL     1      18.900  -3.324  10.460  1.00  0.00     0.042 A
ATOM     29  H2  UNL     1      20.613  -2.328   9.755  1.00  0.00     0.165 HD
HETATM   30  C12 UNL     1      18.489  -4.227   9.495  1.00  0.00     0.030 A
HETATM   31  C16 UNL     1      18.182  -3.198  11.634  1.00  0.00    -0.002 A
HETATM   32  C13 UNL     1      17.351  -5.019   9.691  1.00  0.00     0.002 A
HETATM   33  C14 UNL     1      16.623  -4.907  10.852  1.00  0.00     0.001 A
HETATM   34  C15 UNL     1      17.051  -3.997  11.809  1.00  0.00     0.014 A
ENDBRANCH  24  25
ENDBRANCH   6  24
BRANCH   9  35
HETATM   35  O2  UNL     1      16.612   0.615  10.699  1.00  0.00    -0.348 OA
ATOM     36  H2  UNL     1      16.443  -0.303  10.523  1.00  0.00     0.219 HD
ENDBRANCH   9  35
BRANCH   1  37
HETATM   37  C4  UNL     1      18.924  -0.297  17.387  1.00  0.00     0.032 C
BRANCH  37  38
HETATM   38  C3  UNL     1      17.767  -0.899  18.085  1.00  0.00     0.002 C
BRANCH  38  39
HETATM   39  C2  UNL     1      16.751  -1.271  16.980  1.00  0.00    -0.004 C
HETATM   40  C1  UNL     1      16.015  -2.540  17.327  1.00  0.00     0.005 C
ENDBRANCH  38  39
ENDBRANCH  37  38
ENDBRANCH   1  37
BRANCH  10  41
HETATM   41  C19 UNL     1      19.311   1.229  10.253  1.00  0.00     0.037 C
BRANCH  41  42
HETATM   42  C20 UNL     1      18.824   1.172   8.864  1.00  0.00    -0.020 C
HETATM   43  C21 UNL     1      19.357   2.160   7.898  1.00  0.00     0.009 C
HETATM   44  C22 UNL     1      19.192  -0.223   8.330  1.00  0.00     0.009 C
ENDBRANCH  41  42
ENDBRANCH  10  41
BRANCH  23  45
HETATM   45  O7  UNL     1      20.156   2.025  18.343  1.00  0.00    -0.360 OA
ATOM     46  H7  UNL     1      20.374   2.745  18.922  1.00  0.00     0.217 HD
ENDBRANCH  23  45
BRANCH  22  47
HETATM   47  O6  UNL     1      17.679   3.261  19.455  1.00  0.00    -0.358 OA
ATOM     48  H6  UNL     1      16.997   2.620  19.618  1.00  0.00     0.217 HD
ENDBRANCH  22  47
BRANCH  15  49
HETATM   49  C25 UNL     1      16.404   4.751  12.738  1.00  0.00     0.035 C
BRANCH  49  50
HETATM   50  C26 UNL     1      15.525   5.836  13.252  1.00  0.00     0.002 C
BRANCH  50  51
HETATM   51  C27 UNL     1      15.278   5.859  14.707  1.00  0.00     0.000 C
BRANCH  51  52
HETATM   52  C28 UNL     1      15.004   7.310  15.187  1.00  0.00     0.007 C
BRANCH  52  53
HETATM   53  C29 UNL     1      15.996   7.536  16.319  1.00  0.00     0.077 C
BRANCH  53  54
HETATM   54  C30 UNL     1      17.203   8.227  15.850  1.00  0.00     0.123 C
HETATM   55  C31 UNL     1      17.313   8.938  14.538  1.00  0.00     0.091 C
HETATM   56  O4  UNL     1      18.187   8.223  16.575  1.00  0.00    -0.298 OA
ENDBRANCH  53  54
ENDBRANCH  52  53
ENDBRANCH  51  52
ENDBRANCH  50  51
ENDBRANCH  49  50
ENDBRANCH  15  49
BRANCH  18  57
HETATM   57  O5  UNL     1      20.243   6.180  13.968  1.00  0.00    -0.340 OA
ATOM     58  H5  UNL     1      21.075   5.722  13.973  1.00  0.00     0.220 HD
ENDBRANCH  18  57
TORSDOF 17
ENDMDL