MODEL 4
REMARK VINA RESULT: -7.477871275      2.743      8.334
REMARK  16 active torsions:
REMARK  status: ('A' for Active; 'I' for Inactive)
REMARK    1  A    between atoms: C2_2  and  C4_4
REMARK    2  A    between atoms: C4_4  and  C5_5
REMARK    3  A    between atoms: C5_5  and  C6_6
REMARK    4  A    between atoms: C6_6  and  C7_7
REMARK    5  A    between atoms: C7_7  and  C8_8
REMARK    6  A    between atoms: C8_8  and  C9_9
REMARK    7  A    between atoms: C10_12  and  O1_13
REMARK    8  A    between atoms: C11_15  and  C12_16
REMARK    9  A    between atoms: C15_21  and  O2_22
REMARK   10  A    between atoms: C23_34  and  C24_35
REMARK   11  A    between atoms: C24_35  and  C25_36
REMARK   12  A    between atoms: C28_39  and  O4_40
REMARK   13  A    between atoms: C29_44  and  C30_45
REMARK   14  A    between atoms: C30_45  and  C31_46
REMARK   15  A    between atoms: C31_46  and  N5_47
REMARK   16  A    between atoms: C33_52  and  C34_53
ROOT
HETATM    1  C9  UNL     1      18.226  -1.715   9.264  1.00  0.00     0.102 C
HETATM    2  N1  UNL     1      18.527  -2.757  10.272  1.00  0.00    -0.331 N
ATOM      3  H1  UNL     1      19.510  -2.813  10.540  1.00  0.00     0.168 HD
HETATM    4  C10 UNL     1      17.716  -3.659  10.905  1.00  0.00     0.164 C
HETATM    5  C11 UNL     1      16.703  -4.619  10.514  1.00  0.00     0.065 C
HETATM    6  N2  UNL     1      16.145  -4.603   9.207  1.00  0.00    -0.340 N
ATOM      7  H2  UNL     1      16.028  -3.661   8.833  1.00  0.00     0.167 HD
HETATM    8  C15 UNL     1      15.720  -5.599   8.320  1.00  0.00     0.120 C
HETATM    9  C16 UNL     1      16.441  -6.617   7.538  1.00  0.00     0.073 C
HETATM   10  C17 UNL     1      16.129  -8.038   7.898  1.00  0.00     0.013 C
HETATM   11  C18 UNL     1      14.711  -8.458   7.771  1.00  0.00     0.001 C
HETATM   12  C19 UNL     1      14.257  -8.227   6.359  1.00  0.00     0.001 C
HETATM   13  C20 UNL     1      15.329  -7.659   5.511  1.00  0.00     0.015 C
HETATM   14  C21 UNL     1      16.100  -6.504   6.039  1.00  0.00     0.090 C
HETATM   15  C22 UNL     1      17.372  -6.522   5.268  1.00  0.00     0.227 C
HETATM   16  O3  UNL     1      18.267  -7.323   5.644  1.00  0.00    -0.273 OA
HETATM   17  N3  UNL     1      17.646  -5.696   4.135  1.00  0.00    -0.327 N
ATOM     18  H3  UNL     1      18.502  -5.881   3.611  1.00  0.00     0.168 HD
HETATM   19  C23 UNL     1      16.822  -4.645   3.688  1.00  0.00     0.063 C
HETATM   20  C28 UNL     1      16.899  -3.338   4.387  1.00  0.00     0.163 C
HETATM   21  N4  UNL     1      17.666  -2.779   5.385  1.00  0.00    -0.337 N
ATOM     22  H4  UNL     1      17.235  -2.985   6.286  1.00  0.00     0.168 HD
HETATM   23  C29 UNL     1      18.844  -2.016   5.604  1.00  0.00     0.043 C
HETATM   24  C33 UNL     1      19.914  -2.570   6.489  1.00  0.00     0.096 C
HETATM   25  N8  UNL     1      20.247  -1.853   7.683  1.00  0.00    -0.318 N
ATOM     26  H8  UNL     1      21.251  -1.795   7.853  1.00  0.00     0.169 HD
HETATM   27  C35 UNL     1      19.470  -1.207   8.676  1.00  0.00     0.272 C
HETATM   28  O6  UNL     1      20.010  -0.081   9.017  1.00  0.00    -0.266 OA
ENDROOT
BRANCH   1  29
HETATM   29  C8  UNL     1      17.145  -0.926   9.734  1.00  0.00     0.031 C
BRANCH  29  30
HETATM   30  C7  UNL     1      17.054   0.129  10.711  1.00  0.00    -0.024 C
BRANCH  30  31
HETATM   31  C6  UNL     1      16.878  -0.148  12.168  1.00  0.00     0.027 C
BRANCH  31  32
HETATM   32  C5  UNL     1      18.131  -0.283  12.976  1.00  0.00     0.004 C
BRANCH  32  33
HETATM   33  C4  UNL     1      17.900   0.293  14.353  1.00  0.00     0.004 C
BRANCH  33  34
HETATM   34  C2  UNL     1      17.764  -0.811  15.391  1.00  0.00    -0.023 C
HETATM   35  C1  UNL     1      19.143  -1.288  15.804  1.00  0.00     0.009 C
HETATM   36  C3  UNL     1      17.097  -0.234  16.623  1.00  0.00     0.009 C
ENDBRANCH  33  34
ENDBRANCH  32  33
ENDBRANCH  31  32
ENDBRANCH  30  31
ENDBRANCH  29  30
ENDBRANCH   1  29
BRANCH   4  37
HETATM   37  O1  UNL     1      17.920  -3.647  12.208  1.00  0.00    -0.345 OA
ATOM     38  H1  UNL     1      17.108  -3.499  12.678  1.00  0.00     0.219 HD
ENDBRANCH   4  37
BRANCH   5  39
HETATM   39  C12 UNL     1      16.986  -6.027  11.049  1.00  0.00     0.032 C
HETATM   40  C13 UNL     1      17.220  -6.034  12.549  1.00  0.00     0.016 C
HETATM   41  C14 UNL     1      18.278  -6.574  10.465  1.00  0.00     0.016 C
ENDBRANCH   5  39
BRANCH  24  42
HETATM   42  C34 UNL     1      19.961  -4.026   6.666  1.00  0.00     0.290 C
HETATM   43  O5  UNL     1      19.346  -4.624   7.527  1.00  0.00    -0.300 OA
ENDBRANCH  24  42
BRANCH  23  44
HETATM   44  C30 UNL     1      19.414  -1.269   4.414  1.00  0.00     0.079 C
BRANCH  44  45
HETATM   45  C31 UNL     1      18.862   0.077   4.140  1.00  0.00     0.128 C
BRANCH  45  46
HETATM   46  N5  UNL     1      19.238   0.966   5.236  1.00  0.00    -0.367 N
HETATM   47  C32 UNL     1      18.526   1.196   6.249  1.00  0.00     0.196 C
HETATM   48  N6  UNL     1      17.269   0.590   6.404  1.00  0.00    -0.067 NA
HETATM   49  N7  UNL     1      19.003   2.078   7.248  1.00  0.00    -0.067 NA
ATOM     50  H5  UNL     1      20.142   1.436   5.176  1.00  0.00     0.161 HD
ENDBRANCH  45  46
ENDBRANCH  44  45
ENDBRANCH  23  44
BRANCH   8  51
HETATM   51  O2  UNL     1      14.439  -5.702   8.092  1.00  0.00    -0.349 OA
ATOM     52  H2  UNL     1      13.853  -5.156   8.604  1.00  0.00     0.219 HD
ENDBRANCH   8  51
BRANCH  20  53
HETATM   53  O4  UNL     1      15.955  -2.574   3.864  1.00  0.00    -0.345 OA
ATOM     54  H4  UNL     1      15.198  -3.132   3.730  1.00  0.00     0.219 HD
ENDBRANCH  20  53
BRANCH  19  55
HETATM   55  C24 UNL     1      16.762  -4.515   2.201  1.00  0.00     0.065 C
BRANCH  55  56
HETATM   56  C25 UNL     1      15.635  -5.205   1.509  1.00  0.00    -0.017 C
HETATM   57  C26 UNL     1      15.254  -4.708   0.166  1.00  0.00     0.010 C
HETATM   58  C27 UNL     1      14.418  -5.347   2.424  1.00  0.00     0.010 C
ENDBRANCH  55  56
ENDBRANCH  19  55
TORSDOF 16
ENDMDL