MODEL 2
REMARK VINA RESULT: -7.454333264      1.418      1.657
REMARK  14 active torsions:
REMARK  status: ('A' for Active; 'I' for Inactive)
REMARK    1  A    between atoms: C3_3  and  C4_4
REMARK    2  A    between atoms: C6_9  and  C7_10
REMARK    3  A    between atoms: C7_10  and  C8_11
REMARK    4  A    between atoms: C12_17  and  C13_18
REMARK    5  A    between atoms: C13_18  and  C14_19
REMARK    6  A    between atoms: C14_19  and  C15_20
REMARK    7  A    between atoms: C15_20  and  C16_21
REMARK    8  A    between atoms: C16_21  and  C17_22
REMARK    9  A    between atoms: C17_22  and  C18_23
REMARK   10  A    between atoms: C19_28  and  O5_29
REMARK   11  A    between atoms: C20_31  and  C21_32
REMARK   12  A    between atoms: C21_32  and  C22_33
REMARK   13  A    between atoms: C26_40  and  C27_41
REMARK   14  A    between atoms: C27_41  and  C28_42
ROOT
HETATM    1  C1  UNL     1      14.539  -5.025   2.857  1.00  0.00     0.012 C
HETATM    2  C2  UNL     1      15.527  -4.387   3.106  1.00  0.00    -0.115 C
HETATM    3  C3  UNL     1      16.702  -3.611   3.378  1.00  0.00     0.128 C
ENDROOT
BRANCH   3   4
HETATM    4  C4  UNL     1      17.487  -4.201   4.543  1.00  0.00     0.187 C
HETATM    5  N1  UNL     1      18.807  -3.590   4.640  1.00  0.00    -0.345 N
HETATM    6  C5  UNL     1      19.159  -2.306   5.031  1.00  0.00     0.241 C
ATOM      7  H1  UNL     1      19.586  -4.196   4.384  1.00  0.00     0.163 HD
HETATM    8  O1  UNL     1      19.838  -1.629   4.172  1.00  0.00    -0.271 OA
HETATM    9  C6  UNL     1      18.875  -1.586   6.299  1.00  0.00     0.179 C
HETATM   10  N2  UNL     1      19.285  -2.360   7.449  1.00  0.00    -0.338 N
HETATM   11  C10 UNL     1      20.522  -3.150   7.158  1.00  0.00     0.154 C
HETATM   12  C11 UNL     1      18.732  -2.472   8.726  1.00  0.00     0.266 C
HETATM   13  O2  UNL     1      19.607  -2.336   9.672  1.00  0.00    -0.266 OA
HETATM   14  C12 UNL     1      17.374  -2.713   9.200  1.00  0.00     0.079 C
HETATM   15  N3  UNL     1      16.698  -3.849   8.685  1.00  0.00    -0.338 N
HETATM   16  C19 UNL     1      16.447  -5.126   9.198  1.00  0.00     0.139 C
ATOM     17  H3  UNL     1      16.317  -3.705   7.749  1.00  0.00     0.167 HD
HETATM   18  C20 UNL     1      17.384  -6.204   9.585  1.00  0.00     0.159 C
HETATM   19  N4  UNL     1      17.141  -7.417   8.799  1.00  0.00    -0.347 N
HETATM   20  C25 UNL     1      17.238  -7.601   7.439  1.00  0.00     0.241 C
ATOM     21  H4  UNL     1      16.861  -8.239   9.334  1.00  0.00     0.163 HD
HETATM   22  O6  UNL     1      17.979  -8.561   7.004  1.00  0.00    -0.271 OA
HETATM   23  C26 UNL     1      16.610  -6.857   6.310  1.00  0.00     0.181 C
HETATM   24  N6  UNL     1      17.584  -6.664   5.246  1.00  0.00    -0.346 N
HETATM   25  C36 UNL     1      17.593  -5.659   4.264  1.00  0.00     0.242 C
ATOM     26  H6  UNL     1      18.351  -7.336   5.210  1.00  0.00     0.163 HD
HETATM   27  O7  UNL     1      17.704  -6.045   3.039  1.00  0.00    -0.271 OA
BRANCH   9  28
HETATM   28  C7  UNL     1      17.557  -0.929   6.364  1.00  0.00     0.035 C
BRANCH  28  29
HETATM   29  C8  UNL     1      17.654   0.579   6.051  1.00  0.00    -0.002 C
HETATM   30  C9  UNL     1      18.971   1.144   6.512  1.00  0.00     0.005 C
ENDBRANCH  28  29
ENDBRANCH   9  28
BRANCH  14  31
HETATM   31  C13 UNL     1      17.225  -2.533  10.691  1.00  0.00     0.063 C
BRANCH  31  32
HETATM   32  C14 UNL     1      17.450  -1.164  11.207  1.00  0.00     0.006 C
BRANCH  32  33
HETATM   33  C15 UNL     1      16.861  -0.105  10.255  1.00  0.00     0.001 C
BRANCH  33  34
HETATM   34  C16 UNL     1      17.813   1.017  10.055  1.00  0.00     0.010 C
BRANCH  34  35
HETATM   35  C17 UNL     1      17.791   2.105  11.065  1.00  0.00     0.113 C
BRANCH  35  36
HETATM   36  C18 UNL     1      17.515   3.453  10.576  1.00  0.00     0.172 C
HETATM   37  O3  UNL     1      16.651   4.169  11.117  1.00  0.00    -0.648 OA
HETATM   38  O4  UNL     1      18.216   3.959   9.495  1.00  0.00    -0.648 OA
ENDBRANCH  35  36
ENDBRANCH  34  35
ENDBRANCH  33  34
ENDBRANCH  32  33
ENDBRANCH  31  32
ENDBRANCH  14  31
BRANCH  16  39
HETATM   39  O5  UNL     1      15.212  -5.500   9.394  1.00  0.00    -0.348 OA
ATOM     40  H5  UNL     1      14.631  -5.587   8.647  1.00  0.00     0.219 HD
ENDBRANCH  16  39
BRANCH  18  41
HETATM   41  C21 UNL     1      18.824  -5.873   9.599  1.00  0.00     0.037 C
BRANCH  41  42
HETATM   42  C22 UNL     1      19.280  -5.816  11.065  1.00  0.00    -0.020 C
HETATM   43  C23 UNL     1      20.187  -4.579  11.135  1.00  0.00     0.009 C
HETATM   44  C24 UNL     1      18.076  -5.551  11.955  1.00  0.00     0.009 C
ENDBRANCH  41  42
ENDBRANCH  18  41
BRANCH  23  45
HETATM   45  C27 UNL     1      15.577  -7.802   5.645  1.00  0.00     0.075 C
BRANCH  45  46
HETATM   46  C28 UNL     1      14.608  -8.354   6.563  1.00  0.00    -0.028 A
HETATM   47  C29 UNL     1      14.518  -9.666   6.968  1.00  0.00     0.096 A
HETATM   48  N5  UNL     1      13.473  -9.791   7.841  1.00  0.00    -0.365 N
HETATM   49  C30 UNL     1      12.884  -8.588   8.007  1.00  0.00     0.042 A
ATOM     50  H5  UNL     1      13.183 -10.657   8.294  1.00  0.00     0.165 HD
HETATM   51  C31 UNL     1      11.806  -8.208   8.775  1.00  0.00     0.030 A
HETATM   52  C35 UNL     1      13.593  -7.690   7.209  1.00  0.00    -0.002 A
HETATM   53  C32 UNL     1      11.391  -6.895   8.769  1.00  0.00     0.002 A
HETATM   54  C33 UNL     1      12.052  -5.987   8.006  1.00  0.00     0.001 A
HETATM   55  C34 UNL     1      13.129  -6.384   7.244  1.00  0.00     0.014 A
ENDBRANCH  45  46
ENDBRANCH  23  45
ENDBRANCH   3   4
TORSDOF 14
ENDMDL