MODEL 2
REMARK VINA RESULT: -6.749834037     14.345     18.524
REMARK  13 active torsions:
REMARK  status: ('A' for Active; 'I' for Inactive)
REMARK    1  A    between atoms: C2_2  and  C3_3
REMARK    2  A    between atoms: C3_3  and  C5_5
REMARK    3  A    between atoms: C5_5  and  C6_6
REMARK    4  A    between atoms: C8_11  and  C9_12
REMARK    5  A    between atoms: C9_12  and  C10_13
REMARK    6  A    between atoms: C18_24  and  C19_25
REMARK       I    between atoms: C19_25  and  N3_27
REMARK    7  A    between atoms: N3_27  and  C20_29
REMARK    8  A    between atoms: C20_29  and  C22_31
REMARK       I    between atoms: C22_31  and  N4_33
REMARK    9  A    between atoms: C25_38  and  C26_39
REMARK   10  A    between atoms: C26_39  and  C27_40
REMARK   11  A    between atoms: C30_45  and  O6_46
REMARK   12  A    between atoms: C31_48  and  C32_49
REMARK   13  A    between atoms: C35_54  and  O7_55
ROOT
HETATM    1  C6  UNL     1      17.077  -5.223   7.947  1.00  0.00     0.182 C
HETATM    2  N1  UNL     1      16.501  -6.409   8.468  1.00  0.00    -0.344 N
ATOM      3  H1  UNL     1      16.740  -6.606   9.441  1.00  0.00     0.163 HD
HETATM    4  C7  UNL     1      15.658  -7.357   7.870  1.00  0.00     0.241 C
HETATM    5  O1  UNL     1      15.847  -8.595   8.156  1.00  0.00    -0.271 OA
HETATM    6  C8  UNL     1      14.543  -7.112   6.922  1.00  0.00     0.177 C
HETATM    7  N2  UNL     1      14.155  -8.264   6.174  1.00  0.00    -0.344 N
ATOM      8  H2  UNL     1      13.161  -8.294   5.948  1.00  0.00     0.163 HD
HETATM    9  C13 UNL     1      14.890  -9.374   5.687  1.00  0.00     0.247 C
HETATM   10  O2  UNL     1      14.598 -10.522   6.209  1.00  0.00    -0.268 OA
HETATM   11  C14 UNL     1      15.943  -9.470   4.675  1.00  0.00     0.006 C
HETATM   12  C15 UNL     1      17.320  -9.984   5.124  1.00  0.00     0.054 C
HETATM   13  C16 UNL     1      15.772  -9.196   3.361  1.00  0.00     0.013 C
HETATM   14  C17 UNL     1      14.647  -8.774   2.583  1.00  0.00     0.022 C
HETATM   15  C18 UNL     1      14.060  -7.614   2.306  1.00  0.00     0.080 C
HETATM   16  C24 UNL     1      14.479  -6.312   2.753  1.00  0.00     0.187 C
HETATM   17  O5  UNL     1      13.641  -5.646   3.464  1.00  0.00    -0.290 OA
HETATM   18  C25 UNL     1      15.777  -5.540   2.536  1.00  0.00     0.159 C
HETATM   19  N5  UNL     1      16.271  -5.148   3.819  1.00  0.00    -0.358 N
ATOM     20  H5  UNL     1      15.551  -4.665   4.357  1.00  0.00     0.162 HD
HETATM   21  C30 UNL     1      17.448  -5.238   4.534  1.00  0.00     0.160 C
HETATM   22  C31 UNL     1      18.574  -4.366   4.892  1.00  0.00     0.065 C
HETATM   23  N6  UNL     1      19.014  -4.637   6.291  1.00  0.00    -0.338 N
ATOM     24  H6  UNL     1      19.910  -4.226   6.554  1.00  0.00     0.167 HD
HETATM   25  C35 UNL     1      18.385  -5.362   7.280  1.00  0.00     0.143 C
ENDROOT
BRANCH  15  26
HETATM   26  C19 UNL     1      12.846  -7.631   1.413  1.00  0.00     0.256 C
HETATM   27  O3  UNL     1      12.492  -8.742   0.909  1.00  0.00    -0.268 OA
HETATM   28  N3  UNL     1      12.073  -6.511   1.096  1.00  0.00    -0.344 N
ATOM     29  H3  UNL     1      12.334  -5.606   1.486  1.00  0.00     0.163 HD
BRANCH  28  30
HETATM   30  C20 UNL     1      10.901  -6.595   0.218  1.00  0.00     0.172 C
HETATM   31  C21 UNL     1       9.804  -5.651   0.691  1.00  0.00     0.042 C
BRANCH  30  32
HETATM   32  C22 UNL     1      11.250  -6.175  -1.149  1.00  0.00     0.239 C
HETATM   33  O4  UNL     1      11.734  -7.001  -1.950  1.00  0.00    -0.271 OA
HETATM   34  N4  UNL     1      11.042  -4.845  -1.563  1.00  0.00    -0.364 N
HETATM   35  C23 UNL     1      11.380  -4.400  -2.912  1.00  0.00     0.149 C
ATOM     36  H4  UNL     1      10.645  -4.176  -0.904  1.00  0.00     0.161 HD
ENDBRANCH  30  32
ENDBRANCH  28  30
ENDBRANCH  15  26
BRANCH  18  37
HETATM   37  C26 UNL     1      15.278  -4.371   1.664  1.00  0.00     0.037 C
BRANCH  37  38
HETATM   38  C27 UNL     1      15.790  -4.389   0.260  1.00  0.00    -0.020 C
HETATM   39  C28 UNL     1      17.163  -5.007   0.167  1.00  0.00     0.009 C
HETATM   40  C29 UNL     1      14.835  -5.134  -0.666  1.00  0.00     0.009 C
ENDBRANCH  37  38
ENDBRANCH  18  37
BRANCH  21  41
HETATM   41  O6  UNL     1      17.727  -6.416   5.104  1.00  0.00    -0.345 OA
ATOM     42  H6  UNL     1      17.448  -7.198   4.643  1.00  0.00     0.219 HD
ENDBRANCH  21  41
BRANCH  22  43
HETATM   43  C32 UNL     1      18.611  -2.955   4.561  1.00  0.00     0.032 C
HETATM   44  C33 UNL     1      19.206  -2.241   5.795  1.00  0.00     0.016 C
HETATM   45  C34 UNL     1      17.366  -2.246   4.212  1.00  0.00     0.016 C
ENDBRANCH  22  43
BRANCH   6  46
HETATM   46  C9  UNL     1      13.352  -6.479   7.592  1.00  0.00     0.038 C
BRANCH  46  47
HETATM   47  C10 UNL     1      12.475  -7.367   8.380  1.00  0.00    -0.020 C
HETATM   48  C11 UNL     1      11.688  -8.401   7.624  1.00  0.00     0.009 C
HETATM   49  C12 UNL     1      11.422  -6.570   9.172  1.00  0.00     0.009 C
ENDBRANCH  46  47
ENDBRANCH   6  46
BRANCH  25  50
HETATM   50  O7  UNL     1      19.067  -6.378   7.724  1.00  0.00    -0.348 OA
ATOM     51  H7  UNL     1      19.943  -6.136   8.001  1.00  0.00     0.219 HD
ENDBRANCH  25  50
BRANCH   1  52
HETATM   52  C5  UNL     1      17.084  -4.035   8.830  1.00  0.00     0.009 C
BRANCH  52  53
HETATM   53  C3  UNL     1      17.852  -3.982  10.073  1.00  0.00    -0.086 C
HETATM   54  C4  UNL     1      18.993  -2.989  10.131  1.00  0.00     0.043 C
BRANCH  53  55
HETATM   55  C2  UNL     1      17.143  -4.063  11.378  1.00  0.00     0.029 C
HETATM   56  C1  UNL     1      17.474  -5.451  11.968  1.00  0.00     0.010 C
ENDBRANCH  53  55
ENDBRANCH  52  53
ENDBRANCH   1  52
TORSDOF 13
ENDMDL