MODEL 3
REMARK VINA RESULT: -6.517973904      2.665      7.163
REMARK  14 active torsions:
REMARK  status: ('A' for Active; 'I' for Inactive)
REMARK    1  A    between atoms: C2_2  and  C3_3
REMARK    2  A    between atoms: C3_3  and  C4_4
REMARK    3  A    between atoms: C6_9  and  C7_10
REMARK    4  A    between atoms: C7_10  and  C8_11
REMARK    5  A    between atoms: C12_18  and  C13_19
REMARK    6  A    between atoms: C19_28  and  O4_29
REMARK    7  A    between atoms: C20_33  and  C21_34
REMARK    8  A    between atoms: C21_34  and  C22_35
REMARK    9  A    between atoms: C22_35  and  C23_36
REMARK   10  A    between atoms: C23_36  and  C24_37
REMARK   11  A    between atoms: C24_37  and  N5_38
REMARK   12  A    between atoms: C31_46  and  C32_47
REMARK   13  A    between atoms: C32_47  and  C33_48
REMARK   14  A    between atoms: C36_53  and  O6_54
ROOT
HETATM    1  C4  UNL     1      18.173  -3.524   4.908  1.00  0.00     0.159 C
HETATM    2  N1  UNL     1      18.840  -4.736   5.281  1.00  0.00    -0.344 N
ATOM      3  H1  UNL     1      19.768  -4.896   4.890  1.00  0.00     0.163 HD
HETATM    4  C5  UNL     1      18.324  -5.730   6.144  1.00  0.00     0.264 C
HETATM    5  O1  UNL     1      18.818  -6.902   5.956  1.00  0.00    -0.266 OA
HETATM    6  C6  UNL     1      17.316  -5.573   7.193  1.00  0.00     0.080 C
HETATM    7  N2  UNL     1      15.943  -5.737   6.799  1.00  0.00    -0.324 N
ATOM      8  H2  UNL     1      15.597  -4.937   6.269  1.00  0.00     0.169 HD
HETATM    9  C11 UNL     1      14.979  -6.708   6.960  1.00  0.00     0.245 C
HETATM   10  O2  UNL     1      13.973  -6.407   7.714  1.00  0.00    -0.271 OA
HETATM   11  C12 UNL     1      14.866  -8.095   6.410  1.00  0.00     0.180 C
HETATM   12  N3  UNL     1      15.687  -8.315   5.268  1.00  0.00    -0.347 N
ATOM     13  H3  UNL     1      16.072  -7.434   4.926  1.00  0.00     0.163 HD
HETATM   14  C16 UNL     1      16.111  -9.362   4.496  1.00  0.00     0.218 C
HETATM   15  O3  UNL     1      17.317  -9.801   4.704  1.00  0.00    -0.274 OA
HETATM   16  C17 UNL     1      15.462 -10.149   3.403  1.00  0.00     0.111 C
HETATM   17  C18 UNL     1      16.365 -10.188   2.173  1.00  0.00     0.093 C
HETATM   18  C19 UNL     1      15.951  -9.390   1.029  1.00  0.00     0.116 C
HETATM   19  N4  UNL     1      15.995  -8.043   0.683  1.00  0.00    -0.341 N
ATOM     20  H4  UNL     1      15.877  -7.901  -0.320  1.00  0.00     0.167 HD
HETATM   21  C20 UNL     1      16.165  -6.814   1.383  1.00  0.00     0.059 C
HETATM   22  C30 UNL     1      17.474  -6.521   1.962  1.00  0.00     0.194 C
HETATM   23  O5  UNL     1      18.147  -7.381   2.468  1.00  0.00    -0.289 OA
HETATM   24  C31 UNL     1      18.134  -5.160   1.999  1.00  0.00     0.160 C
HETATM   25  N6  UNL     1      17.312  -4.122   2.523  1.00  0.00    -0.361 N
ATOM     26  H6  UNL     1      16.666  -3.712   1.849  1.00  0.00     0.162 HD
HETATM   27  C36 UNL     1      17.239  -3.571   3.804  1.00  0.00     0.135 C
ENDROOT
BRANCH  21  28
HETATM   28  C21 UNL     1      14.964  -6.272   2.129  1.00  0.00     0.061 C
BRANCH  28  29
HETATM   29  C22 UNL     1      13.841  -5.798   1.268  1.00  0.00     0.008 C
BRANCH  29  30
HETATM   30  C23 UNL     1      12.515  -6.405   1.419  1.00  0.00     0.021 C
BRANCH  30  31
HETATM   31  C24 UNL     1      12.482  -7.875   0.972  1.00  0.00     0.128 C
BRANCH  31  32
HETATM   32  N5  UNL     1      12.277  -8.793   2.057  1.00  0.00    -0.366 N
HETATM   33  C25 UNL     1      12.099 -10.119   1.778  1.00  0.00     0.090 A
HETATM   34  C26 UNL     1      11.870 -11.055   2.760  1.00  0.00     0.017 A
HETATM   35  C27 UNL     1      11.811 -10.685   4.086  1.00  0.00     0.003 A
HETATM   36  C28 UNL     1      11.990  -9.343   4.379  1.00  0.00     0.017 A
HETATM   37  C29 UNL     1      12.216  -8.459   3.341  1.00  0.00     0.090 A
ENDBRANCH  31  32
ENDBRANCH  30  31
ENDBRANCH  29  30
ENDBRANCH  28  29
ENDBRANCH  21  28
BRANCH  18  38
HETATM   38  O4  UNL     1      15.397 -10.147   0.097  1.00  0.00    -0.349 OA
ATOM     39  H4  UNL     1      15.572  -9.803  -0.770  1.00  0.00     0.219 HD
ENDBRANCH  18  38
BRANCH  24  40
HETATM   40  C32 UNL     1      18.601  -4.915   0.603  1.00  0.00     0.037 C
BRANCH  40  41
HETATM   41  C33 UNL     1      19.450  -5.949  -0.040  1.00  0.00    -0.020 C
HETATM   42  C34 UNL     1      20.902  -5.615  -0.162  1.00  0.00     0.009 C
HETATM   43  C35 UNL     1      18.896  -6.499  -1.334  1.00  0.00     0.009 C
ENDBRANCH  40  41
ENDBRANCH  24  40
BRANCH  27  44
HETATM   44  O6  UNL     1      16.094  -2.988   4.024  1.00  0.00    -0.348 OA
ATOM     45  H6  UNL     1      15.359  -3.577   4.150  1.00  0.00     0.219 HD
ENDBRANCH  27  44
BRANCH   1  46
HETATM   46  C3  UNL     1      19.184  -2.382   4.770  1.00  0.00     0.033 C
BRANCH  46  47
HETATM   47  C2  UNL     1      18.720  -1.158   5.537  1.00  0.00    -0.002 C
HETATM   48  C1  UNL     1      19.148   0.057   4.745  1.00  0.00     0.005 C
ENDBRANCH  46  47
ENDBRANCH   1  46
BRANCH  11  49
HETATM   49  C13 UNL     1      14.959  -9.043   7.545  1.00  0.00     0.009 C
HETATM   50  C14 UNL     1      16.375  -9.488   7.847  1.00  0.00     0.012 C
HETATM   51  C15 UNL     1      14.151 -10.284   7.325  1.00  0.00     0.012 C
ENDBRANCH  11  49
BRANCH   6  52
HETATM   52  C7  UNL     1      17.716  -6.257   8.459  1.00  0.00     0.067 C
BRANCH  52  53
HETATM   53  C8  UNL     1      17.889  -5.420   9.664  1.00  0.00    -0.017 C
HETATM   54  C9  UNL     1      19.326  -5.011   9.915  1.00  0.00     0.010 C
HETATM   55  C10 UNL     1      17.275  -5.853  10.936  1.00  0.00     0.010 C
ENDBRANCH  52  53
ENDBRANCH   6  52
TORSDOF 14
ENDMDL