MODEL 5
REMARK VINA RESULT: -6.595219847      1.281      1.572
REMARK  13 active torsions:
REMARK  status: ('A' for Active; 'I' for Inactive)
REMARK    1  A    between atoms: C2_2  and  C3_3
REMARK    2  A    between atoms: C3_3  and  C5_5
REMARK    3  A    between atoms: C10_16  and  C11_17
REMARK    4  A    between atoms: C11_17  and  C12_18
REMARK    5  A    between atoms: C20_30  and  O3_31
REMARK    6  A    between atoms: C22_35  and  C23_36
REMARK    7  A    between atoms: C23_36  and  C24_37
REMARK    8  A    between atoms: C24_37  and  C25_38
REMARK    9  A    between atoms: C25_38  and  C26_39
REMARK   10  A    between atoms: C26_39  and  C27_40
REMARK   11  A    between atoms: C30_46  and  C31_47
REMARK   12  A    between atoms: C31_47  and  C32_48
REMARK   13  A    between atoms: C35_53  and  O6_54
ROOT
HETATM    1  C5  UNL     1      17.743  -7.343   1.349  1.00  0.00     0.162 C
HETATM    2  N1  UNL     1      16.867  -6.264   1.012  1.00  0.00    -0.347 N
ATOM      3  H1  UNL     1      16.310  -6.385   0.166  1.00  0.00     0.163 HD
HETATM    4  C6  UNL     1      16.681  -5.053   1.708  1.00  0.00     0.240 C
HETATM    5  O1  UNL     1      16.436  -4.047   0.958  1.00  0.00    -0.271 OA
HETATM    6  C7  UNL     1      16.724  -4.775   3.145  1.00  0.00     0.172 C
HETATM    7  C8  UNL     1      16.387  -3.328   3.469  1.00  0.00     0.042 C
HETATM    8  N2  UNL     1      17.933  -5.101   3.823  1.00  0.00    -0.346 N
ATOM      9  H2  UNL     1      18.777  -5.118   3.251  1.00  0.00     0.163 HD
HETATM   10  C9  UNL     1      18.107  -5.403   5.192  1.00  0.00     0.241 C
HETATM   11  O2  UNL     1      18.821  -6.441   5.466  1.00  0.00    -0.271 OA
HETATM   12  C10 UNL     1      17.589  -4.698   6.354  1.00  0.00     0.180 C
HETATM   13  N4  UNL     1      16.561  -5.303   7.127  1.00  0.00    -0.354 N
ATOM     14  H4  UNL     1      15.710  -4.742   7.149  1.00  0.00     0.162 HD
HETATM   15  C20 UNL     1      16.444  -6.474   7.855  1.00  0.00     0.185 C
HETATM   16  C21 UNL     1      16.285  -7.875   7.485  1.00  0.00     0.222 C
HETATM   17  O4  UNL     1      17.159  -8.639   8.028  1.00  0.00    -0.286 OA
HETATM   18  C22 UNL     1      15.286  -8.488   6.605  1.00  0.00     0.165 C
HETATM   19  N5  UNL     1      15.672  -9.639   5.836  1.00  0.00    -0.343 N
HETATM   20  C28 UNL     1      16.605 -10.572   6.513  1.00  0.00     0.153 C
HETATM   21  C29 UNL     1      15.242 -10.024   4.560  1.00  0.00     0.243 C
HETATM   22  O5  UNL     1      14.836 -11.239   4.389  1.00  0.00    -0.271 OA
HETATM   23  C30 UNL     1      15.172  -9.207   3.287  1.00  0.00     0.176 C
HETATM   24  N6  UNL     1      16.304  -8.324   3.314  1.00  0.00    -0.359 N
ATOM     25  H6  UNL     1      16.256  -7.680   4.103  1.00  0.00     0.162 HD
HETATM   26  C35 UNL     1      17.433  -8.111   2.564  1.00  0.00     0.135 C
ENDROOT
BRANCH  12  27
HETATM   27  C11 UNL     1      18.829  -4.336   7.180  1.00  0.00     0.075 C
BRANCH  27  28
HETATM   28  C12 UNL     1      18.849  -2.960   7.643  1.00  0.00    -0.028 A
HETATM   29  C13 UNL     1      18.736  -2.528   8.951  1.00  0.00     0.096 A
HETATM   30  N3  UNL     1      18.800  -1.174   8.950  1.00  0.00    -0.365 N
HETATM   31  C14 UNL     1      18.949  -0.720   7.692  1.00  0.00     0.042 A
ATOM     32  H3  UNL     1      18.743  -0.585   9.781  1.00  0.00     0.165 HD
HETATM   33  C15 UNL     1      19.055   0.564   7.201  1.00  0.00     0.030 A
HETATM   34  C19 UNL     1      18.980  -1.831   6.872  1.00  0.00    -0.002 A
HETATM   35  C16 UNL     1      19.197   0.764   5.850  1.00  0.00     0.002 A
HETATM   36  C17 UNL     1      19.233  -0.321   5.002  1.00  0.00     0.001 A
HETATM   37  C18 UNL     1      19.125  -1.600   5.519  1.00  0.00     0.014 A
ENDBRANCH  27  28
ENDBRANCH  12  27
BRANCH  15  38
HETATM   38  O3  UNL     1      16.477  -6.319   9.170  1.00  0.00    -0.344 OA
ATOM     39  H3  UNL     1      15.882  -6.880   9.654  1.00  0.00     0.219 HD
ENDBRANCH  15  38
BRANCH  18  40
HETATM   40  C23 UNL     1      14.062  -9.051   7.417  1.00  0.00     0.034 C
BRANCH  40  41
HETATM   41  C24 UNL     1      12.861  -8.220   7.316  1.00  0.00     0.002 C
BRANCH  41  42
HETATM   42  C25 UNL     1      11.630  -9.005   7.018  1.00  0.00     0.001 C
BRANCH  42  43
HETATM   43  C26 UNL     1      11.502  -9.790   5.802  1.00  0.00     0.011 C
BRANCH  43  44
HETATM   44  C27 UNL     1      11.537 -11.260   5.790  1.00  0.00     0.086 C
HETATM   45  S1  UNL     1      11.348 -12.001   7.442  1.00  0.00    -0.098 SA
ENDBRANCH  43  44
ENDBRANCH  42  43
ENDBRANCH  41  42
ENDBRANCH  40  41
ENDBRANCH  18  40
BRANCH   1  46
HETATM   46  C3  UNL     1      18.092  -8.281   0.233  1.00  0.00     0.012 C
HETATM   47  C4  UNL     1      18.725  -7.516  -0.943  1.00  0.00     0.012 C
BRANCH  46  48
HETATM   48  C2  UNL     1      17.031  -9.192  -0.245  1.00  0.00     0.002 C
HETATM   49  C1  UNL     1      17.507 -10.649  -0.086  1.00  0.00     0.005 C
ENDBRANCH  46  48
ENDBRANCH   1  46
BRANCH  26  50
HETATM   50  O6  UNL     1      18.514  -8.717   3.006  1.00  0.00    -0.348 OA
ATOM     51  H6  UNL     1      19.112  -8.885   2.288  1.00  0.00     0.219 HD
ENDBRANCH  26  50
BRANCH  23  52
HETATM   52  C31 UNL     1      13.822  -8.567   3.311  1.00  0.00     0.038 C
BRANCH  52  53
HETATM   53  C32 UNL     1      13.761  -7.113   2.941  1.00  0.00    -0.020 C
HETATM   54  C33 UNL     1      12.690  -6.744   1.976  1.00  0.00     0.009 C
HETATM   55  C34 UNL     1      13.476  -6.306   4.225  1.00  0.00     0.009 C
ENDBRANCH  52  53
ENDBRANCH  23  52
TORSDOF 13
ENDMDL