MODEL 1
REMARK VINA RESULT: -7.105695943      0.000      0.000
REMARK  12 active torsions:
REMARK  status: ('A' for Active; 'I' for Inactive)
REMARK    1  A    between atoms: C6_6  and  C7_7
REMARK    2  A    between atoms: C7_7  and  C8_8
REMARK    3  A    between atoms: C10_13  and  C11_14
REMARK    4  A    between atoms: C11_14  and  C12_15
REMARK    5  A    between atoms: C12_15  and  C13_16
REMARK    6  A    between atoms: C13_16  and  N2_17
REMARK    7  A    between atoms: C16_26  and  C17_27
REMARK    8  A    between atoms: C17_27  and  C18_28
REMARK    9  A    between atoms: C26_41  and  C27_42
REMARK   10  A    between atoms: C27_42  and  C28_43
REMARK   11  A    between atoms: C28_43  and  C29_44
REMARK   12  A    between atoms: C29_44  and  C30_45
ROOT
HETATM    1  C8  UNL     1      16.974  -4.501   3.958  1.00  0.00     0.063 C
HETATM    2  N1  UNL     1      16.016  -4.751   4.982  1.00  0.00    -0.325 N
ATOM      3  H1  UNL     1      15.345  -3.990   5.086  1.00  0.00     0.168 HD
HETATM    4  C9  UNL     1      15.786  -5.790   5.869  1.00  0.00     0.244 C
HETATM    5  O1  UNL     1      14.568  -6.217   5.960  1.00  0.00    -0.271 OA
HETATM    6  C10 UNL     1      16.697  -6.535   6.772  1.00  0.00     0.177 C
HETATM    7  N5  UNL     1      17.305  -7.662   6.168  1.00  0.00    -0.346 N
ATOM      8  H5  UNL     1      18.156  -7.424   5.660  1.00  0.00     0.163 HD
HETATM    9  C15 UNL     1      17.007  -9.026   6.108  1.00  0.00     0.241 C
HETATM   10  O2  UNL     1      18.037  -9.780   6.317  1.00  0.00    -0.271 OA
HETATM   11  C16 UNL     1      15.767  -9.735   5.855  1.00  0.00     0.177 C
HETATM   12  N6  UNL     1      15.700 -10.536   4.652  1.00  0.00    -0.346 N
ATOM     13  H6  UNL     1      15.319 -11.475   4.775  1.00  0.00     0.163 HD
HETATM   14  C21 UNL     1      16.080 -10.214   3.349  1.00  0.00     0.240 C
HETATM   15  O3  UNL     1      15.246 -10.448   2.395  1.00  0.00    -0.271 OA
HETATM   16  C22 UNL     1      17.350  -9.620   2.873  1.00  0.00     0.174 C
HETATM   17  C23 UNL     1      18.360 -10.746   2.547  1.00  0.00     0.042 C
HETATM   18  N7  UNL     1      17.125  -8.835   1.662  1.00  0.00    -0.343 N
HETATM   19  C24 UNL     1      17.033  -9.638   0.429  1.00  0.00     0.153 C
HETATM   20  C25 UNL     1      16.995  -7.453   1.574  1.00  0.00     0.232 C
HETATM   21  O4  UNL     1      17.615  -6.861   0.618  1.00  0.00    -0.272 OA
HETATM   22  C26 UNL     1      16.206  -6.561   2.472  1.00  0.00     0.154 C
HETATM   23  C31 UNL     1      16.865  -5.260   2.726  1.00  0.00     0.185 C
HETATM   24  O5  UNL     1      17.387  -4.782   1.701  1.00  0.00    -0.290 OA
ENDROOT
BRANCH   1  25
HETATM   25  C7  UNL     1      18.357  -4.251   4.408  1.00  0.00     0.100 C
BRANCH  25  26
HETATM   26  C6  UNL     1      18.592  -3.337   5.530  1.00  0.00    -0.040 A
HETATM   27  C4  UNL     1      19.245  -3.641   6.699  1.00  0.00    -0.054 A
HETATM   28  C3  UNL     1      19.482  -2.665   7.683  1.00  0.00     0.014 A
HETATM   29  C5  UNL     1      19.688  -5.028   7.048  1.00  0.00     0.049 C
HETATM   30  C2  UNL     1      19.070  -1.370   7.518  1.00  0.00    -0.055 A
HETATM   31  C1  UNL     1      19.305  -0.312   8.538  1.00  0.00     0.049 C
HETATM   32  C34 UNL     1      18.414  -1.080   6.342  1.00  0.00    -0.050 A
HETATM   33  C32 UNL     1      18.167  -2.011   5.359  1.00  0.00    -0.048 A
HETATM   34  C35 UNL     1      17.957   0.326   6.142  1.00  0.00     0.049 C
HETATM   35  C33 UNL     1      17.447  -1.550   4.135  1.00  0.00     0.049 C
ENDBRANCH  25  26
ENDBRANCH   1  25
BRANCH  22  36
HETATM   36  C27 UNL     1      14.936  -6.274   1.692  1.00  0.00     0.022 C
BRANCH  36  37
HETATM   37  C28 UNL     1      13.708  -6.102   2.492  1.00  0.00     0.008 C
BRANCH  37  38
HETATM   38  C29 UNL     1      12.653  -7.147   2.082  1.00  0.00     0.072 C
BRANCH  38  39
HETATM   39  C30 UNL     1      12.557  -8.214   3.089  1.00  0.00     0.086 C
HETATM   40  N8  UNL     1      13.006  -8.055   4.285  1.00  0.00    -0.391 N
ATOM     41  H82 UNL     1      13.441  -7.169   4.543  1.00  0.00     0.157 HD
ATOM     42  H81 UNL     1      12.940  -8.795   4.983  1.00  0.00     0.157 HD
HETATM   43  N9  UNL     1      11.953  -9.443   2.729  1.00  0.00    -0.088 NA
ENDBRANCH  38  39
ENDBRANCH  37  38
ENDBRANCH  36  37
ENDBRANCH  22  36
BRANCH   6  44
HETATM   44  C11 UNL     1      16.025  -6.843   8.101  1.00  0.00     0.036 C
BRANCH  44  45
HETATM   45  C12 UNL     1      17.007  -6.593   9.209  1.00  0.00     0.022 C
BRANCH  45  46
HETATM   46  C13 UNL     1      17.005  -5.214   9.776  1.00  0.00     0.122 C
BRANCH  46  47
HETATM   47  N2  UNL     1      18.322  -4.889  10.366  1.00  0.00    -0.367 N
HETATM   48  C14 UNL     1      18.337  -3.828  11.097  1.00  0.00     0.196 C
HETATM   49  N3  UNL     1      17.209  -3.005  11.345  1.00  0.00    -0.067 NA
HETATM   50  N4  UNL     1      19.573  -3.462  11.697  1.00  0.00    -0.067 NA
ATOM     51  H2  UNL     1      19.151  -5.460  10.207  1.00  0.00     0.161 HD
ENDBRANCH  46  47
ENDBRANCH  45  46
ENDBRANCH  44  45
ENDBRANCH   6  44
BRANCH  11  52
HETATM   52  C17 UNL     1      15.362 -10.523   7.060  1.00  0.00     0.038 C
BRANCH  52  53
HETATM   53  C18 UNL     1      13.939 -10.626   7.429  1.00  0.00    -0.020 C
HETATM   54  C19 UNL     1      13.781 -11.506   8.705  1.00  0.00     0.009 C
HETATM   55  C20 UNL     1      13.232  -9.351   7.773  1.00  0.00     0.009 C
ENDBRANCH  52  53
ENDBRANCH  11  52
TORSDOF 12
ENDMDL