MODEL 4
REMARK VINA RESULT: -5.845615181      7.718     11.875
REMARK  18 active torsions:
REMARK  status: ('A' for Active; 'I' for Inactive)
REMARK    1  A    between atoms: C2_2  and  C3_3
REMARK    2  A    between atoms: C3_3  and  C4_4
REMARK    3  A    between atoms: C4_4  and  C5_5
REMARK    4  A    between atoms: C6_8  and  O1_9
REMARK    5  A    between atoms: C7_11  and  C8_12
REMARK    6  A    between atoms: C8_12  and  C9_13
REMARK    7  A    between atoms: C10_18  and  O4_19
REMARK    8  A    between atoms: C11_21  and  C12_22
REMARK    9  A    between atoms: C12_22  and  C13_23
REMARK   10  A    between atoms: C17_28  and  O5_29
REMARK   11  A    between atoms: C18_31  and  C19_32
REMARK   12  A    between atoms: C19_32  and  C21_34
REMARK   13  A    between atoms: C23_38  and  O6_39
REMARK   14  A    between atoms: C24_41  and  C25_42
REMARK   15  A    between atoms: C28_47  and  O7_48
REMARK   16  A    between atoms: C29_50  and  C30_51
REMARK   17  A    between atoms: C30_51  and  C31_52
REMARK   18  A    between atoms: C34_57  and  O8_58
ROOT
HETATM    1  C5  UNL     1      16.157   7.873  17.726  1.00  0.00     0.158 C
HETATM    2  N1  UNL     1      15.772   6.869  16.805  1.00  0.00    -0.361 N
ATOM      3  H1  UNL     1      14.908   6.398  17.073  1.00  0.00     0.162 HD
HETATM    4  C6  UNL     1      16.299   6.385  15.627  1.00  0.00     0.136 C
HETATM    5  C7  UNL     1      16.839   6.849  14.395  1.00  0.00     0.167 C
HETATM    6  N2  UNL     1      16.134   6.141  13.292  1.00  0.00    -0.360 N
ATOM      7  H2  UNL     1      15.133   6.312  13.198  1.00  0.00     0.162 HD
HETATM    8  C10 UNL     1      16.720   5.257  12.369  1.00  0.00     0.135 C
HETATM    9  C11 UNL     1      17.306   3.919  12.612  1.00  0.00     0.160 C
HETATM   10  N3  UNL     1      18.657   3.949  13.151  1.00  0.00    -0.352 N
HETATM   11  C16 UNL     1      19.506   4.805  12.260  1.00  0.00     0.152 C
HETATM   12  C17 UNL     1      19.201   3.354  14.284  1.00  0.00     0.166 C
HETATM   13  C18 UNL     1      19.445   2.063  14.853  1.00  0.00     0.087 C
HETATM   14  N4  UNL     1      19.478   1.961  16.303  1.00  0.00    -0.335 N
ATOM     15  H4  UNL     1      19.987   1.121  16.579  1.00  0.00     0.168 HD
HETATM   16  C23 UNL     1      19.051   2.621  17.404  1.00  0.00     0.139 C
HETATM   17  C24 UNL     1      17.767   2.739  18.156  1.00  0.00     0.161 C
HETATM   18  N5  UNL     1      17.908   3.517  19.385  1.00  0.00    -0.357 N
ATOM     19  H5  UNL     1      18.583   3.092  20.020  1.00  0.00     0.162 HD
HETATM   20  C28 UNL     1      17.379   4.660  19.910  1.00  0.00     0.159 C
HETATM   21  C29 UNL     1      16.110   5.195  20.348  1.00  0.00     0.062 C
HETATM   22  N6  UNL     1      15.737   6.530  19.954  1.00  0.00    -0.339 N
ATOM     23  H6  UNL     1      14.861   6.806  20.398  1.00  0.00     0.167 HD
HETATM   24  C34 UNL     1      16.214   7.534  19.158  1.00  0.00     0.139 C
ENDROOT
BRANCH   1  25
HETATM   25  C4  UNL     1      15.089   8.978  17.533  1.00  0.00     0.033 C
BRANCH  25  26
HETATM   26  C3  UNL     1      15.647  10.337  17.360  1.00  0.00     0.002 C
BRANCH  26  27
HETATM   27  C2  UNL     1      15.045  10.872  16.041  1.00  0.00    -0.004 C
HETATM   28  C1  UNL     1      13.969   9.903  15.557  1.00  0.00     0.005 C
ENDBRANCH  26  27
ENDBRANCH  25  26
ENDBRANCH   1  25
BRANCH  24  29
HETATM   29  O8  UNL     1      16.905   8.464  19.783  1.00  0.00    -0.348 OA
ATOM     30  H8  UNL     1      17.829   8.254  19.712  1.00  0.00     0.219 HD
ENDBRANCH  24  29
BRANCH   4  31
HETATM   31  O1  UNL     1      16.305   5.050  15.639  1.00  0.00    -0.348 OA
ATOM     32  H1  UNL     1      15.800   4.726  16.376  1.00  0.00     0.219 HD
ENDBRANCH   4  31
BRANCH   5  33
HETATM   33  C8  UNL     1      17.041   8.232  13.975  1.00  0.00     0.146 C
BRANCH  33  34
HETATM   34  C9  UNL     1      17.891   9.114  14.790  1.00  0.00     0.174 C
HETATM   35  O2  UNL     1      18.317   8.855  15.945  1.00  0.00    -0.648 OA
HETATM   36  O3  UNL     1      18.291  10.362  14.291  1.00  0.00    -0.648 OA
ENDBRANCH  33  34
ENDBRANCH   5  33
BRANCH  21  37
HETATM   37  C30 UNL     1      14.941   4.391  20.733  1.00  0.00     0.065 C
BRANCH  37  38
HETATM   38  C31 UNL     1      14.328   4.611  22.070  1.00  0.00    -0.017 C
HETATM   39  C32 UNL     1      13.132   5.594  21.851  1.00  0.00     0.010 C
HETATM   40  C33 UNL     1      15.083   5.181  23.181  1.00  0.00     0.010 C
ENDBRANCH  37  38
ENDBRANCH  21  37
BRANCH  20  41
HETATM   41  O7  UNL     1      18.295   5.600  20.084  1.00  0.00    -0.345 OA
ATOM     42  H7  UNL     1      18.402   6.144  19.313  1.00  0.00     0.219 HD
ENDBRANCH  20  41
BRANCH   8  43
HETATM   43  O4  UNL     1      16.723   5.735  11.148  1.00  0.00    -0.348 OA
ATOM     44  H4  UNL     1      17.446   5.401  10.629  1.00  0.00     0.219 HD
ENDBRANCH   8  43
BRANCH   9  45
HETATM   45  C12 UNL     1      17.301   3.105  11.345  1.00  0.00     0.037 C
BRANCH  45  46
HETATM   46  C13 UNL     1      17.782   1.731  11.353  1.00  0.00    -0.020 C
HETATM   47  C14 UNL     1      16.951   0.545  11.182  1.00  0.00     0.009 C
HETATM   48  C15 UNL     1      18.871   1.649  10.232  1.00  0.00     0.009 C
ENDBRANCH  45  46
ENDBRANCH   9  45
BRANCH  17  49
HETATM   49  C25 UNL     1      17.341   1.355  18.715  1.00  0.00     0.008 C
HETATM   50  C26 UNL     1      16.418   0.603  17.852  1.00  0.00     0.012 C
HETATM   51  C27 UNL     1      18.600   0.508  18.889  1.00  0.00     0.012 C
ENDBRANCH  17  49
BRANCH  16  52
HETATM   52  O6  UNL     1      19.965   3.359  18.000  1.00  0.00    -0.348 OA
ATOM     53  H6  UNL     1      20.644   2.870  18.450  1.00  0.00     0.219 HD
ENDBRANCH  16  52
BRANCH  12  54
HETATM   54  O5  UNL     1      19.653   4.266  15.129  1.00  0.00    -0.344 OA
ATOM     55  H5  UNL     1      20.496   4.603  14.848  1.00  0.00     0.219 HD
ENDBRANCH  12  54
BRANCH  13  56
HETATM   56  C19 UNL     1      19.022   0.782  14.255  1.00  0.00    -0.053 C
HETATM   57  C20 UNL     1      19.991  -0.134  13.641  1.00  0.00     0.046 C
BRANCH  56  58
HETATM   58  C21 UNL     1      17.973   0.039  15.097  1.00  0.00     0.031 C
HETATM   59  C22 UNL     1      18.450  -1.361  15.431  1.00  0.00     0.010 C
ENDBRANCH  56  58
ENDBRANCH  13  56
TORSDOF 18
ENDMDL