MODEL 1
REMARK VINA RESULT: -6.538422727      0.000      0.000
REMARK  15 active torsions:
REMARK  status: ('A' for Active; 'I' for Inactive)
REMARK    1  A    between atoms: C2_2  and  C4_4
REMARK    2  A    between atoms: C4_4  and  C5_5
REMARK    3  A    between atoms: C6_8  and  O1_9
REMARK    4  A    between atoms: C7_11  and  C8_12
REMARK    5  A    between atoms: C12_19  and  C13_20
REMARK    6  A    between atoms: C13_20  and  C14_21
REMARK    7  A    between atoms: C14_21  and  C15_22
REMARK    8  A    between atoms: C15_22  and  C16_23
REMARK    9  A    between atoms: C16_23  and  N3_24
REMARK   10  A    between atoms: N3_24  and  C17_26
REMARK   11  A    between atoms: C20_31  and  C21_32
REMARK   12  A    between atoms: C25_39  and  C26_40
REMARK   13  A    between atoms: C26_40  and  C27_41
REMARK   14  A    between atoms: C30_46  and  O6_47
REMARK   15  A    between atoms: C31_49  and  C32_50
ROOT
HETATM    1  C5  UNL     1      17.708  -3.688   4.136  1.00  0.00     0.175 C
HETATM    2  N1  UNL     1      18.414  -4.504   5.057  1.00  0.00    -0.359 N
ATOM      3  H1  UNL     1      19.293  -4.090   5.368  1.00  0.00     0.162 HD
HETATM    4  C6  UNL     1      18.163  -5.744   5.624  1.00  0.00     0.135 C
HETATM    5  C7  UNL     1      17.018  -6.377   6.247  1.00  0.00     0.162 C
HETATM    6  N2  UNL     1      15.724  -5.825   6.071  1.00  0.00    -0.348 N
ATOM      7  H2  UNL     1      15.623  -4.828   6.261  1.00  0.00     0.163 HD
HETATM    8  C11 UNL     1      14.570  -6.508   5.663  1.00  0.00     0.222 C
HETATM    9  O2  UNL     1      13.685  -5.834   5.031  1.00  0.00    -0.273 OA
HETATM   10  C12 UNL     1      14.229  -7.926   5.871  1.00  0.00     0.085 C
HETATM   11  C18 UNL     1      14.458  -8.608   4.514  1.00  0.00     0.099 C
HETATM   12  C19 UNL     1      14.519 -10.064   4.604  1.00  0.00     0.176 C
HETATM   13  O4  UNL     1      14.262 -10.537   5.730  1.00  0.00    -0.291 OA
HETATM   14  C20 UNL     1      14.855 -10.951   3.469  1.00  0.00     0.082 C
HETATM   15  N4  UNL     1      16.112 -10.696   2.840  1.00  0.00    -0.322 N
ATOM     16  H4  UNL     1      16.899 -10.854   3.470  1.00  0.00     0.169 HD
HETATM   17  C24 UNL     1      16.518 -10.289   1.589  1.00  0.00     0.245 C
HETATM   18  O5  UNL     1      17.059 -11.142   0.817  1.00  0.00    -0.271 OA
HETATM   19  C25 UNL     1      16.437  -8.927   0.925  1.00  0.00     0.176 C
HETATM   20  N5  UNL     1      17.759  -8.350   0.917  1.00  0.00    -0.359 N
ATOM     21  H5  UNL     1      18.370  -8.722   0.190  1.00  0.00     0.162 HD
HETATM   22  C30 UNL     1      18.354  -7.383   1.715  1.00  0.00     0.135 C
HETATM   23  C31 UNL     1      18.114  -5.950   1.890  1.00  0.00     0.162 C
HETATM   24  N6  UNL     1      16.905  -5.587   2.590  1.00  0.00    -0.347 N
ATOM     25  H6  UNL     1      16.136  -6.257   2.590  1.00  0.00     0.163 HD
HETATM   26  C35 UNL     1      16.718  -4.370   3.271  1.00  0.00     0.241 C
HETATM   27  O7  UNL     1      15.590  -3.795   3.136  1.00  0.00    -0.271 OA
ENDROOT
BRANCH  10  28
HETATM   28  C13 UNL     1      12.767  -8.075   6.282  1.00  0.00     0.014 C
BRANCH  28  29
HETATM   29  C14 UNL     1      12.638  -8.469   7.734  1.00  0.00     0.002 C
BRANCH  29  30
HETATM   30  C15 UNL     1      11.585  -7.527   8.336  1.00  0.00     0.020 C
BRANCH  30  31
HETATM   31  C16 UNL     1      12.080  -6.114   8.371  1.00  0.00     0.122 C
BRANCH  31  32
HETATM   32  N3  UNL     1      11.146  -5.311   9.132  1.00  0.00    -0.368 N
ATOM     33  H3  UNL     1      11.240  -4.296   9.081  1.00  0.00     0.161 HD
BRANCH  32  34
HETATM   34  C17 UNL     1      10.111  -5.837   9.942  1.00  0.00     0.348 C
HETATM   35  O3  UNL     1       9.879  -5.508  11.122  1.00  0.00    -0.284 OA
ENDBRANCH  32  34
ENDBRANCH  31  32
ENDBRANCH  30  31
ENDBRANCH  29  30
ENDBRANCH  28  29
ENDBRANCH  10  28
BRANCH   5  36
HETATM   36  C8  UNL     1      17.194  -6.625   7.738  1.00  0.00     0.008 C
HETATM   37  C9  UNL     1      16.461  -5.590   8.564  1.00  0.00     0.012 C
HETATM   38  C10 UNL     1      16.888  -8.025   8.160  1.00  0.00     0.012 C
ENDBRANCH   5  36
BRANCH  14  39
HETATM   39  C21 UNL     1      13.664 -11.218   2.645  1.00  0.00    -0.057 C
HETATM   40  C22 UNL     1      12.796  -9.985   2.419  1.00  0.00     0.045 C
HETATM   41  C23 UNL     1      12.872 -12.447   2.916  1.00  0.00     0.045 C
ENDBRANCH  14  39
BRANCH   4  42
HETATM   42  O1  UNL     1      19.217  -6.524   5.583  1.00  0.00    -0.348 OA
ATOM     43  H1  UNL     1      19.656  -6.572   6.425  1.00  0.00     0.219 HD
ENDBRANCH   4  42
BRANCH   1  44
HETATM   44  C4  UNL     1      17.129  -2.476   4.744  1.00  0.00     0.038 C
BRANCH  44  45
HETATM   45  C2  UNL     1      17.779  -1.159   4.493  1.00  0.00    -0.020 C
HETATM   46  C1  UNL     1      17.329  -0.273   5.697  1.00  0.00     0.009 C
HETATM   47  C3  UNL     1      19.285  -1.152   4.605  1.00  0.00     0.009 C
ENDBRANCH  44  45
ENDBRANCH   1  44
BRANCH  19  48
HETATM   48  C26 UNL     1      15.687  -8.977  -0.356  1.00  0.00     0.038 C
BRANCH  48  49
HETATM   49  C27 UNL     1      14.440  -8.246  -0.573  1.00  0.00    -0.020 C
HETATM   50  C28 UNL     1      14.341  -7.273   0.664  1.00  0.00     0.009 C
HETATM   51  C29 UNL     1      14.470  -7.351  -1.765  1.00  0.00     0.009 C
ENDBRANCH  48  49
ENDBRANCH  19  48
BRANCH  22  52
HETATM   52  O6  UNL     1      19.327  -7.842   2.461  1.00  0.00    -0.348 OA
ATOM     53  H6  UNL     1      19.323  -7.500   3.347  1.00  0.00     0.219 HD
ENDBRANCH  22  52
BRANCH  23  54
HETATM   54  C32 UNL     1      18.269  -5.097   0.665  1.00  0.00     0.008 C
HETATM   55  C33 UNL     1      17.165  -5.141  -0.317  1.00  0.00     0.012 C
HETATM   56  C34 UNL     1      19.580  -5.348  -0.047  1.00  0.00     0.012 C
ENDBRANCH  23  54
TORSDOF 15
ENDMDL