MODEL 3
REMARK VINA RESULT: -5.554612965      0.813      1.892
REMARK  7 active torsions:
REMARK  status: ('A' for Active; 'I' for Inactive)
REMARK    1  A    between atoms: C2_2  and  C3_3
REMARK    2  A    between atoms: C3_3  and  C4_4
REMARK    3  A    between atoms: C4_4  and  C5_5
REMARK    4  A    between atoms: C5_5  and  N1_6
REMARK    5  A    between atoms: C6_11  and  C7_12
REMARK    6  A    between atoms: C7_12  and  N4_13
REMARK    7  A    between atoms: C8_17  and  N5_18
ROOT
HETATM    1  N1  UNL     1      45.664  41.346  58.842  1.00  0.00    -0.235 N
HETATM    2  N2  UNL     1      46.802  40.825  59.139  1.00  0.00    -0.234 N
ATOM      3  H2  UNL     1      47.114  39.924  58.777  1.00  0.00     0.209 HD
HETATM    4  N3  UNL     1      47.538  41.575  59.966  1.00  0.00    -0.285 N
ATOM      5  H3  UNL     1      48.466  41.337  60.314  1.00  0.00     0.188 HD
HETATM    6  C6  UNL     1      46.871  42.662  60.255  1.00  0.00     0.098 A
HETATM    7  C8  UNL     1      45.675  42.527  59.538  1.00  0.00     0.147 A
ENDROOT
BRANCH   1   8
HETATM    8  C5  UNL     1      44.507  40.875  58.174  1.00  0.00     0.120 C
BRANCH   8   9
HETATM    9  C4  UNL     1      44.422  39.448  57.970  1.00  0.00     0.019 C
BRANCH   9  10
HETATM   10  C3  UNL     1      44.779  38.698  57.000  1.00  0.00     0.001 C
BRANCH  10  11
HETATM   11  C2  UNL     1      44.890  37.273  57.115  1.00  0.00    -0.010 C
HETATM   12  C1  UNL     1      44.106  36.559  57.894  1.00  0.00     0.011 C
ENDBRANCH  10  11
ENDBRANCH   9  10
ENDBRANCH   8   9
ENDBRANCH   1   8
BRANCH   7  13
HETATM   13  N5  UNL     1      44.744  43.399  59.606  1.00  0.00    -0.382 N
ATOM     14  H52 UNL     1      44.382  43.866  58.774  1.00  0.00     0.157 HD
ATOM     15  H51 UNL     1      44.290  43.759  60.445  1.00  0.00     0.157 HD
ENDBRANCH   7  13
BRANCH   6  16
HETATM   16  C7  UNL     1      47.288  43.907  60.897  1.00  0.00     0.292 C
BRANCH  16  17
HETATM   17  N4  UNL     1      48.453  43.905  61.759  1.00  0.00    -0.074 N
ATOM     18  H43 UNL     1      48.499  43.009  62.243  1.00  0.00     0.274 HD
ATOM     19  H42 UNL     1      49.289  43.863  61.176  1.00  0.00     0.274 HD
ATOM     20  H41 UNL     1      48.569  44.653  62.443  1.00  0.00     0.274 HD
ENDBRANCH  16  17
ENDBRANCH   6  16
TORSDOF 7
ENDMDL