MODEL 5
REMARK VINA RESULT: -5.260872797      1.621      2.341
REMARK  3 active torsions:
REMARK  status: ('A' for Active; 'I' for Inactive)
REMARK    1  A    between atoms: O1_2  and  C2_3
REMARK    2  A    between atoms: C4_9  and  C5_10
REMARK    3  A    between atoms: N3_11  and  N4_13
ROOT
HETATM    1  C2  UNL     1      45.655  41.270  58.689  1.00  0.00     0.114 A
HETATM    2  C3  UNL     1      45.076  42.290  59.413  1.00  0.00     0.146 A
HETATM    3  N1  UNL     1      43.734  42.161  59.331  1.00  0.00    -0.309 N
ATOM      4  H1  UNL     1      43.049  42.777  59.770  1.00  0.00     0.186 HD
HETATM    5  N2  UNL     1      43.458  41.117  58.595  1.00  0.00    -0.297 N
ATOM      6  H2  UNL     1      42.519  40.789  58.370  1.00  0.00     0.187 HD
HETATM    7  C4  UNL     1      44.611  40.535  58.177  1.00  0.00     0.099 A
ENDROOT
BRANCH   7   8
HETATM    8  C5  UNL     1      44.672  39.347  57.338  1.00  0.00     0.141 C
HETATM    9  N3  UNL     1      44.375  38.191  57.820  1.00  0.00    -0.307 N
ATOM     10  H3  UNL     1      44.096  38.127  58.798  1.00  0.00     0.186 HD
BRANCH   9  11
HETATM   11  N4  UNL     1      44.418  37.022  57.059  1.00  0.00    -0.276 N
HETATM   12  C6  UNL     1      43.918  35.957  57.567  1.00  0.00     0.215 C
HETATM   13  N5  UNL     1      43.335  35.948  58.856  1.00  0.00    -0.065 NA
HETATM   14  N6  UNL     1      43.957  34.765  56.802  1.00  0.00    -0.065 NA
ATOM     15  H4  UNL     1      44.835  37.015  56.129  1.00  0.00     0.189 HD
ENDBRANCH   9  11
ENDBRANCH   7   8
BRANCH   1  16
HETATM   16  O1  UNL     1      46.980  41.005  58.495  1.00  0.00    -0.352 OA
HETATM   17  C1  UNL     1      47.984  41.957  58.301  1.00  0.00     0.210 C
ENDBRANCH   1  16
TORSDOF 3
ENDMDL