MODEL 3
REMARK VINA RESULT: -5.743571634      1.301      1.650
REMARK  6 active torsions:
REMARK  status: ('A' for Active; 'I' for Inactive)
REMARK    1  A    between atoms: C2_2  and  N1_3
REMARK    2  A    between atoms: C2_2  and  C3_10
REMARK    3  A    between atoms: N1_3  and  N2_5
REMARK    4  A    between atoms: C3_10  and  N4_12
REMARK    5  A    between atoms: N4_12  and  C5_14
REMARK    6  A    between atoms: C7_19  and  O1_20
ROOT
HETATM    1  C3  UNL     1      44.999  42.314  58.649  1.00  0.00     0.098 C
HETATM    2  C4  UNL     1      43.765  42.751  59.487  1.00  0.00     0.034 C
ENDROOT
BRANCH   1   3
HETATM    3  C2  UNL     1      44.638  41.002  58.059  1.00  0.00     0.118 C
HETATM    4  C1  UNL     1      43.228  40.796  57.642  1.00  0.00     0.036 C
BRANCH   3   5
HETATM    5  N1  UNL     1      45.026  39.903  58.964  1.00  0.00    -0.316 N
ATOM      6  H1  UNL     1      45.172  40.105  59.953  1.00  0.00     0.182 HD
BRANCH   5   7
HETATM    7  N2  UNL     1      45.177  38.750  58.561  1.00  0.00    -0.253 N
HETATM    8  N3  UNL     1      44.744  37.621  58.241  1.00  0.00    -0.331 N
ATOM      9  H32 UNL     1      43.744  37.733  58.407  1.00  0.00     0.178 HD
ATOM     10  H31 UNL     1      44.870  36.666  57.907  1.00  0.00     0.178 HD
ATOM     11  H2  UNL     1      46.183  38.678  58.407  1.00  0.00     0.207 HD
ENDBRANCH   5   7
ENDBRANCH   3   5
ENDBRANCH   1   3
BRANCH   1  12
HETATM   12  N4  UNL     1      46.086  42.397  59.526  1.00  0.00    -0.388 N
ATOM     13  H4  UNL     1      46.461  41.541  59.936  1.00  0.00     0.155 HD
BRANCH  12  14
HETATM   14  C5  UNL     1      46.674  43.629  59.858  1.00  0.00     0.310 C
HETATM   15  N5  UNL     1      48.136  43.538  59.605  1.00  0.00    -0.050 N
HETATM   16  C6  UNL     1      48.191  42.753  60.842  1.00  0.00     0.270 C
ATOM     17  H52 UNL     1      48.509  43.182  58.725  1.00  0.00     0.279 HD
ATOM     18  H51 UNL     1      48.711  44.369  59.468  1.00  0.00     0.279 HD
HETATM   19  C7  UNL     1      47.078  43.655  61.341  1.00  0.00     0.193 C
BRANCH  19  20
HETATM   20  O1  UNL     1      47.586  44.889  61.738  1.00  0.00    -0.390 OA
ATOM     21  H1  UNL     1      47.164  45.617  61.296  1.00  0.00     0.210 HD
ENDBRANCH  19  20
ENDBRANCH  12  14
ENDBRANCH   1  12
TORSDOF 6
ENDMDL