MODEL 5
REMARK VINA RESULT: -5.610375264      1.727      1.929
REMARK  4 active torsions:
REMARK  status: ('A' for Active; 'I' for Inactive)
REMARK    1  A    between atoms: C2_2  and  C3_3
REMARK    2  A    between atoms: C3_3  and  N1_4
REMARK    3  A    between atoms: N1_4  and  C4_6
REMARK    4  A    between atoms: C6_10  and  C7_11
ROOT
HETATM    1  C4  UNL     1      45.047  40.707  58.279  1.00  0.00     0.119 A
HETATM    2  C5  UNL     1      44.583  41.457  59.354  1.00  0.00     0.137 A
HETATM    3  N2  UNL     1      45.401  42.318  59.983  1.00  0.00    -0.357 N
ATOM      4  H2  UNL     1      45.038  42.856  60.769  1.00  0.00     0.165 HD
HETATM    5  C6  UNL     1      46.693  42.497  59.610  1.00  0.00     0.116 A
HETATM    6  C8  UNL     1      47.129  41.743  58.542  1.00  0.00     0.275 A
HETATM    7  O1  UNL     1      48.334  41.907  58.190  1.00  0.00    -0.266 OA
HETATM    8  N4  UNL     1      46.325  40.876  57.900  1.00  0.00    -0.307 N
ATOM      9  H4  UNL     1      46.691  40.339  57.114  1.00  0.00     0.170 HD
ENDROOT
BRANCH   1  10
HETATM   10  N1  UNL     1      44.178  39.791  57.609  1.00  0.00    -0.372 N
ATOM     11  H1  UNL     1      43.166  39.925  57.603  1.00  0.00     0.161 HD
BRANCH  10  12
HETATM   12  C3  UNL     1      44.793  38.661  56.937  1.00  0.00     0.147 C
BRANCH  12  13
HETATM   13  C2  UNL     1      44.874  37.478  57.814  1.00  0.00    -0.018 C
HETATM   14  C1  UNL     1      44.109  36.421  57.573  1.00  0.00     0.008 C
ENDBRANCH  12  13
ENDBRANCH  10  12
ENDBRANCH   1  10
BRANCH   5  15
HETATM   15  C7  UNL     1      47.568  43.434  60.300  1.00  0.00     0.116 C
HETATM   16  N3  UNL     1      48.656  43.115  60.866  1.00  0.00    -0.406 N
ATOM     17  H32 UNL     1      48.922  42.131  60.826  1.00  0.00     0.155 HD
ATOM     18  H31 UNL     1      49.269  43.772  61.350  1.00  0.00     0.155 HD
ENDBRANCH   5  15
TORSDOF 4
ENDMDL