MODEL 5
REMARK VINA RESULT: -5.548846420      1.141      1.144
REMARK  5 active torsions:
REMARK  status: ('A' for Active; 'I' for Inactive)
REMARK    1  A    between atoms: C2_2  and  C3_3
REMARK    2  A    between atoms: C3_3  and  N1_4
REMARK    3  A    between atoms: C6_8  and  C7_9
REMARK    4  A    between atoms: C7_9  and  O1_10
REMARK    5  A    between atoms: O1_10  and  N2_11
ROOT
HETATM    1  N1  UNL     1      45.453  39.098  57.723  1.00  0.00    -0.373 N
ATOM      2  H1  UNL     1      46.427  38.821  57.844  1.00  0.00     0.161 HD
HETATM    3  C4  UNL     1      45.056  40.195  58.228  1.00  0.00     0.103 A
HETATM    4  C5  UNL     1      45.957  40.982  58.928  1.00  0.00     0.075 A
HETATM    5  C6  UNL     1      45.580  42.183  59.498  1.00  0.00     0.040 A
HETATM    6  N3  UNL     1      44.301  42.562  59.348  1.00  0.00    -0.354 N
ATOM      7  H3  UNL     1      44.002  43.445  59.761  1.00  0.00     0.166 HD
HETATM    8  C8  UNL     1      43.395  41.826  58.675  1.00  0.00     0.182 A
HETATM    9  N4  UNL     1      43.796  40.661  58.132  1.00  0.00    -0.339 N
ATOM     10  H4  UNL     1      43.112  40.103  57.623  1.00  0.00     0.168 HD
ENDROOT
BRANCH   1  11
HETATM   11  C3  UNL     1      44.562  38.230  56.980  1.00  0.00     0.147 C
BRANCH  11  12
HETATM   12  C2  UNL     1      44.381  36.998  57.814  1.00  0.00    -0.018 C
HETATM   13  C1  UNL     1      43.962  35.899  57.240  1.00  0.00     0.008 C
ENDBRANCH  11  12
ENDBRANCH   1  11
BRANCH   5  14
HETATM   14  C7  UNL     1      46.591  42.986  60.238  1.00  0.00     0.257 C
BRANCH  14  15
HETATM   15  O1  UNL     1      47.125  43.981  59.423  1.00  0.00    -0.281 OA
BRANCH  15  16
HETATM   16  N2  UNL     1      48.445  43.661  59.237  1.00  0.00    -0.311 N
ATOM     17  H22 UNL     1      49.229  44.002  59.793  1.00  0.00     0.184 HD
ATOM     18  H21 UNL     1      48.477  43.024  58.441  1.00  0.00     0.184 HD
ENDBRANCH  15  16
ENDBRANCH  14  15
ENDBRANCH   5  14
TORSDOF 5
ENDMDL