MODEL 4
REMARK VINA RESULT: -5.077819562      2.252      5.265
REMARK  5 active torsions:
REMARK  status: ('A' for Active; 'I' for Inactive)
REMARK    1  A    between atoms: C5_8  and  C6_9
REMARK    2  A    between atoms: C6_9  and  N2_11
REMARK    3  A    between atoms: N2_11  and  N3_13
REMARK    4  A    between atoms: C8_15  and  C9_16
REMARK    5  A    between atoms: C9_16  and  N4_17
ROOT
HETATM    1  C6  UNL     1      45.923  41.981  58.269  1.00  0.00     0.105 C
HETATM    2  C7  UNL     1      47.349  41.499  58.340  1.00  0.00     0.034 C
ENDROOT
BRANCH   1   3
HETATM    3  C5  UNL     1      44.932  41.060  58.890  1.00  0.00     0.065 C
HETATM    4  C2  UNL     1      44.441  39.982  58.025  1.00  0.00    -0.056 C
HETATM    5  C1  UNL     1      45.008  38.804  57.860  1.00  0.00     0.016 C
HETATM    6  C3  UNL     1      43.206  40.455  57.383  1.00  0.00     0.266 C
HETATM    7  N1  UNL     1      42.708  41.557  58.182  1.00  0.00    -0.071 N
HETATM    8  C4  UNL     1      43.671  41.825  59.216  1.00  0.00     0.243 C
ATOM      9  H12 UNL     1      42.488  42.382  57.624  1.00  0.00     0.277 HD
ATOM     10  H11 UNL     1      41.772  41.387  58.549  1.00  0.00     0.277 HD
ENDBRANCH   1   3
BRANCH   1  11
HETATM   11  N2  UNL     1      45.880  43.331  58.780  1.00  0.00    -0.332 N
ATOM     12  H2  UNL     1      45.182  43.997  58.449  1.00  0.00     0.180 HD
BRANCH  11  13
HETATM   13  N3  UNL     1      46.823  43.694  59.741  1.00  0.00    -0.318 N
HETATM   14  C8  UNL     1      46.589  43.716  60.996  1.00  0.00     0.106 C
ATOM     15  H3  UNL     1      47.756  43.957  59.423  1.00  0.00     0.185 HD
BRANCH  14  16
HETATM   16  C9  UNL     1      47.722  44.132  61.887  1.00  0.00     0.275 C
BRANCH  16  17
HETATM   17  N4  UNL     1      48.952  43.513  61.417  1.00  0.00    -0.075 N
ATOM     18  H43 UNL     1      49.711  43.597  62.093  1.00  0.00     0.274 HD
ATOM     19  H42 UNL     1      48.890  42.495  61.397  1.00  0.00     0.274 HD
ATOM     20  H41 UNL     1      49.198  43.904  60.508  1.00  0.00     0.274 HD
ENDBRANCH  16  17
ENDBRANCH  14  16
ENDBRANCH  11  13
ENDBRANCH   1  11
TORSDOF 5
ENDMDL