MODEL 3
REMARK VINA RESULT: -4.507029218      1.122      1.186
REMARK  7 active torsions:
REMARK  status: ('A' for Active; 'I' for Inactive)
REMARK    1  A    between atoms: N1_1  and  C1_5
REMARK    2  A    between atoms: C1_5  and  C2_6
REMARK    3  A    between atoms: C2_6  and  N2_7
REMARK    4  A    between atoms: C5_10  and  N3_11
REMARK    5  A    between atoms: C5_10  and  C6_15
REMARK    6  A    between atoms: C6_15  and  C7_16
REMARK    7  A    between atoms: C7_16  and  N4_17
ROOT
HETATM    1  N2  UNL     1      46.106  42.653  58.975  1.00  0.00     0.090 N
HETATM    2  C3  UNL     1      46.923  41.548  58.617  1.00  0.00     0.275 C
HETATM    3  C4  UNL     1      46.199  40.605  57.722  1.00  0.00     0.069 C
HETATM    4  C5  UNL     1      44.815  40.201  58.202  1.00  0.00     0.128 C
HETATM    5  C8  UNL     1      44.559  40.803  59.537  1.00  0.00     0.069 C
HETATM    6  C9  UNL     1      44.844  42.300  59.531  1.00  0.00     0.275 C
ENDROOT
BRANCH   4   7
HETATM    7  N3  UNL     1      43.860  40.716  57.226  1.00  0.00    -0.070 N
ATOM      8  H33 UNL     1      43.653  41.707  57.351  1.00  0.00     0.275 HD
ATOM      9  H32 UNL     1      44.245  40.783  56.283  1.00  0.00     0.275 HD
ATOM     10  H31 UNL     1      43.032  40.123  57.279  1.00  0.00     0.275 HD
ENDBRANCH   4   7
BRANCH   4  11
HETATM   11  C6  UNL     1      44.712  38.701  58.270  1.00  0.00     0.066 C
BRANCH  11  12
HETATM   12  C7  UNL     1      44.776  37.936  57.015  1.00  0.00     0.232 C
BRANCH  12  13
HETATM   13  N4  UNL     1      44.327  36.593  57.018  1.00  0.00    -0.079 N
ATOM     14  H43 UNL     1      45.102  35.983  56.758  1.00  0.00     0.274 HD
ATOM     15  H42 UNL     1      44.161  36.301  57.981  1.00  0.00     0.274 HD
ATOM     16  H41 UNL     1      43.512  36.351  56.454  1.00  0.00     0.274 HD
ENDBRANCH  12  13
ENDBRANCH  11  12
ENDBRANCH   4  11
BRANCH   1  17
HETATM   17  C2  UNL     1      46.704  43.706  59.699  1.00  0.00     0.299 C
BRANCH  17  18
HETATM   18  C1  UNL     1      47.055  43.370  61.125  1.00  0.00     0.259 C
BRANCH  18  19
HETATM   19  N1  UNL     1      48.491  43.515  61.264  1.00  0.00    -0.078 N
ATOM     20  H13 UNL     1      48.876  44.255  60.676  1.00  0.00     0.274 HD
ATOM     21  H12 UNL     1      48.766  43.905  62.165  1.00  0.00     0.274 HD
ATOM     22  H11 UNL     1      48.909  42.603  61.080  1.00  0.00     0.274 HD
ENDBRANCH  18  19
ENDBRANCH  17  18
ENDBRANCH   1  17
TORSDOF 7
ENDMDL