MODEL 3
REMARK VINA RESULT: -5.456958742      1.369      1.796
REMARK  6 active torsions:
REMARK  status: ('A' for Active; 'I' for Inactive)
REMARK    1  A    between atoms: N1_1  and  C1_5
REMARK    2  A    between atoms: C1_5  and  C2_6
REMARK    3  A    between atoms: C1_5  and  C5_13
REMARK    4  A    between atoms: C5_13  and  O1_14
REMARK    5  A    between atoms: C5_13  and  C6_16
REMARK    6  A    between atoms: C6_16  and  N4_17
ROOT
HETATM    1  C1  UNL     1      45.744  43.042  59.188  1.00  0.00     0.249 C
ENDROOT
BRANCH   1   2
HETATM    2  N1  UNL     1      44.988  44.206  59.560  1.00  0.00    -0.068 N
ATOM      3  H13 UNL     1      45.033  44.918  58.831  1.00  0.00     0.275 HD
ATOM      4  H12 UNL     1      43.987  44.011  59.543  1.00  0.00     0.275 HD
ATOM      5  H11 UNL     1      45.268  44.592  60.462  1.00  0.00     0.275 HD
ENDBRANCH   1   2
BRANCH   1   6
HETATM    6  C2  UNL     1      46.915  42.810  60.060  1.00  0.00     0.008 A
HETATM    7  C3  UNL     1      47.085  43.331  61.349  1.00  0.00     0.117 A
HETATM    8  N2  UNL     1      48.250  42.900  61.803  1.00  0.00    -0.312 N
HETATM    9  N3  UNL     1      48.837  42.140  60.895  1.00  0.00    -0.312 N
ATOM     10  H2  UNL     1      48.638  43.122  62.720  1.00  0.00     0.186 HD
HETATM   11  C4  UNL     1      48.041  42.067  59.816  1.00  0.00     0.117 A
ATOM     12  H3  UNL     1      49.744  41.685  60.997  1.00  0.00     0.186 HD
ENDBRANCH   1   6
BRANCH   1  13
HETATM   13  C5  UNL     1      44.933  41.802  59.050  1.00  0.00     0.181 C
BRANCH  13  14
HETATM   14  O1  UNL     1      44.501  41.322  60.300  1.00  0.00    -0.391 OA
ATOM     15  H1  UNL     1      45.185  40.836  60.745  1.00  0.00     0.210 HD
ENDBRANCH  13  14
BRANCH  13  16
HETATM   16  C6  UNL     1      45.645  40.695  58.320  1.00  0.00     0.306 C
BRANCH  16  17
HETATM   17  N4  UNL     1      44.656  39.765  57.849  1.00  0.00     0.094 N
HETATM   18  C7  UNL     1      44.890  38.350  57.916  1.00  0.00     0.302 A
HETATM   19  C8  UNL     1      45.038  38.980  56.625  1.00  0.00     0.302 A
ENDBRANCH  16  17
ENDBRANCH  13  16
ENDBRANCH   1  13
TORSDOF 6
ENDMDL