MODEL 2
REMARK VINA RESULT: -5.427199082      1.741      2.804
REMARK  5 active torsions:
REMARK  status: ('A' for Active; 'I' for Inactive)
REMARK    1  A    between atoms: C2_3  and  C3_4
REMARK    2  A    between atoms: C2_3  and  N3_9
REMARK    3  A    between atoms: C3_4  and  N2_5
REMARK    4  A    between atoms: N3_9  and  C4_12
REMARK    5  A    between atoms: C4_12  and  C5_13
ROOT
HETATM    1  N1  UNL     1      44.448  39.283  55.269  1.00  0.00    -0.195 NA
HETATM    2  C1  UNL     1      44.742  38.877  56.315  1.00  0.00     0.094 C
HETATM    3  C2  UNL     1      45.138  38.363  57.633  1.00  0.00     0.316 C
ENDROOT
BRANCH   3   4
HETATM    4  C3  UNL     1      44.398  37.101  57.983  1.00  0.00     0.277 C
BRANCH   4   5
HETATM    5  N2  UNL     1      44.119  36.276  56.826  1.00  0.00    -0.076 N
ATOM      6  H23 UNL     1      43.410  35.574  57.039  1.00  0.00     0.274 HD
ATOM      7  H22 UNL     1      43.618  36.805  56.112  1.00  0.00     0.274 HD
ATOM      8  H21 UNL     1      44.958  35.843  56.440  1.00  0.00     0.274 HD
ENDBRANCH   4   5
ENDBRANCH   3   4
BRANCH   3   9
HETATM    9  N3  UNL     1      44.922  39.425  58.580  1.00  0.00    -0.057 N
ATOM     10  H32 UNL     1      43.950  39.732  58.614  1.00  0.00     0.278 HD
ATOM     11  H31 UNL     1      45.001  39.112  59.548  1.00  0.00     0.278 HD
BRANCH   9  12
HETATM   12  C4  UNL     1      45.830  40.492  58.267  1.00  0.00     0.238 C
BRANCH  12  13
HETATM   13  C5  UNL     1      45.889  41.560  59.323  1.00  0.00     0.014 C
HETATM   14  C6  UNL     1      47.079  42.444  59.027  1.00  0.00     0.034 C
HETATM   15  C7  UNL     1      47.291  43.333  60.228  1.00  0.00     0.232 C
HETATM   16  N4  UNL     1      46.092  44.048  60.536  1.00  0.00    -0.075 N
HETATM   17  C8  UNL     1      45.033  43.855  59.596  1.00  0.00     0.232 C
ATOM     18  H42 UNL     1      45.776  43.823  61.479  1.00  0.00     0.277 HD
ATOM     19  H41 UNL     1      46.290  45.042  60.651  1.00  0.00     0.277 HD
HETATM   20  C9  UNL     1      44.667  42.406  59.399  1.00  0.00     0.034 C
ENDBRANCH  12  13
ENDBRANCH   9  12
ENDBRANCH   3   9
TORSDOF 5
ENDMDL