MODEL 5
REMARK VINA RESULT: -7.894962510      4.273      6.670
REMARK  10 active torsions:
REMARK  status: ('A' for Active; 'I' for Inactive)
REMARK    1  A    between atoms: N1_1  and  C1_4
REMARK    2  A    between atoms: C5_14  and  N4_15
REMARK    3  A    between atoms: C6_21  and  N6_22
REMARK    4  A    between atoms: N6_22  and  C7_24
REMARK    5  A    between atoms: C10_27  and  C11_28
REMARK       I    between atoms: C11_28  and  N7_30
REMARK    6  A    between atoms: N7_30  and  S1_32
REMARK    7  A    between atoms: S1_32  and  N8_35
REMARK       I    between atoms: N8_35  and  C12_37
REMARK    8  A    between atoms: C12_37  and  C13_39
REMARK    9  A    between atoms: C14_40  and  C15_41
REMARK   10  A    between atoms: C18_44  and  O7_45
ROOT
HETATM    1  C7  UNL     1      30.511 -28.135 -37.708  1.00  0.00     0.033 A
HETATM    2  C8  UNL     1      30.055 -29.445 -37.686  1.00  0.00     0.030 A
HETATM    3  C9  UNL     1      30.899 -30.533 -37.686  1.00  0.00     0.019 A
HETATM    4  C10 UNL     1      32.263 -30.346 -37.708  1.00  0.00     0.033 A
HETATM    5  C21 UNL     1      32.754 -29.065 -37.728  1.00  0.00     0.019 A
HETATM    6  C22 UNL     1      31.890 -27.996 -37.728  1.00  0.00     0.030 A
ENDROOT
BRANCH   1   7
HETATM    7  N6  UNL     1      29.638 -27.028 -37.708  1.00  0.00    -0.342 N
ATOM      8  H6  UNL     1      28.920 -26.943 -36.989  1.00  0.00     0.167 HD
BRANCH   7   9
HETATM    9  C6  UNL     1      29.760 -26.038 -38.707  1.00  0.00     0.124 A
HETATM   10  C3  UNL     1      30.247 -24.716 -38.350  1.00  0.00     0.127 A
HETATM   11  C2  UNL     1      30.605 -24.415 -37.061  1.00  0.00     0.266 A
HETATM   12  C4  UNL     1      30.365 -23.740 -39.320  1.00  0.00     0.170 A
HETATM   13  N2  UNL     1      31.056 -23.179 -36.790  1.00  0.00    -0.288 N
HETATM   14  O1  UNL     1      30.503 -25.294 -36.169  1.00  0.00    -0.267 OA
HETATM   15  C1  UNL     1      31.157 -22.253 -37.760  1.00  0.00     0.226 A
ATOM     16  H2  UNL     1      31.326 -22.939 -35.836  1.00  0.00     0.172 HD
HETATM   17  O2  UNL     1      30.815 -22.545 -38.991  1.00  0.00    -0.261 OA
HETATM   18  N3  UNL     1      29.993 -24.058 -40.650  1.00  0.00    -0.326 N
HETATM   19  C5  UNL     1      29.524 -25.350 -41.023  1.00  0.00     0.389 A
ATOM     20  H3  UNL     1      30.065 -23.335 -41.366  1.00  0.00     0.165 HD
HETATM   21  N5  UNL     1      29.451 -26.264 -39.917  1.00  0.00    -0.332 N
ATOM     22  H5  UNL     1      29.112 -27.202 -40.129  1.00  0.00     0.165 HD
BRANCH  15  23
HETATM   23  N1  UNL     1      31.595 -21.077 -37.457  1.00  0.00    -0.365 N
ATOM     24  H12 UNL     1      31.683 -20.787 -36.482  1.00  0.00     0.159 HD
ATOM     25  H11 UNL     1      31.854 -20.438 -38.209  1.00  0.00     0.159 HD
ENDBRANCH  15  23
BRANCH  19  26
HETATM   26  N4  UNL     1      28.198 -25.241 -41.621  1.00  0.00    -0.041 N
ATOM     27  H43 UNL     1      27.475 -25.651 -41.027  1.00  0.00     0.279 HD
ATOM     28  H42 UNL     1      27.857 -24.279 -41.626  1.00  0.00     0.279 HD
ATOM     29  H41 UNL     1      28.205 -25.651 -42.555  1.00  0.00     0.279 HD
ENDBRANCH  19  26
ENDBRANCH   7   9
ENDBRANCH   1   7
BRANCH   4  30
HETATM   30  C11 UNL     1      33.165 -31.491 -37.715  1.00  0.00     0.266 C
HETATM   31  O3  UNL     1      33.191 -32.235 -36.707  1.00  0.00    -0.267 OA
HETATM   32  N7  UNL     1      34.011 -31.790 -38.814  1.00  0.00    -0.233 N
ATOM     33  H7  UNL     1      34.940 -31.377 -38.897  1.00  0.00     0.183 HD
BRANCH  32  34
HETATM   34  S1  UNL     1      33.460 -32.781 -39.894  1.00  0.00     0.328 S
HETATM   35  O4  UNL     1      34.185 -34.081 -39.707  1.00  0.00    -0.182 OA
HETATM   36  O5  UNL     1      31.798 -32.983 -39.737  1.00  0.00    -0.182 OA
BRANCH  34  37
HETATM   37  N8  UNL     1      33.879 -32.135 -41.422  1.00  0.00    -0.234 N
HETATM   38  C12 UNL     1      33.357 -30.848 -41.890  1.00  0.00     0.255 C
HETATM   39  O6  UNL     1      32.613 -30.304 -41.088  1.00  0.00    -0.268 OA
ATOM     40  H8  UNL     1      34.511 -32.662 -42.024  1.00  0.00     0.183 HD
BRANCH  38  41
HETATM   41  C13 UNL     1      33.749 -30.389 -43.164  1.00  0.00     0.076 C
HETATM   42  C14 UNL     1      33.717 -30.688 -44.394  1.00  0.00     0.017 C
BRANCH  42  43
HETATM   43  C15 UNL     1      33.199 -31.777 -45.151  1.00  0.00    -0.036 A
HETATM   44  C16 UNL     1      32.725 -32.988 -44.732  1.00  0.00     0.014 A
HETATM   45  C17 UNL     1      32.239 -33.968 -45.612  1.00  0.00     0.037 A
HETATM   46  C18 UNL     1      32.216 -33.754 -46.960  1.00  0.00     0.065 A
HETATM   47  C19 UNL     1      32.681 -32.554 -47.425  1.00  0.00     0.037 A
HETATM   48  C20 UNL     1      33.151 -31.610 -46.562  1.00  0.00     0.014 A
BRANCH  46  49
HETATM   49  O7  UNL     1      31.739 -34.707 -47.855  1.00  0.00    -0.361 OA
ATOM     50  H7  UNL     1      32.244 -35.475 -48.093  1.00  0.00     0.217 HD
ENDBRANCH  46  49
ENDBRANCH  42  43
ENDBRANCH  38  41
ENDBRANCH  34  37
ENDBRANCH  32  34
ENDBRANCH   4  30
TORSDOF 10
ENDMDL