MODEL 5
REMARK VINA RESULT: -7.322014317      2.431      3.846
REMARK  9 active torsions:
REMARK  status: ('A' for Active; 'I' for Inactive)
REMARK    1  A    between atoms: O1_1  and  C1_3
REMARK    2  A    between atoms: C3_5  and  C4_6
REMARK    3  A    between atoms: C4_6  and  N1_7
REMARK    4  A    between atoms: N1_7  and  C5_10
REMARK    5  A    between atoms: C5_10  and  C6_11
REMARK    6  A    between atoms: C9_14  and  C10_15
REMARK    7  A    between atoms: C10_15  and  N2_16
REMARK    8  A    between atoms: C28_49  and  O2_50
REMARK    9  A    between atoms: C29_52  and  O3_53
ROOT
HETATM    1  C6  UNL     1      32.465 -29.570 -40.792  1.00  0.00     0.051 A
HETATM    2  C7  UNL     1      31.113 -29.664 -41.101  1.00  0.00     0.030 A
HETATM    3  C8  UNL     1      30.512 -28.559 -41.641  1.00  0.00     0.030 A
HETATM    4  C9  UNL     1      31.194 -27.383 -41.879  1.00  0.00     0.054 A
HETATM    5  N7  UNL     1      32.513 -27.375 -41.551  1.00  0.00    -0.303 N
ATOM      6  H7  UNL     1      33.061 -26.530 -41.710  1.00  0.00     0.186 HD
HETATM    7  N8  UNL     1      33.101 -28.438 -41.032  1.00  0.00    -0.303 N
ATOM      8  H8  UNL     1      34.094 -28.382 -40.805  1.00  0.00     0.186 HD
ENDROOT
BRANCH   4   9
HETATM    9  C10 UNL     1      30.456 -26.237 -42.403  1.00  0.00     0.330 C
BRANCH   9  10
HETATM   10  N2  UNL     1      30.260 -25.195 -41.432  1.00  0.00     0.097 N
HETATM   11  C11 UNL     1      28.952 -25.169 -40.873  1.00  0.00     0.292 C
HETATM   12  C12 UNL     1      28.923 -25.131 -39.363  1.00  0.00     0.144 C
HETATM   13  N3  UNL     1      29.218 -26.376 -38.749  1.00  0.00    -0.419 N
HETATM   14  C13 UNL     1      30.573 -26.671 -38.474  1.00  0.00     0.115 C
ATOM     15  H3  UNL     1      28.477 -27.036 -38.514  1.00  0.00     0.153 HD
HETATM   16  C14 UNL     1      31.308 -25.768 -37.555  1.00  0.00     0.046 C
HETATM   17  C15 UNL     1      30.623 -25.382 -36.299  1.00  0.00     0.234 C
HETATM   18  N4  UNL     1      31.054 -24.006 -35.978  1.00  0.00    -0.075 N
HETATM   19  C16 UNL     1      32.486 -23.941 -35.763  1.00  0.00     0.233 C
ATOM     20  H42 UNL     1      30.752 -23.343 -36.692  1.00  0.00     0.277 HD
ATOM     21  H41 UNL     1      30.538 -23.628 -35.183  1.00  0.00     0.277 HD
HETATM   22  C17 UNL     1      33.052 -22.569 -36.065  1.00  0.00     0.055 C
HETATM   23  C18 UNL     1      33.848 -22.543 -37.359  1.00  0.00     0.234 C
HETATM   24  N5  UNL     1      33.904 -21.253 -37.972  1.00  0.00    -0.073 N
HETATM   25  C19 UNL     1      33.804 -21.315 -39.443  1.00  0.00     0.259 C
ATOM     26  H52 UNL     1      33.193 -20.633 -37.584  1.00  0.00     0.277 HD
ATOM     27  H51 UNL     1      34.741 -20.747 -37.683  1.00  0.00     0.277 HD
HETATM   28  C20 UNL     1      32.372 -21.429 -39.819  1.00  0.00     0.259 C
HETATM   29  N6  UNL     1      32.142 -22.071 -41.121  1.00  0.00    -0.072 N
HETATM   30  C21 UNL     1      31.148 -23.082 -40.855  1.00  0.00     0.262 C
ATOM     31  H62 UNL     1      31.885 -21.422 -41.865  1.00  0.00     0.277 HD
ATOM     32  H61 UNL     1      32.988 -22.426 -41.565  1.00  0.00     0.277 HD
HETATM   33  C22 UNL     1      30.683 -23.896 -41.997  1.00  0.00     0.300 C
ENDBRANCH   9  10
ENDBRANCH   4   9
BRANCH   1  34
HETATM   34  C5  UNL     1      33.158 -30.660 -40.083  1.00  0.00     0.291 C
BRANCH  34  35
HETATM   35  N1  UNL     1      33.757 -30.101 -38.852  1.00  0.00    -0.066 N
ATOM     36  H12 UNL     1      34.173 -29.181 -38.991  1.00  0.00     0.277 HD
ATOM     37  H11 UNL     1      34.607 -30.586 -38.564  1.00  0.00     0.277 HD
BRANCH  35  38
HETATM   38  C4  UNL     1      32.714 -30.112 -37.827  1.00  0.00     0.271 C
BRANCH  38  39
HETATM   39  C3  UNL     1      32.148 -31.460 -37.673  1.00  0.00    -0.029 A
HETATM   40  C2  UNL     1      30.773 -31.657 -37.817  1.00  0.00     0.045 A
HETATM   41  C1  UNL     1      30.193 -32.911 -37.595  1.00  0.00     0.073 A
HETATM   42  C25 UNL     1      31.027 -33.956 -37.231  1.00  0.00    -0.016 A
HETATM   43  C24 UNL     1      32.379 -33.805 -37.087  1.00  0.00    -0.018 A
HETATM   44  C26 UNL     1      30.433 -35.303 -36.933  1.00  0.00     0.044 C
HETATM   45  C23 UNL     1      32.900 -32.555 -37.313  1.00  0.00     0.019 A
HETATM   46  C29 UNL     1      33.322 -34.895 -36.703  1.00  0.00     0.180 C
HETATM   47  C28 UNL     1      32.633 -36.206 -36.489  1.00  0.00     0.151 C
HETATM   48  C27 UNL     1      31.314 -35.918 -35.817  1.00  0.00     0.039 C
BRANCH  41  49
HETATM   49  O1  UNL     1      28.826 -33.051 -37.750  1.00  0.00    -0.360 OA
ATOM     50  H1  UNL     1      28.300 -33.289 -36.996  1.00  0.00     0.217 HD
ENDBRANCH  41  49
BRANCH  46  51
HETATM   51  O3  UNL     1      34.305 -34.945 -37.699  1.00  0.00    -0.388 OA
ATOM     52  H3  UNL     1      34.595 -34.052 -37.840  1.00  0.00     0.210 HD
ENDBRANCH  46  51
BRANCH  47  53
HETATM   53  O2  UNL     1      32.503 -36.863 -37.698  1.00  0.00    -0.393 OA
ATOM     54  H2  UNL     1      32.868 -37.741 -37.694  1.00  0.00     0.210 HD
ENDBRANCH  47  53
ENDBRANCH  38  39
ENDBRANCH  35  38
ENDBRANCH  34  35
ENDBRANCH   1  34
TORSDOF 9
ENDMDL