MODEL 1
REMARK VINA RESULT: -8.475415493      0.000      0.000
REMARK  9 active torsions:
REMARK  status: ('A' for Active; 'I' for Inactive)
REMARK    1  A    between atoms: O1_1  and  N1_3
REMARK    2  A    between atoms: N1_3  and  C1_5
REMARK    3  A    between atoms: C3_7  and  N2_8
REMARK    4  A    between atoms: N2_8  and  S1_10
REMARK    5  A    between atoms: S1_10  and  C4_13
REMARK    6  A    between atoms: C7_16  and  O4_17
REMARK    7  A    between atoms: C8_19  and  N3_20
REMARK    8  A    between atoms: N3_20  and  C9_22
REMARK    9  A    between atoms: C13_26  and  S2_27
ROOT
HETATM    1  C4  UNL     1      30.306 -26.460 -41.212  1.00  0.00     0.151 A
HETATM    2  C5  UNL     1      31.586 -26.737 -41.651  1.00  0.00     0.046 A
HETATM    3  C6  UNL     1      32.097 -28.016 -41.532  1.00  0.00     0.043 A
HETATM    4  C7  UNL     1      31.340 -29.024 -40.976  1.00  0.00     0.109 A
HETATM    5  C8  UNL     1      30.066 -28.720 -40.546  1.00  0.00     0.137 A
HETATM    6  N6  UNL     1      29.600 -27.465 -40.678  1.00  0.00    -0.330 N
ATOM      7  H6  UNL     1      28.654 -27.267 -40.352  1.00  0.00     0.168 HD
ENDROOT
BRANCH   1   8
HETATM    8  S1  UNL     1      29.646 -24.826 -41.363  1.00  0.00     0.280 S
HETATM    9  O2  UNL     1      30.612 -24.028 -42.193  1.00  0.00    -0.199 OA
HETATM   10  O3  UNL     1      28.377 -24.959 -42.154  1.00  0.00    -0.199 OA
BRANCH   8  11
HETATM   11  N2  UNL     1      29.407 -24.175 -39.810  1.00  0.00    -0.264 N
ATOM     12  H2  UNL     1      28.464 -24.227 -39.424  1.00  0.00     0.180 HD
BRANCH  11  13
HETATM   13  C3  UNL     1      30.297 -23.632 -39.090  1.00  0.00     0.120 A
HETATM   14  C2  UNL     1      30.381 -23.970 -37.759  1.00  0.00     0.099 A
HETATM   15  C1  UNL     1      31.347 -23.383 -36.969  1.00  0.00     0.130 A
HETATM   16  N8  UNL     1      32.163 -22.495 -37.568  1.00  0.00    -0.318 N
HETATM   17  C17 UNL     1      32.082 -22.165 -38.864  1.00  0.00     0.179 A
ATOM     18  H8  UNL     1      32.885 -22.048 -37.003  1.00  0.00     0.170 HD
HETATM   19  N7  UNL     1      31.141 -22.738 -39.630  1.00  0.00    -0.319 N
HETATM   20  S3  UNL     1      33.100 -21.077 -39.552  1.00  0.00    -0.040 SA
ATOM     21  H7  UNL     1      31.068 -22.496 -40.619  1.00  0.00     0.170 HD
BRANCH  15  22
HETATM   22  N1  UNL     1      31.483 -23.692 -35.589  1.00  0.00    -0.253 N
ATOM     23  H1  UNL     1      31.097 -24.571 -35.246  1.00  0.00     0.196 HD
BRANCH  22  24
HETATM   24  O1  UNL     1      32.056 -22.934 -34.775  1.00  0.00    -0.288 OA
ATOM     25  H1  UNL     1      31.878 -22.949 -33.842  1.00  0.00     0.244 HD
ENDBRANCH  22  24
ENDBRANCH  15  22
ENDBRANCH  11  13
ENDBRANCH   8  11
ENDBRANCH   1   8
BRANCH   5  26
HETATM   26  N3  UNL     1      29.223 -29.703 -39.967  1.00  0.00    -0.354 N
ATOM     27  H3  UNL     1      28.920 -30.468 -40.570  1.00  0.00     0.163 HD
BRANCH  26  28
HETATM   28  C9  UNL     1      28.763 -29.715 -38.623  1.00  0.00     0.202 C
HETATM   29  C10 UNL     1      29.814 -29.438 -37.579  1.00  0.00     0.085 C
HETATM   30  C11 UNL     1      30.748 -30.584 -37.558  1.00  0.00    -0.026 A
HETATM   31  C12 UNL     1      32.110 -30.443 -37.375  1.00  0.00     0.035 A
HETATM   32  C16 UNL     1      30.204 -31.851 -37.732  1.00  0.00     0.051 A
HETATM   33  C13 UNL     1      32.964 -31.527 -37.357  1.00  0.00     0.081 A
HETATM   34  C14 UNL     1      32.424 -32.783 -37.530  1.00  0.00     0.028 A
HETATM   35  C15 UNL     1      31.064 -32.922 -37.713  1.00  0.00     0.032 A
HETATM   36  N4  UNL     1      28.811 -31.965 -37.917  1.00  0.00    -0.302 N
HETATM   37  N5  UNL     1      28.019 -30.909 -38.369  1.00  0.00    -0.115 NA
ATOM     38  H4  UNL     1      28.362 -32.857 -37.712  1.00  0.00     0.182 HD
BRANCH  33  39
HETATM   39  S2  UNL     1      34.702 -31.306 -37.121  1.00  0.00     0.137 S
HETATM   40  O5  UNL     1      34.955 -29.892 -36.763  1.00  0.00    -0.591 OA
HETATM   41  O6  UNL     1      35.470 -31.732 -38.336  1.00  0.00    -0.591 OA
HETATM   42  O7  UNL     1      35.214 -32.290 -35.849  1.00  0.00    -0.591 OA
ENDBRANCH  33  39
ENDBRANCH  26  28
ENDBRANCH   5  26
BRANCH   4  43
HETATM   43  O4  UNL     1      31.860 -30.323 -40.854  1.00  0.00    -0.357 OA
ATOM     44  H4  UNL     1      31.386 -31.067 -41.205  1.00  0.00     0.218 HD
ENDBRANCH   4  43
TORSDOF 9
ENDMDL