MODEL 5
REMARK VINA RESULT: -7.510844796      4.170      7.654
REMARK  12 active torsions:
REMARK  status: ('A' for Active; 'I' for Inactive)
REMARK    1  A    between atoms: C1_4  and  N2_5
REMARK    2  A    between atoms: C1_4  and  C20_47
REMARK    3  A    between atoms: N2_5  and  C2_7
REMARK    4  A    between atoms: C5_10  and  N3_11
REMARK    5  A    between atoms: N3_11  and  C6_13
REMARK    6  A    between atoms: C7_16  and  N5_17
REMARK    7  A    between atoms: C10_20  and  N6_21
REMARK    8  A    between atoms: C12_28  and  N8_29
REMARK    9  A    between atoms: C14_31  and  N9_32
REMARK   10  A    between atoms: C16_37  and  N10_38
REMARK   11  A    between atoms: C26_53  and  N12_54
REMARK   12  A    between atoms: N12_54  and  O1_56
ROOT
HETATM    1  C6  UNL     1      32.977 -31.020 -43.684  1.00  0.00     0.711 A
HETATM    2  N4  UNL     1      32.593 -31.873 -44.621  1.00  0.00    -0.021 N
ATOM      3  H4  UNL     1      32.077 -31.504 -45.420  1.00  0.00     0.203 HD
HETATM    4  C7  UNL     1      32.841 -33.194 -44.587  1.00  0.00     0.709 A
HETATM    5  N7  UNL     1      33.518 -33.652 -43.529  1.00  0.00    -0.021 N
ATOM      6  H7  UNL     1      33.725 -34.649 -43.467  1.00  0.00     0.203 HD
HETATM    7  C12 UNL     1      33.933 -32.839 -42.547  1.00  0.00     0.709 A
HETATM    8  N11 UNL     1      33.660 -31.522 -42.629  1.00  0.00    -0.021 N
ATOM      9  H11 UNL     1      33.972 -30.896 -41.887  1.00  0.00     0.203 HD
ENDROOT
BRANCH   1  10
HETATM   10  N3  UNL     1      32.700 -29.775 -43.795  1.00  0.00    -0.191 N
ATOM     11  H3  UNL     1      32.867 -29.290 -44.676  1.00  0.00     0.184 HD
BRANCH  10  12
HETATM   12  C5  UNL     1      32.155 -29.070 -42.681  1.00  0.00     0.049 A
HETATM   13  C4  UNL     1      32.918 -28.117 -42.018  1.00  0.00     0.032 A
HETATM   14  C3  UNL     1      32.381 -27.454 -40.956  1.00  0.00     0.032 A
HETATM   15  C2  UNL     1      31.104 -27.671 -40.484  1.00  0.00     0.033 A
HETATM   16  C19 UNL     1      30.365 -28.625 -41.161  1.00  0.00     0.032 A
HETATM   17  C18 UNL     1      30.875 -29.315 -42.238  1.00  0.00     0.032 A
BRANCH  15  18
HETATM   18  N2  UNL     1      30.568 -26.966 -39.374  1.00  0.00    -0.342 N
ATOM     19  H2  UNL     1      30.232 -26.013 -39.520  1.00  0.00     0.167 HD
BRANCH  18  20
HETATM   20  C1  UNL     1      30.477 -27.517 -38.081  1.00  0.00     0.109 C
HETATM   21  N1  UNL     1      30.035 -26.829 -37.084  1.00  0.00    -0.385 N
ATOM     22  H12 UNL     1      29.746 -25.864 -37.243  1.00  0.00     0.157 HD
ATOM     23  H11 UNL     1      29.969 -27.229 -36.148  1.00  0.00     0.157 HD
BRANCH  20  24
HETATM   24  C20 UNL     1      30.886 -28.883 -37.855  1.00  0.00     0.008 A
HETATM   25  C21 UNL     1      32.200 -29.176 -37.589  1.00  0.00     0.016 A
HETATM   26  C22 UNL     1      32.645 -30.456 -37.367  1.00  0.00     0.009 A
HETATM   27  C23 UNL     1      31.690 -31.497 -37.421  1.00  0.00    -0.040 A
HETATM   28  C24 UNL     1      30.383 -31.263 -37.679  1.00  0.00    -0.004 A
HETATM   29  C27 UNL     1      31.438 -32.943 -37.304  1.00  0.00     0.099 A
HETATM   30  C25 UNL     1      29.991 -29.926 -37.898  1.00  0.00     0.029 A
HETATM   31  C26 UNL     1      30.038 -32.656 -37.584  1.00  0.00     0.047 A
BRANCH  31  32
HETATM   32  N12 UNL     1      28.973 -33.384 -37.692  1.00  0.00    -0.272 N
ATOM     33  H12 UNL     1      28.205 -33.115 -38.307  1.00  0.00     0.194 HD
BRANCH  32  34
HETATM   34  O1  UNL     1      28.920 -34.534 -36.944  1.00  0.00    -0.290 OA
ATOM     35  H1  UNL     1      28.551 -34.468 -36.071  1.00  0.00     0.244 HD
ENDBRANCH  32  34
ENDBRANCH  31  32
ENDBRANCH  20  24
ENDBRANCH  18  20
ENDBRANCH  15  18
ENDBRANCH  10  12
ENDBRANCH   1  10
BRANCH   4  36
HETATM   36  N5  UNL     1      32.389 -34.023 -45.637  1.00  0.00    -0.215 N
HETATM   37  C8  UNL     1      32.388 -33.702 -47.047  1.00  0.00     0.143 C
HETATM   38  C9  UNL     1      32.220 -35.026 -47.735  1.00  0.00     0.055 C
HETATM   39  C10 UNL     1      31.325 -35.784 -46.783  1.00  0.00     0.203 C
HETATM   40  C11 UNL     1      31.846 -35.352 -45.443  1.00  0.00     0.173 C
BRANCH  39  41
HETATM   41  N6  UNL     1      29.952 -35.404 -46.967  1.00  0.00    -0.073 N
ATOM     42  H63 UNL     1      29.708 -34.584 -46.410  1.00  0.00     0.274 HD
ATOM     43  H62 UNL     1      29.788 -35.013 -47.895  1.00  0.00     0.274 HD
ATOM     44  H61 UNL     1      29.332 -36.190 -46.773  1.00  0.00     0.274 HD
ENDBRANCH  39  41
ENDBRANCH   4  36
BRANCH   7  45
HETATM   45  N8  UNL     1      34.654 -33.307 -41.414  1.00  0.00    -0.213 N
HETATM   46  C13 UNL     1      35.565 -32.388 -40.765  1.00  0.00     0.174 C
HETATM   47  C14 UNL     1      36.078 -33.057 -39.510  1.00  0.00     0.204 C
HETATM   48  C15 UNL     1      34.847 -33.484 -38.707  1.00  0.00     0.069 C
HETATM   49  C16 UNL     1      34.112 -34.595 -39.423  1.00  0.00     0.204 C
HETATM   50  C17 UNL     1      34.506 -34.650 -40.900  1.00  0.00     0.174 C
BRANCH  47  51
HETATM   51  N9  UNL     1      36.844 -32.176 -38.672  1.00  0.00    -0.073 N
ATOM     52  H93 UNL     1      37.446 -31.574 -39.234  1.00  0.00     0.274 HD
ATOM     53  H92 UNL     1      36.245 -31.467 -38.249  1.00  0.00     0.274 HD
ATOM     54  H91 UNL     1      37.384 -32.669 -37.960  1.00  0.00     0.274 HD
ENDBRANCH  47  51
BRANCH  49  55
HETATM   55  N10 UNL     1      34.500 -35.845 -38.830  1.00  0.00    -0.073 N
ATOM     56 3H10 UNL     1      35.170 -36.361 -39.401  1.00  0.00     0.274 HD
ATOM     57 2H10 UNL     1      35.086 -35.724 -38.004  1.00  0.00     0.274 HD
ATOM     58 1H10 UNL     1      33.654 -36.382 -38.635  1.00  0.00     0.274 HD
ENDBRANCH  49  55
ENDBRANCH   7  45
TORSDOF 12
ENDMDL