MODEL 3
REMARK VINA RESULT: -8.002714720      4.628      9.066
REMARK  7 active torsions:
REMARK  status: ('A' for Active; 'I' for Inactive)
REMARK       I    between atoms: C1_4  and  N3_6
REMARK    1  A    between atoms: N3_6  and  C2_8
REMARK    2  A    between atoms: C6_17  and  N7_18
REMARK    3  A    between atoms: C7_20  and  C8_21
REMARK    4  A    between atoms: C10_23  and  N8_24
REMARK    5  A    between atoms: C13_29  and  O3_30
REMARK    6  A    between atoms: N10_35  and  C15_37
REMARK    7  A    between atoms: C18_40  and  S1_41
ROOT
HETATM    1  C2  UNL     1      29.725 -33.142 -37.721  1.00  0.00     0.687 A
HETATM    2  N4  UNL     1      30.786 -32.990 -38.538  1.00  0.00    -0.175 N
ATOM      3  H4  UNL     1      31.410 -33.780 -38.705  1.00  0.00     0.186 HD
HETATM    4  C3  UNL     1      31.031 -31.813 -39.137  1.00  0.00     0.150 A
HETATM    5  C4  UNL     1      30.204 -30.726 -38.932  1.00  0.00     0.071 A
HETATM    6  C5  UNL     1      29.130 -30.918 -38.091  1.00  0.00     0.145 A
HETATM    7  N5  UNL     1      28.192 -29.896 -37.783  1.00  0.00    -0.081 NA
HETATM    8  N6  UNL     1      28.904 -32.127 -37.496  1.00  0.00    -0.178 N
ATOM      9  H6  UNL     1      28.103 -32.248 -36.877  1.00  0.00     0.185 HD
HETATM   10  C6  UNL     1      30.424 -29.421 -39.567  1.00  0.00     0.240 A
HETATM   11  N9  UNL     1      31.610 -29.390 -40.398  1.00  0.00    -0.200 N
ATOM     12  H9  UNL     1      31.837 -28.505 -40.850  1.00  0.00     0.180 HD
HETATM   13  C14 UNL     1      32.478 -30.473 -40.637  1.00  0.00     0.682 A
HETATM   14  N10 UNL     1      33.516 -30.472 -41.382  1.00  0.00    -0.192 N
ATOM     15  H10 UNL     1      34.021 -31.357 -41.433  1.00  0.00     0.184 HD
HETATM   16  N11 UNL     1      32.172 -31.722 -39.980  1.00  0.00    -0.175 N
ATOM     17  H11 UNL     1      32.772 -32.535 -40.121  1.00  0.00     0.186 HD
ENDROOT
BRANCH  10  18
HETATM   18  N7  UNL     1      30.522 -28.329 -38.651  1.00  0.00    -0.373 N
HETATM   19  C7  UNL     1      31.554 -27.716 -38.302  1.00  0.00     0.099 C
ATOM     20  H7  UNL     1      29.648 -28.013 -38.233  1.00  0.00     0.161 HD
BRANCH  19  21
HETATM   21  C8  UNL     1      31.667 -26.608 -37.376  1.00  0.00     0.015 A
HETATM   22  C9  UNL     1      32.903 -26.343 -36.770  1.00  0.00     0.051 A
HETATM   23  C10 UNL     1      33.121 -25.323 -35.882  1.00  0.00     0.103 A
HETATM   24  C11 UNL     1      32.024 -24.535 -35.599  1.00  0.00     0.039 A
HETATM   25  C12 UNL     1      30.803 -24.737 -36.150  1.00  0.00     0.040 A
HETATM   26  C13 UNL     1      30.598 -25.799 -37.068  1.00  0.00     0.077 A
BRANCH  23  27
HETATM   27  N8  UNL     1      34.378 -25.067 -35.277  1.00  0.00    -0.116 N
HETATM   28  O1  UNL     1      35.415 -25.284 -35.908  1.00  0.00    -0.532 OA
HETATM   29  O2  UNL     1      34.498 -24.581 -33.997  1.00  0.00    -0.532 OA
ENDBRANCH  23  27
BRANCH  26  30
HETATM   30  O3  UNL     1      29.353 -25.929 -37.568  1.00  0.00    -0.360 OA
ATOM     31  H3  UNL     1      28.814 -26.709 -37.505  1.00  0.00     0.217 HD
ENDBRANCH  26  30
ENDBRANCH  19  21
ENDBRANCH  10  18
BRANCH  14  32
HETATM   32  C15 UNL     1      34.054 -29.429 -42.139  1.00  0.00     0.049 A
HETATM   33  C16 UNL     1      34.972 -28.499 -41.690  1.00  0.00     0.031 A
HETATM   34  C17 UNL     1      35.418 -27.526 -42.557  1.00  0.00     0.028 A
HETATM   35  C18 UNL     1      34.995 -27.423 -43.866  1.00  0.00     0.080 A
HETATM   36  C19 UNL     1      34.075 -28.372 -44.280  1.00  0.00     0.028 A
HETATM   37  C20 UNL     1      33.606 -29.349 -43.464  1.00  0.00     0.031 A
BRANCH  35  38
HETATM   38  S1  UNL     1      35.538 -26.209 -44.981  1.00  0.00     0.137 S
HETATM   39  O4  UNL     1      36.344 -26.900 -46.071  1.00  0.00    -0.591 OA
HETATM   40  O5  UNL     1      36.471 -25.218 -44.339  1.00  0.00    -0.591 OA
HETATM   41  O6  UNL     1      34.258 -25.425 -45.749  1.00  0.00    -0.591 OA
ENDBRANCH  35  38
ENDBRANCH  14  32
BRANCH   1  42
HETATM   42  N3  UNL     1      29.524 -34.302 -37.161  1.00  0.00    -0.164 N
HETATM   43  C1  UNL     1      30.485 -35.341 -37.169  1.00  0.00     0.200 C
HETATM   44  N1  UNL     1      30.335 -36.406 -37.908  1.00  0.00    -0.373 N
HETATM   45  N2  UNL     1      31.638 -35.220 -36.351  1.00  0.00    -0.063 NA
ATOM     46  H12 UNL     1      31.028 -37.155 -37.913  1.00  0.00     0.158 HD
ATOM     47  H11 UNL     1      29.507 -36.493 -38.496  1.00  0.00     0.158 HD
ATOM     48  H3  UNL     1      28.632 -34.470 -36.696  1.00  0.00     0.187 HD
ENDBRANCH   1  42
TORSDOF 7
ENDMDL