MODEL 2
REMARK VINA RESULT: -8.043166214      1.096      1.260
REMARK  9 active torsions:
REMARK  status: ('A' for Active; 'I' for Inactive)
REMARK    1  A    between atoms: N1_1  and  C1_4
REMARK    2  A    between atoms: C4_7  and  C5_8
REMARK    3  A    between atoms: C7_12  and  N3_13
REMARK       I    between atoms: N3_13  and  C8_15
REMARK    4  A    between atoms: C8_15  and  C9_17
REMARK    5  A    between atoms: C14_22  and  N4_23
REMARK    6  A    between atoms: C15_28  and  N6_29
REMARK    7  A    between atoms: N6_29  and  C16_30
REMARK    8  A    between atoms: C17_33  and  N8_34
REMARK    9  A    between atoms: C19_41  and  N11_42
ROOT
HETATM    1  C5  UNL     1      30.041 -28.810 -40.222  1.00  0.00     0.119 A
HETATM    2  N2  UNL     1      30.256 -27.575 -39.795  1.00  0.00    -0.336 N
ATOM      3  H2  UNL     1      30.248 -27.298 -38.813  1.00  0.00     0.168 HD
HETATM    4  C6  UNL     1      30.486 -26.732 -40.816  1.00  0.00     0.123 A
HETATM    5  C7  UNL     1      30.758 -25.367 -40.905  1.00  0.00     0.142 A
HETATM    6  N5  UNL     1      30.933 -24.868 -42.117  1.00  0.00    -0.300 N
ATOM      7  H5  UNL     1      31.132 -23.871 -42.187  1.00  0.00     0.171 HD
HETATM    8  C15 UNL     1      30.870 -25.579 -43.286  1.00  0.00     0.264 A
HETATM    9  N12 UNL     1      30.599 -26.913 -43.129  1.00  0.00    -0.300 N
ATOM     10  H12 UNL     1      30.538 -27.497 -43.964  1.00  0.00     0.171 HD
HETATM   11  C20 UNL     1      30.412 -27.484 -41.946  1.00  0.00     0.141 A
HETATM   12  N13 UNL     1      30.135 -28.768 -41.551  1.00  0.00    -0.326 N
ATOM     13  H13 UNL     1      30.019 -29.566 -42.176  1.00  0.00     0.169 HD
ENDROOT
BRANCH   8  14
HETATM   14  N6  UNL     1      31.042 -24.979 -44.443  1.00  0.00    -0.349 NA
BRANCH  14  15
HETATM   15  C16 UNL     1      31.341 -24.508 -45.482  1.00  0.00     0.234 A
HETATM   16  N7  UNL     1      30.358 -24.059 -46.352  1.00  0.00    -0.162 N
HETATM   17  C17 UNL     1      30.668 -23.522 -47.538  1.00  0.00     0.679 A
ATOM     18  H7  UNL     1      29.378 -24.140 -46.081  1.00  0.00     0.187 HD
HETATM   19  N9  UNL     1      31.930 -23.386 -47.956  1.00  0.00    -0.176 N
HETATM   20  C18 UNL     1      32.941 -23.791 -47.181  1.00  0.00     0.169 A
ATOM     21  H9  UNL     1      32.122 -22.972 -48.868  1.00  0.00     0.185 HD
HETATM   22  N10 UNL     1      34.280 -23.648 -47.612  1.00  0.00    -0.079 NA
HETATM   23  C19 UNL     1      32.632 -24.353 -45.941  1.00  0.00     0.203 A
BRANCH  17  24
HETATM   24  N8  UNL     1      29.724 -23.114 -48.346  1.00  0.00    -0.234 N
ATOM     25  H82 UNL     1      29.571 -22.109 -48.413  1.00  0.00     0.174 HD
ATOM     26  H81 UNL     1      29.179 -23.789 -48.885  1.00  0.00     0.174 HD
ENDBRANCH  17  24
BRANCH  23  27
HETATM   27  N11 UNL     1      33.717 -24.784 -45.147  1.00  0.00    -0.107 N
HETATM   28  O4  UNL     1      34.200 -25.938 -45.261  1.00  0.00    -0.531 OA
HETATM   29  O5  UNL     1      34.301 -23.975 -44.183  1.00  0.00    -0.531 OA
ENDBRANCH  23  27
ENDBRANCH  14  15
ENDBRANCH   8  14
BRANCH   5  30
HETATM   30  N3  UNL     1      30.800 -24.718 -39.800  1.00  0.00    -0.307 N
HETATM   31  C8  UNL     1      31.746 -23.854 -39.285  1.00  0.00     0.259 C
HETATM   32  O1  UNL     1      32.596 -23.235 -40.006  1.00  0.00    -0.267 OA
ATOM     33  H3  UNL     1      29.992 -24.867 -39.194  1.00  0.00     0.170 HD
BRANCH  31  34
HETATM   34  C9  UNL     1      31.850 -23.592 -37.831  1.00  0.00     0.065 A
HETATM   35  C10 UNL     1      32.407 -22.361 -37.477  1.00  0.00     0.020 A
HETATM   36  C11 UNL     1      32.731 -22.093 -36.175  1.00  0.00     0.001 A
HETATM   37  C12 UNL     1      32.514 -23.033 -35.200  1.00  0.00     0.002 A
HETATM   38  C13 UNL     1      31.964 -24.236 -35.548  1.00  0.00     0.037 A
HETATM   39  C14 UNL     1      31.615 -24.539 -36.891  1.00  0.00     0.118 A
BRANCH  39  40
HETATM   40  N4  UNL     1      30.985 -25.780 -37.113  1.00  0.00    -0.115 N
HETATM   41  O2  UNL     1      31.576 -26.832 -37.344  1.00  0.00    -0.532 OA
HETATM   42  O3  UNL     1      29.592 -25.763 -37.186  1.00  0.00    -0.532 OA
ENDBRANCH  39  40
ENDBRANCH  31  34
ENDBRANCH   5  30
BRANCH   1  43
HETATM   43  C4  UNL     1      29.737 -30.028 -39.449  1.00  0.00     0.024 A
HETATM   44  C3  UNL     1      28.510 -30.212 -38.846  1.00  0.00     0.020 A
HETATM   45  C2  UNL     1      28.285 -31.383 -38.158  1.00  0.00     0.049 A
HETATM   46  C1  UNL     1      29.268 -32.372 -38.061  1.00  0.00     0.098 A
HETATM   47  N14 UNL     1      30.437 -32.161 -38.653  1.00  0.00    -0.352 N
HETATM   48  C21 UNL     1      30.660 -31.039 -39.316  1.00  0.00     0.104 A
ATOM     49  H14 UNL     1      31.168 -32.869 -38.596  1.00  0.00     0.166 HD
BRANCH  46  50
HETATM   50  N1  UNL     1      29.086 -33.471 -37.423  1.00  0.00    -0.385 N
ATOM     51  H12 UNL     1      28.146 -33.706 -37.107  1.00  0.00     0.157 HD
ATOM     52  H11 UNL     1      29.845 -34.122 -37.219  1.00  0.00     0.157 HD
ENDBRANCH  46  50
ENDBRANCH   1  43
TORSDOF 9
ENDMDL