MODEL 5
REMARK VINA RESULT: -6.272351043      2.754      5.464
REMARK  10 active torsions:
REMARK  status: ('A' for Active; 'I' for Inactive)
REMARK    1  A    between atoms: O1_2  and  C2_3
REMARK    2  A    between atoms: C2_3  and  C4_5
REMARK    3  A    between atoms: C20_23  and  C21_24
REMARK    4  A    between atoms: C21_24  and  O4_25
REMARK    5  A    between atoms: C21_24  and  C22_27
REMARK    6  A    between atoms: C23_28  and  O5_29
REMARK    7  A    between atoms: C24_33  and  C25_34
REMARK    8  A    between atoms: C25_34  and  O6_36
REMARK    9  A    between atoms: C27_38  and  O7_39
REMARK   10  A    between atoms: C28_41  and  O8_42
ROOT
HETATM    1  C4  UNL     1      34.102 -28.375 -41.798  1.00  0.00     0.015 C
HETATM    2  C5  UNL     1      34.460 -29.738 -41.251  1.00  0.00     0.055 C
HETATM    3  C6  UNL     1      35.941 -29.966 -41.070  1.00  0.00     0.006 C
HETATM    4  C7  UNL     1      36.254 -30.605 -39.717  1.00  0.00     0.000 C
HETATM    5  C8  UNL     1      35.370 -31.788 -39.450  1.00  0.00     0.000 C
HETATM    6  C9  UNL     1      35.393 -32.830 -40.517  1.00  0.00     0.000 C
HETATM    7  C10 UNL     1      34.018 -33.495 -40.660  1.00  0.00     0.000 C
HETATM    8  C11 UNL     1      33.999 -34.876 -40.088  1.00  0.00     0.000 C
HETATM    9  C12 UNL     1      33.567 -34.777 -38.630  1.00  0.00     0.002 C
HETATM   10  C13 UNL     1      32.039 -34.822 -38.561  1.00  0.00     0.027 C
HETATM   11  C14 UNL     1      31.551 -34.311 -37.239  1.00  0.00     0.178 C
HETATM   12  O2  UNL     1      30.235 -33.854 -37.255  1.00  0.00    -0.321 OA
HETATM   13  C15 UNL     1      29.823 -32.581 -37.591  1.00  0.00     0.258 C
HETATM   14  O3  UNL     1      28.958 -31.959 -36.933  1.00  0.00    -0.265 OA
HETATM   15  C16 UNL     1      30.426 -31.923 -38.770  1.00  0.00     0.111 C
HETATM   16  C17 UNL     1      29.981 -30.499 -38.935  1.00  0.00     0.010 C
HETATM   17  C18 UNL     1      31.118 -29.549 -39.132  1.00  0.00     0.006 C
HETATM   18  C19 UNL     1      31.347 -29.230 -40.619  1.00  0.00     0.055 C
HETATM   19  C20 UNL     1      31.853 -27.842 -40.849  1.00  0.00     0.016 C
HETATM   20  N2  UNL     1      33.169 -27.614 -41.157  1.00  0.00    -0.365 N
ATOM     21  H2  UNL     1      33.515 -26.705 -40.849  1.00  0.00     0.165 HD
ENDROOT
BRANCH  19  22
HETATM   22  C21 UNL     1      30.843 -27.025 -41.680  1.00  0.00     0.174 C
BRANCH  22  23
HETATM   23  O4  UNL     1      29.706 -27.793 -41.942  1.00  0.00    -0.389 OA
ATOM     24  H4  UNL     1      28.980 -27.492 -41.408  1.00  0.00     0.210 HD
ENDBRANCH  22  23
BRANCH  22  25
HETATM   25  C22 UNL     1      30.394 -25.784 -40.937  1.00  0.00     0.100 C
HETATM   26  C23 UNL     1      30.214 -26.080 -39.483  1.00  0.00     0.223 C
HETATM   27  N1  UNL     1      30.981 -25.371 -38.552  1.00  0.00    -0.387 N
HETATM   28  C24 UNL     1      31.480 -24.091 -38.864  1.00  0.00     0.138 C
ATOM     29  H1  UNL     1      31.180 -25.784 -37.641  1.00  0.00     0.156 HD
HETATM   30  C27 UNL     1      30.968 -23.505 -40.159  1.00  0.00     0.172 C
HETATM   31  C28 UNL     1      31.276 -24.592 -41.203  1.00  0.00     0.160 C
BRANCH  26  32
HETATM   32  O5  UNL     1      28.855 -25.972 -39.098  1.00  0.00    -0.377 OA
ATOM     33  H5  UNL     1      28.752 -25.395 -38.351  1.00  0.00     0.212 HD
ENDBRANCH  26  32
BRANCH  28  34
HETATM   34  C25 UNL     1      31.381 -23.102 -37.714  1.00  0.00     0.139 C
HETATM   35  C26 UNL     1      31.943 -21.754 -38.027  1.00  0.00     0.041 C
BRANCH  34  36
HETATM   36  O6  UNL     1      30.006 -22.919 -37.440  1.00  0.00    -0.394 OA
ATOM     37  H6  UNL     1      29.854 -21.983 -37.383  1.00  0.00     0.210 HD
ENDBRANCH  34  36
ENDBRANCH  28  34
BRANCH  30  38
HETATM   38  O7  UNL     1      29.622 -23.273 -40.182  1.00  0.00    -0.391 OA
ATOM     39  H7  UNL     1      29.291 -22.813 -39.419  1.00  0.00     0.210 HD
ENDBRANCH  30  38
BRANCH  31  40
HETATM   40  O8  UNL     1      32.625 -24.842 -41.085  1.00  0.00    -0.392 OA
ATOM     41  H8  UNL     1      33.126 -24.680 -41.876  1.00  0.00     0.210 HD
ENDBRANCH  31  40
ENDBRANCH  22  25
ENDBRANCH  19  22
BRANCH   1  42
HETATM   42  C2  UNL     1      34.080 -28.366 -43.334  1.00  0.00     0.162 C
HETATM   43  C3  UNL     1      33.720 -26.948 -43.811  1.00  0.00     0.046 C
BRANCH  42  44
HETATM   44  O1  UNL     1      33.037 -29.156 -43.735  1.00  0.00    -0.385 OA
HETATM   45  C1  UNL     1      33.345 -30.256 -44.486  1.00  0.00     0.202 C
ENDBRANCH  42  44
ENDBRANCH   1  42
TORSDOF 10
ENDMDL