MODEL 1
REMARK VINA RESULT: -8.705354162      0.000      0.000
REMARK  8 active torsions:
REMARK  status: ('A' for Active; 'I' for Inactive)
REMARK    1  A    between atoms: C5_6  and  C6_7
REMARK    2  A    between atoms: C8_9  and  N1_10
REMARK    3  A    between atoms: N1_10  and  C9_12
REMARK    4  A    between atoms: C11_17  and  N4_18
REMARK    5  A    between atoms: C13_27  and  N7_28
REMARK    6  A    between atoms: C14_33  and  C15_34
REMARK    7  A    between atoms: C15_34  and  C16_35
REMARK    8  A    between atoms: N9_37  and  C18_38
ROOT
HETATM    1  C1  UNL     1      35.716 -32.998 -36.788  1.00  0.00     0.068 C
HETATM    2  C2  UNL     1      34.592 -32.054 -37.089  1.00  0.00     0.009 A
HETATM    3  C3  UNL     1      33.290 -32.490 -37.078  1.00  0.00     0.080 A
HETATM    4  C4  UNL     1      32.260 -31.629 -37.350  1.00  0.00     0.188 A
HETATM    5  O1  UNL     1      31.067 -32.036 -37.333  1.00  0.00    -0.287 OA
HETATM    6  C5  UNL     1      32.485 -30.269 -37.652  1.00  0.00     0.064 A
HETATM    7  C14 UNL     1      33.790 -29.875 -37.657  1.00  0.00     0.031 A
HETATM    8  N14 UNL     1      34.796 -30.770 -37.375  1.00  0.00    -0.362 N
ATOM      9  H14 UNL     1      35.757 -30.429 -37.386  1.00  0.00     0.165 HD
ENDROOT
BRANCH   6  10
HETATM   10  C6  UNL     1      31.328 -29.450 -37.992  1.00  0.00     0.069 A
HETATM   11  C7  UNL     1      31.120 -28.153 -37.640  1.00  0.00     0.080 A
HETATM   12  C8  UNL     1      29.930 -27.452 -37.897  1.00  0.00     0.123 A
HETATM   13  N6  UNL     1      28.958 -28.126 -38.525  1.00  0.00    -0.177 N
HETATM   14  C13 UNL     1      29.129 -29.415 -38.888  1.00  0.00     0.677 A
ATOM     15  H6  UNL     1      28.075 -27.659 -38.733  1.00  0.00     0.185 HD
HETATM   16  N8  UNL     1      30.279 -30.060 -38.631  1.00  0.00    -0.191 N
ATOM     17  H8  UNL     1      30.374 -31.034 -38.919  1.00  0.00     0.184 HD
BRANCH  12  18
HETATM   18  N1  UNL     1      29.870 -26.247 -37.516  1.00  0.00    -0.335 N
ATOM     19  H1  UNL     1      29.523 -26.088 -36.570  1.00  0.00     0.168 HD
BRANCH  18  20
HETATM   20  C9  UNL     1      30.227 -25.109 -38.246  1.00  0.00     0.145 A
HETATM   21  C10 UNL     1      31.364 -24.413 -37.872  1.00  0.00     0.164 A
HETATM   22  N2  UNL     1      32.143 -24.859 -36.761  1.00  0.00    -0.080 NA
HETATM   23  N3  UNL     1      31.753 -23.297 -38.554  1.00  0.00    -0.177 N
HETATM   24  C11 UNL     1      31.047 -22.847 -39.605  1.00  0.00     0.680 A
ATOM     25  H3  UNL     1      32.593 -22.797 -38.262  1.00  0.00     0.185 HD
HETATM   26  N5  UNL     1      29.946 -23.509 -39.978  1.00  0.00    -0.154 N
HETATM   27  C12 UNL     1      29.525 -24.620 -39.328  1.00  0.00     0.289 A
ATOM     28  H5  UNL     1      29.409 -23.167 -40.775  1.00  0.00     0.187 HD
HETATM   29  O2  UNL     1      28.491 -25.243 -39.678  1.00  0.00    -0.265 OA
BRANCH  24  30
HETATM   30  N4  UNL     1      31.440 -21.774 -40.243  1.00  0.00    -0.234 N
ATOM     31  H42 UNL     1      31.842 -20.981 -39.743  1.00  0.00     0.174 HD
ATOM     32  H41 UNL     1      31.347 -21.724 -41.258  1.00  0.00     0.174 HD
ENDBRANCH  24  30
ENDBRANCH  18  20
ENDBRANCH  12  18
BRANCH  14  33
HETATM   33  N7  UNL     1      28.148 -29.998 -39.489  1.00  0.00    -0.234 N
ATOM     34  H72 UNL     1      27.382 -29.465 -39.900  1.00  0.00     0.174 HD
ATOM     35  H71 UNL     1      28.166 -31.017 -39.538  1.00  0.00     0.174 HD
ENDBRANCH  14  33
ENDBRANCH   6  10
BRANCH   7  36
HETATM   36  C15 UNL     1      34.200 -28.519 -38.073  1.00  0.00     0.116 C
BRANCH  36  37
HETATM   37  C16 UNL     1      33.905 -28.307 -39.519  1.00  0.00     0.031 A
HETATM   38  C17 UNL     1      33.322 -27.157 -40.064  1.00  0.00     0.117 A
HETATM   39  N9  UNL     1      33.198 -27.297 -41.386  1.00  0.00    -0.341 N
HETATM   40  C25 UNL     1      33.698 -28.527 -41.679  1.00  0.00     0.183 A
HETATM   41  N13 UNL     1      34.111 -29.106 -40.551  1.00  0.00    -0.354 N
ATOM     42  H13 UNL     1      34.526 -30.036 -40.493  1.00  0.00     0.166 HD
BRANCH  39  43
HETATM   43  C18 UNL     1      32.668 -26.407 -42.378  1.00  0.00     0.143 C
HETATM   44  C19 UNL     1      33.149 -26.734 -43.773  1.00  0.00     0.032 C
HETATM   45  C20 UNL     1      33.088 -25.495 -44.624  1.00  0.00     0.004 C
HETATM   46  C21 UNL     1      31.712 -25.182 -45.115  1.00  0.00     0.022 C
HETATM   47  C22 UNL     1      30.853 -24.512 -44.047  1.00  0.00     0.150 C
HETATM   48  N10 UNL     1      30.423 -25.595 -43.155  1.00  0.00    -0.279 N
HETATM   49  N11 UNL     1      29.137 -25.899 -42.953  1.00  0.00    -0.241 N
HETATM   50  C24 UNL     1      31.175 -26.412 -42.435  1.00  0.00     0.070 A
HETATM   51  N12 UNL     1      29.077 -26.905 -42.109  1.00  0.00    -0.295 N
ATOM     52  H11 UNL     1      28.338 -25.431 -43.381  1.00  0.00     0.208 HD
HETATM   53  C23 UNL     1      30.338 -27.263 -41.755  1.00  0.00     0.137 A
ATOM     54  H12 UNL     1      28.221 -27.346 -41.773  1.00  0.00     0.187 HD
ENDBRANCH  39  43
ENDBRANCH  36  37
ENDBRANCH   7  36
TORSDOF 8
ENDMDL