MODEL 2
REMARK VINA RESULT: -7.728255096      1.416      1.668
REMARK  10 active torsions:
REMARK  status: ('A' for Active; 'I' for Inactive)
REMARK    1  A    between atoms: N1_1  and  C1_4
REMARK    2  A    between atoms: C3_8  and  C4_9
REMARK    3  A    between atoms: C4_9  and  C5_10
REMARK    4  A    between atoms: C5_10  and  N3_11
REMARK    5  A    between atoms: N3_11  and  C6_13
REMARK    6  A    between atoms: C8_19  and  N6_20
REMARK    7  A    between atoms: N6_20  and  C9_21
REMARK    8  A    between atoms: N7_24  and  C12_25
REMARK    9  A    between atoms: C19_36  and  N9_37
REMARK   10  A    between atoms: N11_44  and  N12_45
ROOT
HETATM    1  C9  UNL     1      31.206 -33.642 -37.506  1.00  0.00     0.186 C
HETATM    2  C10 UNL     1      30.573 -34.758 -36.748  1.00  0.00     0.115 C
HETATM    3  C11 UNL     1      30.302 -36.034 -37.464  1.00  0.00     0.161 C
HETATM    4  N7  UNL     1      31.299 -36.358 -38.443  1.00  0.00    -0.130 N
HETATM    5  C20 UNL     1      32.032 -35.354 -39.123  1.00  0.00     0.364 C
HETATM    6  O1  UNL     1      32.703 -35.621 -40.179  1.00  0.00    -0.244 OA
HETATM    7  N11 UNL     1      32.030 -34.040 -38.646  1.00  0.00    -0.186 N
ENDROOT
BRANCH   1   8
HETATM    8  N6  UNL     1      30.427 -32.551 -37.732  1.00  0.00    -0.354 NA
BRANCH   8   9
HETATM    9  C8  UNL     1      29.577 -31.792 -38.059  1.00  0.00     0.276 A
HETATM   10  N5  UNL     1      28.317 -32.217 -38.444  1.00  0.00    -0.311 N
HETATM   11  C7  UNL     1      27.375 -31.346 -38.800  1.00  0.00     0.201 A
ATOM     12  H5  UNL     1      28.106 -33.216 -38.455  1.00  0.00     0.170 HD
HETATM   13  N4  UNL     1      27.571 -30.017 -38.812  1.00  0.00    -0.187 N
HETATM   14  C6  UNL     1      28.786 -29.565 -38.444  1.00  0.00     0.686 A
ATOM     15  H4  UNL     1      26.828 -29.375 -39.089  1.00  0.00     0.185 HD
HETATM   16  N13 UNL     1      29.735 -30.429 -38.087  1.00  0.00    -0.148 N
ATOM     17  H13 UNL     1      30.642 -30.051 -37.816  1.00  0.00     0.188 HD
BRANCH  14  18
HETATM   18  N3  UNL     1      28.966 -28.305 -38.439  1.00  0.00    -0.205 N
ATOM     19  H3  UNL     1      28.101 -27.769 -38.367  1.00  0.00     0.183 HD
BRANCH  18  20
HETATM   20  C5  UNL     1      30.111 -27.513 -38.512  1.00  0.00     0.084 C
BRANCH  20  21
HETATM   21  C4  UNL     1      30.354 -26.678 -37.275  1.00  0.00     0.092 C
BRANCH  21  22
HETATM   22  C3  UNL     1      30.400 -25.212 -37.655  1.00  0.00     0.006 A
HETATM   23  C2  UNL     1      29.646 -24.587 -38.610  1.00  0.00     0.105 A
HETATM   24  N2  UNL     1      29.828 -23.312 -38.802  1.00  0.00    -0.346 N
HETATM   25  C1  UNL     1      30.739 -22.685 -38.056  1.00  0.00     0.142 A
ATOM     26  H2  UNL     1      29.288 -22.807 -39.504  1.00  0.00     0.167 HD
HETATM   27  S3  UNL     1      31.352 -23.928 -37.062  1.00  0.00    -0.057 SA
BRANCH  25  28
HETATM   28  N1  UNL     1      31.089 -21.416 -38.079  1.00  0.00    -0.380 N
ATOM     29  H12 UNL     1      30.917 -20.729 -38.813  1.00  0.00     0.158 HD
ATOM     30  H11 UNL     1      31.593 -20.880 -37.372  1.00  0.00     0.158 HD
ENDBRANCH  25  28
ENDBRANCH  21  22
ENDBRANCH  20  21
ENDBRANCH  18  20
ENDBRANCH  14  18
ENDBRANCH   8   9
ENDBRANCH   1   8
BRANCH   7  31
HETATM   31  N12 UNL     1      32.846 -33.061 -39.277  1.00  0.00    -0.332 N
ATOM     32 2H12 UNL     1      33.105 -33.173 -40.257  1.00  0.00     0.177 HD
ATOM     33 1H12 UNL     1      33.161 -32.259 -38.731  1.00  0.00     0.177 HD
ENDBRANCH   7  31
BRANCH   4  34
HETATM   34  C12 UNL     1      31.560 -37.735 -38.734  1.00  0.00     0.690 A
HETATM   35  N8  UNL     1      31.192 -38.220 -39.888  1.00  0.00    -0.189 N
HETATM   36  C13 UNL     1      31.351 -39.510 -40.350  1.00  0.00     0.082 A
ATOM     37  H8  UNL     1      30.733 -37.568 -40.524  1.00  0.00     0.184 HD
HETATM   38  C14 UNL     1      31.969 -40.304 -39.442  1.00  0.00     0.078 A
HETATM   39  C18 UNL     1      30.986 -40.095 -41.561  1.00  0.00     0.017 A
HETATM   40  S1  UNL     1      32.075 -41.834 -40.182  1.00  0.00    -0.076 SA
HETATM   41  C19 UNL     1      32.372 -39.798 -38.199  1.00  0.00     0.134 A
HETATM   42  C15 UNL     1      31.316 -41.420 -41.656  1.00  0.00     0.058 A
HETATM   43  S2  UNL     1      30.789 -41.936 -43.199  1.00  0.00    -0.094 SA
HETATM   44  C16 UNL     1      30.147 -40.457 -43.722  1.00  0.00     0.052 A
HETATM   45  C17 UNL     1      30.357 -39.603 -42.689  1.00  0.00     0.023 A
HETATM   46  N10 UNL     1      32.171 -38.527 -37.843  1.00  0.00    -0.175 N
ATOM     47  H10 UNL     1      32.470 -38.175 -36.933  1.00  0.00     0.186 HD
BRANCH  41  48
HETATM   48  N9  UNL     1      32.957 -40.654 -37.413  1.00  0.00    -0.384 N
ATOM     49  H92 UNL     1      33.538 -40.361 -36.627  1.00  0.00     0.157 HD
ATOM     50  H91 UNL     1      32.795 -41.635 -37.638  1.00  0.00     0.157 HD
ENDBRANCH  41  48
ENDBRANCH   4  34
TORSDOF 10
ENDMDL