MODEL 5
REMARK VINA RESULT: -5.189629793      3.006      5.401
REMARK  7 active torsions:
REMARK  status: ('A' for Active; 'I' for Inactive)
REMARK    1  A    between atoms: O1_2  and  C2_3
REMARK    2  A    between atoms: C4_5  and  N1_6
REMARK    3  A    between atoms: N1_6  and  C5_8
REMARK    4  A    between atoms: C5_8  and  C6_9
REMARK    5  A    between atoms: C6_9  and  C7_10
REMARK    6  A    between atoms: C7_10  and  N2_11
REMARK    7  A    between atoms: C8_17  and  N4_18
ROOT
HETATM    1  C2  UNL     1      26.886  -7.345  15.921  1.00  0.00     0.160 A
HETATM    2  C3  UNL     1      27.135  -7.421  14.570  1.00  0.00     0.105 A
HETATM    3  C4  UNL     1      26.486  -6.579  13.686  1.00  0.00     0.120 A
HETATM    4  N3  UNL     1      25.617  -5.702  14.203  1.00  0.00    -0.177 N
ATOM      5  H3  UNL     1      25.131  -5.074  13.562  1.00  0.00     0.185 HD
HETATM    6  C8  UNL     1      25.347  -5.600  15.515  1.00  0.00     0.679 A
HETATM    7  N5  UNL     1      25.994  -6.431  16.351  1.00  0.00    -0.171 N
ATOM      8  H5  UNL     1      25.802  -6.367  17.351  1.00  0.00     0.186 HD
ENDROOT
BRANCH   3   9
HETATM    9  N1  UNL     1      26.721  -6.649  12.408  1.00  0.00    -0.376 N
ATOM     10  H1  UNL     1      26.997  -7.528  11.970  1.00  0.00     0.161 HD
BRANCH   9  11
HETATM   11  C5  UNL     1      26.578  -5.435  11.629  1.00  0.00     0.123 C
BRANCH  11  12
HETATM   12  C6  UNL     1      25.348  -5.622  10.737  1.00  0.00     0.047 C
BRANCH  12  13
HETATM   13  C7  UNL     1      24.455  -4.420  11.002  1.00  0.00     0.231 C
BRANCH  13  14
HETATM   14  N2  UNL     1      23.326  -4.746  11.822  1.00  0.00    -0.079 N
ATOM     15  H23 UNL     1      22.751  -3.923  12.001  1.00  0.00     0.274 HD
ATOM     16  H22 UNL     1      22.649  -5.310  11.307  1.00  0.00     0.274 HD
ATOM     17  H21 UNL     1      23.596  -5.203  12.694  1.00  0.00     0.274 HD
ENDBRANCH  13  14
ENDBRANCH  12  13
ENDBRANCH  11  12
ENDBRANCH   9  11
ENDBRANCH   3   9
BRANCH   1  18
HETATM   18  O1  UNL     1      27.555  -8.204  16.771  1.00  0.00    -0.340 OA
HETATM   19  C1  UNL     1      27.506  -9.585  16.561  1.00  0.00     0.211 C
ENDBRANCH   1  18
BRANCH   6  20
HETATM   20  N4  UNL     1      24.503  -4.744  15.988  1.00  0.00    -0.234 N
ATOM     21  H42 UNL     1      23.984  -4.962  16.838  1.00  0.00     0.174 HD
ATOM     22  H41 UNL     1      24.326  -3.843  15.545  1.00  0.00     0.174 HD
ENDBRANCH   6  20
TORSDOF 7
ENDMDL