MODEL 2
REMARK VINA RESULT: -5.539569504      3.502      5.007
REMARK  8 active torsions:
REMARK  status: ('A' for Active; 'I' for Inactive)
REMARK    1  A    between atoms: C2_2  and  C8_12
REMARK    2  A    between atoms: C3_3  and  C4_4
REMARK    3  A    between atoms: C4_4  and  C5_5
REMARK    4  A    between atoms: C8_12  and  O1_13
REMARK    5  A    between atoms: C8_12  and  C9_15
REMARK    6  A    between atoms: C9_15  and  N3_16
REMARK    7  A    between atoms: C9_15  and  C10_20
REMARK    8  A    between atoms: C10_20  and  N4_21
ROOT
HETATM    1  C8  UNL     1      24.974  -5.117  10.141  1.00  0.00     0.178 C
ENDROOT
BRANCH   1   2
HETATM    2  C2  UNL     1      26.246  -5.955  10.254  1.00  0.00    -0.053 C
HETATM    3  C1  UNL     1      26.571  -6.583   8.979  1.00  0.00     0.046 C
HETATM    4  C3  UNL     1      26.328  -6.662  11.506  1.00  0.00     0.009 C
BRANCH   4   5
HETATM    5  C4  UNL     1      26.418  -7.816  11.982  1.00  0.00     0.048 C
BRANCH   5   6
HETATM    6  C5  UNL     1      26.383  -8.481  13.264  1.00  0.00     0.096 C
HETATM    7  N1  UNL     1      26.467  -9.822  13.344  1.00  0.00    -0.375 N
HETATM    8  C6  UNL     1      26.419 -10.264  14.702  1.00  0.00     0.141 C
ATOM      9  H1  UNL     1      26.554 -10.443  12.539  1.00  0.00     0.161 HD
HETATM   10  C7  UNL     1      26.972  -9.011  15.431  1.00  0.00     0.141 C
HETATM   11  N2  UNL     1      26.225  -8.036  14.594  1.00  0.00    -0.375 N
ATOM     12  H2  UNL     1      25.706  -7.218  14.914  1.00  0.00     0.161 HD
ENDBRANCH   5   6
ENDBRANCH   4   5
ENDBRANCH   1   2
BRANCH   1  13
HETATM   13  O1  UNL     1      25.187  -4.179   9.104  1.00  0.00    -0.389 OA
ATOM     14  H1  UNL     1      24.448  -3.584   9.112  1.00  0.00     0.210 HD
ENDBRANCH   1  13
BRANCH   1  15
HETATM   15  C9  UNL     1      24.573  -4.371  11.349  1.00  0.00     0.241 C
BRANCH  15  16
HETATM   16  N3  UNL     1      23.236  -4.563  11.816  1.00  0.00    -0.071 N
ATOM     17  H33 UNL     1      22.890  -5.467  11.496  1.00  0.00     0.274 HD
ATOM     18  H32 UNL     1      23.246  -4.712  12.825  1.00  0.00     0.274 HD
ATOM     19  H31 UNL     1      22.556  -3.838  11.586  1.00  0.00     0.274 HD
ENDBRANCH  15  16
BRANCH  15  20
HETATM   20  C10 UNL     1      24.685  -2.874  11.020  1.00  0.00     0.265 C
BRANCH  20  21
HETATM   21  N4  UNL     1      23.423  -2.201  11.028  1.00  0.00    -0.077 N
ATOM     22  H43 UNL     1      23.163  -1.906  10.087  1.00  0.00     0.274 HD
ATOM     23  H42 UNL     1      22.664  -2.855  11.215  1.00  0.00     0.274 HD
ATOM     24  H41 UNL     1      23.392  -1.415  11.677  1.00  0.00     0.274 HD
ENDBRANCH  20  21
ENDBRANCH  15  20
ENDBRANCH   1  15
TORSDOF 8
ENDMDL