MODEL 2
REMARK VINA RESULT: -5.314683375      2.294      5.303
REMARK  7 active torsions:
REMARK  status: ('A' for Active; 'I' for Inactive)
REMARK    1  A    between atoms: N1_1  and  C1_5
REMARK    2  A    between atoms: C1_5  and  C2_6
REMARK    3  A    between atoms: C2_6  and  O1_7
REMARK    4  A    between atoms: O1_7  and  C3_8
REMARK    5  A    between atoms: C3_8  and  C4_9
REMARK    6  A    between atoms: C4_9  and  N2_10
REMARK    7  A    between atoms: N2_10  and  C5_12
ROOT
HETATM    1  C5  UNL     1      25.072  -6.796  15.606  1.00  0.00     0.182 C
HETATM    2  C6  UNL     1      25.000  -7.590  14.319  1.00  0.00     0.107 C
HETATM    3  C7  UNL     1      25.713  -8.840  14.702  1.00  0.00     0.057 A
HETATM    4  N3  UNL     1      25.874 -10.149  14.441  1.00  0.00    -0.303 N
ATOM      5  H3  UNL     1      25.372 -10.668  13.720  1.00  0.00     0.186 HD
HETATM    6  N4  UNL     1      26.788 -10.671  15.262  1.00  0.00    -0.309 N
ATOM      7  H4  UNL     1      27.103 -11.641  15.282  1.00  0.00     0.186 HD
HETATM    8  C8  UNL     1      27.220  -9.669  16.068  1.00  0.00     0.138 A
HETATM    9  C9  UNL     1      26.570  -8.500  15.750  1.00  0.00     0.071 A
HETATM   10  N5  UNL     1      26.410  -7.114  16.047  1.00  0.00    -0.366 N
ATOM     11  H5  UNL     1      27.090  -6.487  16.476  1.00  0.00     0.162 HD
ENDROOT
BRANCH   1  12
HETATM   12  N2  UNL     1      24.809  -5.407  15.421  1.00  0.00    -0.399 N
ATOM     13  H2  UNL     1      23.884  -5.003  15.569  1.00  0.00     0.155 HD
BRANCH  12  14
HETATM   14  C4  UNL     1      25.923  -4.624  15.018  1.00  0.00     0.142 C
BRANCH  14  15
HETATM   15  C3  UNL     1      25.588  -4.021  13.648  1.00  0.00     0.186 C
BRANCH  15  16
HETATM   16  O1  UNL     1      24.282  -4.317  13.295  1.00  0.00    -0.388 OA
BRANCH  16  17
HETATM   17  C2  UNL     1      24.142  -4.546  11.930  1.00  0.00     0.195 C
BRANCH  17  18
HETATM   18  C1  UNL     1      24.601  -3.333  11.140  1.00  0.00     0.255 C
BRANCH  18  19
HETATM   19  N1  UNL     1      23.533  -2.364  11.119  1.00  0.00    -0.077 N
ATOM     20  H13 UNL     1      23.605  -1.722  10.329  1.00  0.00     0.274 HD
ATOM     21  H12 UNL     1      22.633  -2.781  10.881  1.00  0.00     0.274 HD
ATOM     22  H11 UNL     1      23.513  -1.878  12.015  1.00  0.00     0.274 HD
ENDBRANCH  18  19
ENDBRANCH  17  18
ENDBRANCH  16  17
ENDBRANCH  15  16
ENDBRANCH  14  15
ENDBRANCH  12  14
ENDBRANCH   1  12
TORSDOF 7
ENDMDL