MODEL 1
REMARK VINA RESULT: -5.582755666      0.000      0.000
REMARK  7 active torsions:
REMARK  status: ('A' for Active; 'I' for Inactive)
REMARK    1  A    between atoms: N1_1  and  O1_4
REMARK    2  A    between atoms: O1_4  and  C1_5
REMARK    3  A    between atoms: C1_5  and  C2_6
REMARK    4  A    between atoms: C2_6  and  C3_7
REMARK    5  A    between atoms: C3_7  and  N2_8
REMARK    6  A    between atoms: N2_8  and  C4_11
REMARK    7  A    between atoms: C4_11  and  C5_12
ROOT
HETATM    1  N2  UNL     1      23.639  -4.823  12.534  1.00  0.00    -0.073 N
ATOM      2  H21 UNL     1      22.741  -5.277  12.703  1.00  0.00     0.277 HD
ATOM      3  H22 UNL     1      23.356  -3.890  12.835  1.00  0.00     0.277 HD
ENDROOT
BRANCH   1   4
HETATM    4  C3  UNL     1      24.080  -4.886  11.151  1.00  0.00     0.234 C
BRANCH   4   5
HETATM    5  C2  UNL     1      25.503  -4.416  10.982  1.00  0.00     0.056 C
BRANCH   5   6
HETATM    6  C1  UNL     1      25.410  -2.933  10.631  1.00  0.00     0.202 C
BRANCH   6   7
HETATM    7  O1  UNL     1      24.466  -2.277  11.376  1.00  0.00    -0.287 OA
BRANCH   7   8
HETATM    8  N1  UNL     1      25.135  -1.608  12.366  1.00  0.00    -0.311 N
ATOM      9  H12 UNL     1      25.858  -0.903  12.226  1.00  0.00     0.184 HD
ATOM     10  H11 UNL     1      24.769  -1.950  13.254  1.00  0.00     0.184 HD
ENDBRANCH   7   8
ENDBRANCH   6   7
ENDBRANCH   5   6
ENDBRANCH   4   5
ENDBRANCH   1   4
BRANCH   1  11
HETATM   11  C4  UNL     1      24.744  -5.386  13.309  1.00  0.00     0.258 C
BRANCH  11  12
HETATM   12  C5  UNL     1      25.180  -4.493  14.414  1.00  0.00     0.129 C
HETATM   13  C6  UNL     1      26.560  -4.796  14.943  1.00  0.00     0.159 C
HETATM   14  S1  UNL     1      25.797  -6.326  15.507  1.00  0.00     0.112 S
HETATM   15  O2  UNL     1      26.407  -6.865  16.974  1.00  0.00    -0.236 OA
HETATM   16  N3  UNL     1      24.677  -5.012  15.716  1.00  0.00    -0.334 N
ATOM     17  H3  UNL     1      23.988  -4.726  16.413  1.00  0.00     0.170 HD
ENDBRANCH  11  12
ENDBRANCH   1  11
TORSDOF 7
ENDMDL