MODEL 3
REMARK VINA RESULT: -5.336980753      1.239      1.255
REMARK  7 active torsions:
REMARK  status: ('A' for Active; 'I' for Inactive)
REMARK    1  A    between atoms: C3_8  and  N3_9
REMARK    2  A    between atoms: N4_13  and  C4_14
REMARK    3  A    between atoms: C4_14  and  C5_15
REMARK    4  A    between atoms: C5_15  and  C6_16
REMARK    5  A    between atoms: C6_16  and  C7_17
REMARK    6  A    between atoms: C7_17  and  O1_18
REMARK    7  A    between atoms: O1_18  and  N5_19
ROOT
HETATM    1  N1  UNL     1      24.766  -4.610  15.681  1.00  0.00    -0.371 N
ATOM      2  H11 UNL     1      24.392  -3.934  15.016  1.00  0.00     0.159 HD
ATOM      3  H12 UNL     1      24.717  -4.171  16.600  1.00  0.00     0.159 HD
HETATM    4  C1  UNL     1      25.221  -5.789  15.466  1.00  0.00     0.172 C
HETATM    5  N2  UNL     1      25.747  -6.738  16.400  1.00  0.00    -0.359 N
ATOM      6  H2  UNL     1      25.499  -6.810  17.387  1.00  0.00     0.162 HD
HETATM    7  C2  UNL     1      26.695  -7.580  15.695  1.00  0.00     0.177 C
HETATM    8  C3  UNL     1      26.209  -7.541  14.271  1.00  0.00     0.304 C
HETATM    9  N4  UNL     1      25.289  -6.400  14.187  1.00  0.00    -0.324 N
ENDROOT
BRANCH   9  10
HETATM   10  C4  UNL     1      24.630  -6.068  12.951  1.00  0.00     0.128 C
BRANCH  10  11
HETATM   11  C5  UNL     1      25.555  -5.854  11.806  1.00  0.00     0.022 C
BRANCH  11  12
HETATM   12  C6  UNL     1      24.806  -5.017  10.761  1.00  0.00     0.030 C
BRANCH  12  13
HETATM   13  C7  UNL     1      25.022  -3.563  11.168  1.00  0.00     0.200 C
BRANCH  13  14
HETATM   14  O1  UNL     1      24.315  -2.702  10.322  1.00  0.00    -0.287 OA
BRANCH  14  15
HETATM   15  N5  UNL     1      23.423  -2.000  11.059  1.00  0.00    -0.311 N
ATOM     16  H52 UNL     1      22.856  -1.229  10.707  1.00  0.00     0.184 HD
ATOM     17  H51 UNL     1      23.420  -2.369  12.010  1.00  0.00     0.184 HD
ENDBRANCH  14  15
ENDBRANCH  13  14
ENDBRANCH  12  13
ENDBRANCH  11  12
ENDBRANCH  10  11
ENDBRANCH   9  10
BRANCH   8  18
HETATM   18  N3  UNL     1      25.562  -8.783  13.959  1.00  0.00    -0.057 N
ATOM     19  H33 UNL     1      25.755  -9.092  13.007  1.00  0.00     0.276 HD
ATOM     20  H32 UNL     1      25.979  -9.571  14.454  1.00  0.00     0.276 HD
ATOM     21  H31 UNL     1      24.562  -8.696  14.142  1.00  0.00     0.276 HD
ENDBRANCH   8  18
TORSDOF 7
ENDMDL