MODEL 2
REMARK VINA RESULT: -5.456549864      1.264      1.621
REMARK  6 active torsions:
REMARK  status: ('A' for Active; 'I' for Inactive)
REMARK    1  A    between atoms: S1_2  and  C2_4
REMARK    2  A    between atoms: C2_4  and  N1_5
REMARK    3  A    between atoms: N1_5  and  C3_7
REMARK    4  A    between atoms: C3_7  and  C4_8
REMARK    5  A    between atoms: C4_8  and  C5_9
REMARK    6  A    between atoms: C6_12  and  N4_13
ROOT
HETATM    1  C5  UNL     1      26.198  -3.017  10.442  1.00  0.00     0.144 C
HETATM    2  N2  UNL     1      24.775  -2.921  10.120  1.00  0.00    -0.138 NA
HETATM    3  N3  UNL     1      25.185  -3.019   8.761  1.00  0.00    -0.113 NA
HETATM    4  C6  UNL     1      26.180  -3.972   9.243  1.00  0.00     0.311 C
ENDROOT
BRANCH   1   5
HETATM    5  C4  UNL     1      26.531  -3.754  11.704  1.00  0.00     0.045 C
BRANCH   5   6
HETATM    6  C3  UNL     1      25.586  -3.416  12.820  1.00  0.00     0.116 C
BRANCH   6   7
HETATM    7  N1  UNL     1      24.512  -4.350  12.911  1.00  0.00    -0.411 N
ATOM      8  H1  UNL     1      23.551  -4.101  12.676  1.00  0.00     0.154 HD
BRANCH   7   9
HETATM    9  C2  UNL     1      24.879  -5.659  13.353  1.00  0.00     0.222 C
BRANCH   9  10
HETATM   10  S1  UNL     1      25.493  -5.650  15.020  1.00  0.00     0.028 S
HETATM   11  C1  UNL     1      25.697  -7.326  15.625  1.00  0.00     0.129 C
HETATM   12  O1  UNL     1      24.359  -4.922  16.049  1.00  0.00    -0.257 OA
ENDBRANCH   9  10
ENDBRANCH   7   9
ENDBRANCH   6   7
ENDBRANCH   5   6
ENDBRANCH   1   5
BRANCH   4  13
HETATM   13  N4  UNL     1      25.516  -5.223   9.600  1.00  0.00    -0.058 N
ATOM     14  H43 UNL     1      26.153  -5.874  10.060  1.00  0.00     0.276 HD
ATOM     15  H42 UNL     1      24.852  -5.096  10.365  1.00  0.00     0.276 HD
ATOM     16  H41 UNL     1      25.075  -5.638   8.779  1.00  0.00     0.276 HD
ENDBRANCH   4  13
TORSDOF 6
ENDMDL