MODEL 2
REMARK VINA RESULT: -5.402154152      1.229      1.566
REMARK  7 active torsions:
REMARK  status: ('A' for Active; 'I' for Inactive)
REMARK    1  A    between atoms: N1_1  and  C1_5
REMARK    2  A    between atoms: C1_5  and  C2_6
REMARK    3  A    between atoms: C2_6  and  C3_7
REMARK    4  A    between atoms: C3_7  and  N2_8
REMARK    5  A    between atoms: C7_12  and  C8_13
REMARK    6  A    between atoms: C8_13  and  N3_14
REMARK    7  A    between atoms: N3_14  and  N4_15
ROOT
HETATM    1  N2  UNL     1      24.888  -7.132  13.431  1.00  0.00    -0.234 NA
HETATM    2  C4  UNL     1      26.080  -7.636  12.858  1.00  0.00     0.109 C
HETATM    3  C5  UNL     1      26.279  -7.313  11.408  1.00  0.00     0.018 C
HETATM    4  C6  UNL     1      25.851  -5.914  11.039  1.00  0.00     0.025 C
HETATM    5  C7  UNL     1      25.514  -5.197  12.331  1.00  0.00     0.110 C
HETATM    6  N5  UNL     1      24.437  -5.930  12.953  1.00  0.00    -0.159 NA
ENDROOT
BRANCH   1   7
HETATM    7  C3  UNL     1      25.086  -7.005  14.875  1.00  0.00     0.111 C
BRANCH   7   8
HETATM    8  C2  UNL     1      26.340  -6.273  15.198  1.00  0.00     0.043 C
BRANCH   8   9
HETATM    9  C1  UNL     1      26.012  -4.965  15.868  1.00  0.00     0.231 C
BRANCH   9  10
HETATM   10  N1  UNL     1      24.631  -4.631  15.785  1.00  0.00    -0.079 N
ATOM     11  H13 UNL     1      24.248  -4.888  14.875  1.00  0.00     0.274 HD
ATOM     12  H12 UNL     1      24.072  -5.243  16.380  1.00  0.00     0.274 HD
ATOM     13  H11 UNL     1      24.447  -3.650  15.993  1.00  0.00     0.274 HD
ENDBRANCH   9  10
ENDBRANCH   8   9
ENDBRANCH   7   8
ENDBRANCH   1   7
BRANCH   5  14
HETATM   14  C8  UNL     1      25.120  -3.781  11.987  1.00  0.00     0.156 C
BRANCH  14  15
HETATM   15  N3  UNL     1      25.414  -2.852  13.044  1.00  0.00    -0.147 NA
BRANCH  15  16
HETATM   16  N4  UNL     1      25.167  -1.558  12.581  1.00  0.00    -0.348 N
ATOM     17  H42 UNL     1      24.648  -1.331  11.732  1.00  0.00     0.172 HD
ATOM     18  H41 UNL     1      25.589  -0.895  13.230  1.00  0.00     0.172 HD
ENDBRANCH  15  16
ENDBRANCH  14  15
ENDBRANCH   5  14
TORSDOF 7
ENDMDL