MODEL 2
REMARK VINA RESULT: -4.677816279      0.865      1.037
REMARK  6 active torsions:
REMARK  status: ('A' for Active; 'I' for Inactive)
REMARK    1  A    between atoms: C3_6  and  C4_7
REMARK    2  A    between atoms: C4_7  and  N2_8
REMARK    3  A    between atoms: N2_8  and  C5_11
REMARK    4  A    between atoms: C5_11  and  C6_12
REMARK    5  A    between atoms: C6_12  and  C7_13
REMARK    6  A    between atoms: C7_13  and  N3_14
ROOT
HETATM    1  C4  UNL     1      25.829  -4.765  15.536  1.00  0.00     0.293 C
ENDROOT
BRANCH   1   2
HETATM    2  C3  UNL     1      25.932  -4.536  14.074  1.00  0.00     0.347 C
HETATM    3  N1  UNL     1      24.579  -4.550  13.449  1.00  0.00    -0.041 N
HETATM    4  C2  UNL     1      25.022  -4.463  12.048  1.00  0.00     0.213 C
ATOM      5  H12 UNL     1      23.915  -3.845  13.769  1.00  0.00     0.280 HD
ATOM      6  H11 UNL     1      23.965  -5.327  13.693  1.00  0.00     0.280 HD
HETATM    7  C1  UNL     1      23.934  -4.673  11.083  1.00  0.00     0.043 C
HETATM    8  C8  UNL     1      26.217  -5.315  12.007  1.00  0.00     0.150 C
HETATM    9  O1  UNL     1      26.619  -5.467  13.348  1.00  0.00    -0.351 OA
HETATM   10  C9  UNL     1      26.128  -6.661  11.411  1.00  0.00     0.042 C
ENDBRANCH   1   2
BRANCH   1  11
HETATM   11  N2  UNL     1      24.750  -5.693  15.812  1.00  0.00    -0.071 N
ATOM     12  H22 UNL     1      24.289  -5.483  16.697  1.00  0.00     0.277 HD
ATOM     13  H21 UNL     1      23.958  -5.545  15.187  1.00  0.00     0.277 HD
BRANCH  11  14
HETATM   14  C5  UNL     1      25.214  -7.046  15.766  1.00  0.00     0.234 C
BRANCH  14  15
HETATM   15  C6  UNL     1      26.529  -7.259  16.497  1.00  0.00     0.055 C
BRANCH  15  16
HETATM   16  C7  UNL     1      27.457  -8.120  15.657  1.00  0.00     0.231 C
BRANCH  16  17
HETATM   17  N3  UNL     1      28.516  -7.250  15.133  1.00  0.00    -0.079 N
ATOM     18  H33 UNL     1      28.247  -6.267  15.110  1.00  0.00     0.274 HD
ATOM     19  H32 UNL     1      29.307  -7.159  15.770  1.00  0.00     0.274 HD
ATOM     20  H31 UNL     1      28.784  -7.609  14.216  1.00  0.00     0.274 HD
ENDBRANCH  16  17
ENDBRANCH  15  16
ENDBRANCH  14  15
ENDBRANCH  11  14
ENDBRANCH   1  11
TORSDOF 6
ENDMDL