MODEL 1
REMARK VINA RESULT: -5.353796163      0.000      0.000
REMARK  7 active torsions:
REMARK  status: ('A' for Active; 'I' for Inactive)
REMARK    1  A    between atoms: N1_2  and  N2_3
REMARK    2  A    between atoms: N1_2  and  C2_6
REMARK    3  A    between atoms: C2_6  and  C3_7
REMARK    4  A    between atoms: C3_7  and  C4_8
REMARK    5  A    between atoms: C4_8  and  O1_9
REMARK    6  A    between atoms: O1_9  and  C5_10
REMARK    7  A    between atoms: C6_16  and  N5_17
ROOT
HETATM    1  C5  UNL     1      26.192  -5.927  14.235  1.00  0.00     0.172 A
HETATM    2  S1  UNL     1      25.661  -4.373  14.684  1.00  0.00     0.031 SA
HETATM    3  N3  UNL     1      24.600  -4.813  15.914  1.00  0.00    -0.266 N
ATOM      4  H3  UNL     1      24.027  -4.203  16.499  1.00  0.00     0.195 HD
HETATM    5  N4  UNL     1      24.679  -6.110  15.946  1.00  0.00    -0.277 N
ATOM      6  H4  UNL     1      24.127  -6.646  16.615  1.00  0.00     0.189 HD
HETATM    7  C6  UNL     1      25.485  -6.726  15.100  1.00  0.00     0.156 A
ENDROOT
BRANCH   1   8
HETATM    8  O1  UNL     1      27.112  -6.334  13.242  1.00  0.00    -0.340 OA
BRANCH   8   9
HETATM    9  C4  UNL     1      27.009  -5.849  11.918  1.00  0.00     0.178 C
BRANCH   9  10
HETATM   10  C3  UNL     1      25.683  -6.272  11.327  1.00  0.00     0.048 C
BRANCH  10  11
HETATM   11  C2  UNL     1      25.144  -5.239  10.369  1.00  0.00     0.143 C
BRANCH  11  12
HETATM   12  N1  UNL     1      24.254  -4.310  10.955  1.00  0.00    -0.339 N
HETATM   13  C1  UNL     1      24.705  -2.983  11.145  1.00  0.00     0.170 C
BRANCH  12  14
HETATM   14  N2  UNL     1      23.364  -4.794  11.863  1.00  0.00    -0.348 N
ATOM     15  H22 UNL     1      22.443  -4.356  11.889  1.00  0.00     0.176 HD
ATOM     16  H21 UNL     1      23.431  -5.785  12.093  1.00  0.00     0.176 HD
ENDBRANCH  12  14
ENDBRANCH  11  12
ENDBRANCH  10  11
ENDBRANCH   9  10
ENDBRANCH   8   9
ENDBRANCH   1   8
BRANCH   7  17
HETATM   17  N5  UNL     1      25.647  -8.046  15.050  1.00  0.00    -0.382 N
ATOM     18  H52 UNL     1      26.151  -8.533  14.309  1.00  0.00     0.157 HD
ATOM     19  H51 UNL     1      25.246  -8.627  15.786  1.00  0.00     0.157 HD
ENDBRANCH   7  17
TORSDOF 7
ENDMDL