MODEL 5
REMARK VINA RESULT: -5.191933389      1.611      2.163
REMARK  8 active torsions:
REMARK  status: ('A' for Active; 'I' for Inactive)
REMARK    1  A    between atoms: N1_1  and  C1_5
REMARK    2  A    between atoms: C1_5  and  C2_6
REMARK    3  A    between atoms: C2_6  and  C3_7
REMARK    4  A    between atoms: C3_7  and  C4_8
REMARK    5  A    between atoms: C4_8  and  N2_9
REMARK    6  A    between atoms: C4_8  and  C5_13
REMARK    7  A    between atoms: N3_14  and  N4_16
REMARK    8  A    between atoms: N4_16  and  C6_18
ROOT
HETATM    1  C5  UNL     1      24.807  -2.812  11.589  1.00  0.00     0.113 C
HETATM    2  N3  UNL     1      25.534  -2.577  12.621  1.00  0.00    -0.299 N
ATOM      3  H3  UNL     1      25.530  -1.650  13.048  1.00  0.00     0.186 HD
ENDROOT
BRANCH   1   4
HETATM    4  C4  UNL     1      24.796  -4.147  10.955  1.00  0.00     0.223 C
BRANCH   4   5
HETATM    5  C3  UNL     1      25.243  -4.030   9.537  1.00  0.00     0.040 C
BRANCH   5   6
HETATM    6  C2  UNL     1      26.734  -4.083   9.453  1.00  0.00     0.029 C
BRANCH   6   7
HETATM    7  C1  UNL     1      27.323  -2.785   8.954  1.00  0.00     0.230 C
BRANCH   7   8
HETATM    8  N1  UNL     1      27.943  -2.020   9.990  1.00  0.00    -0.079 N
ATOM      9  H13 UNL     1      28.496  -2.619  10.604  1.00  0.00     0.274 HD
ATOM     10  H12 UNL     1      28.689  -1.434   9.615  1.00  0.00     0.274 HD
ATOM     11  H11 UNL     1      27.277  -1.463  10.526  1.00  0.00     0.274 HD
ENDBRANCH   7   8
ENDBRANCH   6   7
ENDBRANCH   5   6
ENDBRANCH   4   5
BRANCH   4  12
HETATM   12  N2  UNL     1      23.516  -4.816  11.094  1.00  0.00    -0.070 N
ATOM     13  H23 UNL     1      22.899  -4.295  11.717  1.00  0.00     0.275 HD
ATOM     14  H22 UNL     1      22.977  -4.752  10.231  1.00  0.00     0.275 HD
ATOM     15  H21 UNL     1      23.603  -5.786  11.398  1.00  0.00     0.275 HD
ENDBRANCH   4  12
ENDBRANCH   1   4
BRANCH   2  16
HETATM   16  N4  UNL     1      26.317  -3.577  13.151  1.00  0.00    -0.131 N
ATOM     17  H4  UNL     1      27.235  -3.748  12.742  1.00  0.00     0.205 HD
BRANCH  16  18
HETATM   18  C6  UNL     1      25.933  -4.313  14.154  1.00  0.00     0.712 A
HETATM   19  N5  UNL     1      26.559  -5.374  14.696  1.00  0.00    -0.184 N
HETATM   20  C7  UNL     1      25.789  -5.828  15.724  1.00  0.00     0.215 A
ATOM     21  H5  UNL     1      27.450  -5.767  14.392  1.00  0.00     0.185 HD
HETATM   22  N6  UNL     1      24.695  -5.050  15.813  1.00  0.00    -0.281 N
HETATM   23  N7  UNL     1      24.802  -4.143  14.857  1.00  0.00    -0.130 N
ATOM     24  H6  UNL     1      23.933  -5.142  16.484  1.00  0.00     0.188 HD
ATOM     25  H7  UNL     1      24.116  -3.410  14.677  1.00  0.00     0.205 HD
ENDBRANCH  16  18
ENDBRANCH   2  16
TORSDOF 8
ENDMDL