MODEL 1
REMARK VINA RESULT: -3.402136922      0.000      0.000
REMARK  2 active torsions:
REMARK  status: ('A' for Active; 'I' for Inactive)
REMARK    1  A    between atoms: C11_16  and  C12_17
REMARK    2  A    between atoms: C13_18  and  C14_19
ROOT
HETATM    1  N1  UNL     1      29.841   1.959   4.412  1.00  0.00    -0.191 NA
HETATM    2  C1  UNL     1      28.834   2.510   4.353  1.00  0.00     0.100 C
HETATM    3  C2  UNL     1      27.645   3.268   4.300  1.00  0.00     0.060 A
HETATM    4  C3  UNL     1      27.753   4.660   4.533  1.00  0.00     0.054 A
HETATM    5  C4  UNL     1      26.675   5.501   4.508  1.00  0.00     0.044 A
HETATM    6  N2  UNL     1      26.584   6.828   4.704  1.00  0.00    -0.365 N
ATOM      7  H2  UNL     1      27.369   7.445   4.913  1.00  0.00     0.165 HD
HETATM    8  C5  UNL     1      25.309   7.219   4.581  1.00  0.00     0.089 A
HETATM    9  C6  UNL     1      24.573   6.081   4.297  1.00  0.00     0.031 A
HETATM   10  C7  UNL     1      25.447   5.010   4.255  1.00  0.00     0.003 A
HETATM   11  C8  UNL     1      25.286   3.661   4.020  1.00  0.00    -0.008 A
HETATM   12  C9  UNL     1      24.042   3.181   3.766  1.00  0.00     0.030 A
HETATM   13  C10 UNL     1      23.852   1.856   3.532  1.00  0.00     0.090 A
HETATM   14  N3  UNL     1      24.897   1.061   3.559  1.00  0.00    -0.358 N
ATOM     15  H3  UNL     1      24.748   0.068   3.382  1.00  0.00     0.166 HD
HETATM   16  C11 UNL     1      26.188   1.487   3.811  1.00  0.00     0.099 A
HETATM   17  C20 UNL     1      26.402   2.785   4.045  1.00  0.00     0.031 A
ENDROOT
BRANCH  16  18
HETATM   18  C12 UNL     1      27.175   0.458   3.792  1.00  0.00    -0.042 C
HETATM   19  C13 UNL     1      28.013  -0.388   3.688  1.00  0.00    -0.060 C
BRANCH  19  20
HETATM   20  C14 UNL     1      29.037  -1.411   3.531  1.00  0.00     0.018 A
HETATM   21  C15 UNL     1      28.740  -2.763   3.698  1.00  0.00     0.020 A
HETATM   22  C16 UNL     1      29.708  -3.734   3.550  1.00  0.00     0.001 A
HETATM   23  C17 UNL     1      31.005  -3.401   3.229  1.00  0.00     0.000 A
HETATM   24  C18 UNL     1      31.318  -2.069   3.060  1.00  0.00     0.001 A
HETATM   25  C19 UNL     1      30.342  -1.105   3.210  1.00  0.00     0.020 A
ENDBRANCH  19  20
ENDBRANCH  16  18
TORSDOF 2
ENDMDL