MODEL 2
REMARK VINA RESULT: 6.672798953      3.750      6.905
REMARK  2 active torsions:
REMARK  status: ('A' for Active; 'I' for Inactive)
REMARK    1  A    between atoms: C9_12  and  C10_13
REMARK    2  A    between atoms: C11_14  and  C12_15
ROOT
HETATM    1  N1  UNL     1      28.863   0.857   7.296  1.00  0.00    -0.191 NA
HETATM    2  C1  UNL     1      28.393   1.491   6.452  1.00  0.00     0.099 C
HETATM    3  C2  UNL     1      27.822   2.269   5.385  1.00  0.00     0.045 A
HETATM    4  C3  UNL     1      27.871   1.782   4.100  1.00  0.00     0.025 A
HETATM    5  C4  UNL     1      27.346   2.469   3.030  1.00  0.00     0.032 A
HETATM    6  C5  UNL     1      26.751   3.683   3.236  1.00  0.00     0.043 A
HETATM    7  N2  UNL     1      26.151   4.589   2.404  1.00  0.00    -0.355 N
ATOM      8  H2  UNL     1      26.049   4.477   1.395  1.00  0.00     0.166 HD
HETATM    9  C6  UNL     1      25.715   5.646   3.108  1.00  0.00     0.043 A
HETATM   10  C7  UNL     1      25.054   6.798   2.700  1.00  0.00     0.032 A
HETATM   11  C8  UNL     1      24.739   7.709   3.685  1.00  0.00     0.023 A
HETATM   12  C9  UNL     1      25.060   7.493   5.005  1.00  0.00     0.019 A
HETATM   13  C17 UNL     1      25.714   6.346   5.390  1.00  0.00     0.035 A
HETATM   14  C18 UNL     1      26.048   5.404   4.423  1.00  0.00     0.004 A
HETATM   15  C19 UNL     1      26.693   4.186   4.520  1.00  0.00     0.005 A
HETATM   16  C20 UNL     1      27.222   3.493   5.594  1.00  0.00     0.037 A
ENDROOT
BRANCH  12  17
HETATM   17  C10 UNL     1      24.728   8.451   6.035  1.00  0.00    -0.060 C
HETATM   18  C11 UNL     1      24.455   9.270   6.888  1.00  0.00    -0.043 C
BRANCH  18  19
HETATM   19  C12 UNL     1      24.136  10.264   7.889  1.00  0.00     0.086 A
HETATM   20  C13 UNL     1      24.168  11.604   7.610  1.00  0.00     0.039 A
HETATM   21  C14 UNL     1      23.865  12.544   8.561  1.00  0.00     0.004 A
HETATM   22  C15 UNL     1      23.520  12.094   9.827  1.00  0.00     0.017 A
HETATM   23  C16 UNL     1      23.490  10.744  10.098  1.00  0.00     0.089 A
HETATM   24  N3  UNL     1      23.797   9.875   9.126  1.00  0.00    -0.359 N
ATOM     25  H3  UNL     1      23.772   8.877   9.335  1.00  0.00     0.166 HD
ENDBRANCH  18  19
ENDBRANCH  12  17
TORSDOF 2
ENDMDL