MODEL 3
REMARK VINA RESULT: -1.552839602      1.693      3.764
REMARK  1 active torsions:
REMARK  status: ('A' for Active; 'I' for Inactive)
REMARK    1  A    between atoms: C4_5  and  C5_6
ROOT
HETATM    1  C5  UNL     1      26.582   1.064   3.740  1.00  0.00     0.024 C
HETATM    2  C6  UNL     1      26.584   2.206   4.321  1.00  0.00    -0.010 A
HETATM    3  C7  UNL     1      25.362   3.068   4.237  1.00  0.00     0.002 A
HETATM    4  C8  UNL     1      24.276   2.672   3.530  1.00  0.00     0.014 A
HETATM    5  C9  UNL     1      23.113   3.451   3.424  1.00  0.00     0.001 A
HETATM    6  C10 UNL     1      23.112   4.654   4.075  1.00  0.00     0.002 A
HETATM    7  C11 UNL     1      24.168   5.111   4.801  1.00  0.00     0.030 A
HETATM    8  C12 UNL     1      25.302   4.297   4.876  1.00  0.00     0.043 A
HETATM    9  N2  UNL     1      26.398   4.772   5.627  1.00  0.00    -0.355 N
ATOM     10  H2  UNL     1      26.340   5.679   6.090  1.00  0.00     0.166 HD
HETATM   11  C13 UNL     1      27.571   4.003   5.741  1.00  0.00     0.043 A
HETATM   12  C14 UNL     1      28.586   4.491   6.491  1.00  0.00     0.030 A
HETATM   13  C15 UNL     1      29.764   3.795   6.679  1.00  0.00     0.002 A
HETATM   14  C16 UNL     1      29.904   2.588   6.091  1.00  0.00     0.001 A
HETATM   15  C17 UNL     1      28.861   2.078   5.313  1.00  0.00     0.014 A
HETATM   16  C18 UNL     1      27.674   2.771   5.121  1.00  0.00     0.002 A
ENDROOT
BRANCH   1  17
HETATM   17  C4  UNL     1      27.433  -0.060   3.521  1.00  0.00    -0.033 A
HETATM   18  C3  UNL     1      28.489  -0.079   2.635  1.00  0.00     0.028 A
HETATM   19  C2  UNL     1      29.305  -1.173   2.576  1.00  0.00     0.090 A
HETATM   20  N1  UNL     1      29.106  -2.235   3.363  1.00  0.00    -0.371 N
HETATM   21  C1  UNL     1      29.975  -3.379   3.277  1.00  0.00     0.154 C
HETATM   22  C20 UNL     1      28.087  -2.275   4.251  1.00  0.00     0.090 A
HETATM   23  C19 UNL     1      27.246  -1.191   4.336  1.00  0.00     0.028 A
ENDBRANCH   1  17
TORSDOF 1
ENDMDL