MODEL 4
REMARK VINA RESULT: 1.619059480      1.569      1.690
REMARK  2 active torsions:
REMARK  status: ('A' for Active; 'I' for Inactive)
REMARK    1  A    between atoms: C11_17  and  C12_18
REMARK    2  A    between atoms: C13_19  and  C14_20
ROOT
HETATM    1  C1  UNL     1      25.315  -0.238   5.633  1.00  0.00     0.070 C
HETATM    2  C2  UNL     1      25.209   1.191   5.272  1.00  0.00     0.026 A
HETATM    3  N1  UNL     1      24.200   1.954   5.713  1.00  0.00    -0.367 N
ATOM      4  H1  UNL     1      23.479   1.555   6.313  1.00  0.00     0.165 HD
HETATM    5  C3  UNL     1      24.142   3.251   5.358  1.00  0.00     0.102 A
HETATM    6  C4  UNL     1      25.083   3.848   4.552  1.00  0.00     0.021 A
HETATM    7  C5  UNL     1      26.130   3.078   4.088  1.00  0.00     0.066 A
HETATM    8  N2  UNL     1      26.901   3.876   3.333  1.00  0.00    -0.353 N
ATOM      9  H2  UNL     1      27.751   3.564   2.863  1.00  0.00     0.166 HD
HETATM   10  C6  UNL     1      26.428   5.131   3.268  1.00  0.00     0.046 A
HETATM   11  C7  UNL     1      26.816   6.302   2.655  1.00  0.00     0.047 A
HETATM   12  C8  UNL     1      26.073   7.446   2.804  1.00  0.00     0.090 A
HETATM   13  N3  UNL     1      24.961   7.401   3.557  1.00  0.00    -0.374 N
ATOM     14  H3  UNL     1      24.406   8.250   3.669  1.00  0.00     0.164 HD
HETATM   15  C9  UNL     1      24.560   6.288   4.160  1.00  0.00     0.102 A
HETATM   16  C10 UNL     1      25.268   5.116   4.044  1.00  0.00     0.020 A
HETATM   17  C11 UNL     1      26.181   1.732   4.462  1.00  0.00     0.067 A
ENDROOT
BRANCH  17  18
HETATM   18  C12 UNL     1      27.274   0.930   3.976  1.00  0.00    -0.057 C
HETATM   19  C13 UNL     1      28.181   0.240   3.577  1.00  0.00    -0.061 C
BRANCH  19  20
HETATM   20  C14 UNL     1      29.273  -0.577   3.113  1.00  0.00     0.018 A
HETATM   21  C15 UNL     1      29.478  -1.817   3.729  1.00  0.00     0.020 A
HETATM   22  C16 UNL     1      30.518  -2.580   3.276  1.00  0.00     0.001 A
HETATM   23  C17 UNL     1      31.368  -2.204   2.260  1.00  0.00     0.000 A
HETATM   24  C18 UNL     1      31.147  -0.977   1.669  1.00  0.00     0.001 A
HETATM   25  C19 UNL     1      30.112  -0.186   2.099  1.00  0.00     0.020 A
ENDBRANCH  19  20
ENDBRANCH  17  18
TORSDOF 2
ENDMDL