MODEL 4
REMARK VINA RESULT: 6.710702803      1.529      8.863
REMARK  2 active torsions:
REMARK  status: ('A' for Active; 'I' for Inactive)
REMARK    1  A    between atoms: C7_8  and  C8_9
REMARK    2  A    between atoms: C9_10  and  C10_11
ROOT
HETATM    1  N1  UNL     1      31.039  -4.566   3.405  1.00  0.00    -0.191 NA
HETATM    2  C1  UNL     1      30.480  -3.542   3.492  1.00  0.00     0.102 C
HETATM    3  C2  UNL     1      29.812  -2.269   3.599  1.00  0.00     0.072 A
HETATM    4  C3  UNL     1      30.651  -1.193   3.398  1.00  0.00     0.026 A
HETATM    5  C4  UNL     1      30.320   0.153   3.434  1.00  0.00     0.014 A
HETATM    6  C5  UNL     1      29.098   0.762   3.589  1.00  0.00    -0.024 A
HETATM    7  C6  UNL     1      28.813   2.110   3.533  1.00  0.00     0.032 A
HETATM    8  C7  UNL     1      27.457   2.327   3.740  1.00  0.00     0.019 A
HETATM    9  C15 UNL     1      26.886   1.086   3.927  1.00  0.00     0.034 A
HETATM   10  C16 UNL     1      27.841   0.096   3.845  1.00  0.00    -0.012 A
HETATM   11  C17 UNL     1      27.594  -1.253   3.988  1.00  0.00     0.004 A
HETATM   12  C18 UNL     1      26.367  -1.810   4.279  1.00  0.00     0.031 A
HETATM   13  C19 UNL     1      26.481  -3.189   4.350  1.00  0.00     0.089 A
HETATM   14  N3  UNL     1      27.769  -3.467   4.103  1.00  0.00    -0.364 N
ATOM     15  H3  UNL     1      28.168  -4.405   4.084  1.00  0.00     0.165 HD
HETATM   16  C20 UNL     1      28.461  -2.333   3.883  1.00  0.00     0.064 A
ENDROOT
BRANCH   8  17
HETATM   17  C8  UNL     1      26.785   3.609   3.753  1.00  0.00    -0.061 C
HETATM   18  C9  UNL     1      26.234   4.688   3.780  1.00  0.00    -0.060 C
BRANCH  18  19
HETATM   19  C10 UNL     1      25.597   5.971   3.832  1.00  0.00     0.033 A
HETATM   20  C11 UNL     1      25.386   6.760   2.705  1.00  0.00     0.023 A
HETATM   21  C12 UNL     1      24.769   7.991   2.788  1.00  0.00     0.019 A
HETATM   22  C13 UNL     1      24.366   8.414   4.036  1.00  0.00     0.087 A
HETATM   23  N2  UNL     1      24.575   7.645   5.124  1.00  0.00    -0.374 N
HETATM   24  C14 UNL     1      25.175   6.443   5.056  1.00  0.00     0.108 A
ATOM     25  H2  UNL     1      24.265   7.989   6.034  1.00  0.00     0.164 HD
ENDBRANCH  18  19
ENDBRANCH   8  17
TORSDOF 2
ENDMDL