MODEL 5
REMARK VINA RESULT: 3.572435634      1.933      6.600
REMARK  0 active torsions:
REMARK  status: ('A' for Active; 'I' for Inactive)
ROOT
HETATM    1  C1  UNL     1      30.877  -0.191   7.121  1.00  0.00     0.068 C
HETATM    2  C2  UNL     1      29.675   0.166   6.320  1.00  0.00     0.008 A
HETATM    3  C3  UNL     1      28.805  -0.753   5.768  1.00  0.00     0.056 A
HETATM    4  C4  UNL     1      27.843   0.016   5.115  1.00  0.00     0.064 A
HETATM    5  C5  UNL     1      28.139   1.352   5.279  1.00  0.00     0.088 A
HETATM    6  N1  UNL     1      29.256   1.416   6.014  1.00  0.00    -0.356 N
ATOM      7  H1  UNL     1      29.722   2.277   6.301  1.00  0.00     0.166 HD
HETATM    8  C6  UNL     1      27.439   2.557   4.789  1.00  0.00     0.090 A
HETATM    9  N2  UNL     1      28.042   3.683   5.189  1.00  0.00    -0.351 N
ATOM     10  H2  UNL     1      28.884   3.660   5.764  1.00  0.00     0.166 HD
HETATM   11  C7  UNL     1      27.481   4.864   4.794  1.00  0.00     0.059 A
HETATM   12  C8  UNL     1      28.073   6.064   5.186  1.00  0.00     0.032 A
HETATM   13  C9  UNL     1      27.576   7.297   4.833  1.00  0.00     0.002 A
HETATM   14  C10 UNL     1      26.438   7.292   4.057  1.00  0.00     0.002 A
HETATM   15  C11 UNL     1      25.823   6.131   3.650  1.00  0.00     0.032 A
HETATM   16  C12 UNL     1      26.344   4.900   4.019  1.00  0.00     0.059 A
HETATM   17  N3  UNL     1      25.752   3.750   3.626  1.00  0.00    -0.352 N
ATOM     18  H3  UNL     1      24.910   3.764   3.051  1.00  0.00     0.166 HD
HETATM   19  C13 UNL     1      26.302   2.589   4.014  1.00  0.00     0.074 A
HETATM   20  C14 UNL     1      25.542   1.432   3.508  1.00  0.00     0.020 A
HETATM   21  C15 UNL     1      24.492   1.890   2.757  1.00  0.00     0.016 A
HETATM   22  C16 UNL     1      23.620   0.992   2.166  1.00  0.00     0.001 A
HETATM   23  C17 UNL     1      23.845  -0.349   2.358  1.00  0.00     0.002 A
HETATM   24  C18 UNL     1      24.892  -0.850   3.107  1.00  0.00     0.030 A
HETATM   25  C19 UNL     1      25.738   0.081   3.680  1.00  0.00     0.045 A
HETATM   26  N4  UNL     1      26.760  -0.570   4.415  1.00  0.00    -0.354 N
ATOM     27  H4  UNL     1      26.708  -1.588   4.444  1.00  0.00     0.166 HD
ENDROOT
TORSDOF 0
ENDMDL