MODEL 1
REMARK VINA RESULT: 5.119039063      0.000      0.000
REMARK  2 active torsions:
REMARK  status: ('A' for Active; 'I' for Inactive)
REMARK    1  A    between atoms: C5_5  and  C6_6
REMARK    2  A    between atoms: C7_7  and  C8_8
ROOT
HETATM    1  C8  UNL     1      27.406   2.573   3.567  1.00  0.00     0.018 A
HETATM    2  C9  UNL     1      27.952   3.708   3.006  1.00  0.00     0.021 A
HETATM    3  C10 UNL     1      27.334   4.936   3.050  1.00  0.00     0.015 A
HETATM    4  C11 UNL     1      26.111   5.049   3.681  1.00  0.00    -0.009 A
HETATM    5  C12 UNL     1      25.547   3.925   4.249  1.00  0.00    -0.008 A
HETATM    6  C13 UNL     1      24.325   4.074   4.872  1.00  0.00     0.102 A
HETATM    7  N1  UNL     1      23.690   5.277   4.930  1.00  0.00    -0.350 N
ATOM      8  H1  UNL     1      22.787   5.339   5.401  1.00  0.00     0.166 HD
HETATM    9  C14 UNL     1      24.221   6.388   4.384  1.00  0.00     0.132 A
HETATM   10  N2  UNL     1      23.855   7.679   4.277  1.00  0.00    -0.285 N
ATOM     11  H2  UNL     1      22.990   8.069   4.651  1.00  0.00     0.188 HD
HETATM   12  N3  UNL     1      24.771   8.371   3.621  1.00  0.00    -0.309 N
ATOM     13  H3  UNL     1      24.735   9.367   3.406  1.00  0.00     0.186 HD
HETATM   14  C15 UNL     1      25.754   7.527   3.291  1.00  0.00     0.123 A
HETATM   15  C16 UNL     1      25.442   6.254   3.758  1.00  0.00     0.037 A
HETATM   16  C17 UNL     1      26.189   2.683   4.195  1.00  0.00     0.034 A
ENDROOT
BRANCH   1  17
HETATM   17  C7  UNL     1      28.057   1.295   3.517  1.00  0.00    -0.061 C
HETATM   18  C6  UNL     1      28.602   0.198   3.491  1.00  0.00    -0.061 C
BRANCH  18  19
HETATM   19  C5  UNL     1      29.233  -1.091   3.485  1.00  0.00     0.018 A
HETATM   20  C4  UNL     1      28.493  -2.230   3.723  1.00  0.00     0.021 A
HETATM   21  C3  UNL     1      29.052  -3.483   3.728  1.00  0.00     0.008 A
HETATM   22  C2  UNL     1      30.393  -3.627   3.491  1.00  0.00    -0.062 A
HETATM   23  C1  UNL     1      31.072  -4.949   3.480  1.00  0.00     0.048 C
HETATM   24  C19 UNL     1      31.176  -2.517   3.248  1.00  0.00     0.008 A
HETATM   25  C18 UNL     1      30.580  -1.261   3.249  1.00  0.00     0.021 A
ENDBRANCH  18  19
ENDBRANCH   1  17
TORSDOF 2
ENDMDL