MODEL 4
REMARK VINA RESULT: -6.524015625      1.854      6.735
REMARK  2 active torsions:
REMARK  status: ('A' for Active; 'I' for Inactive)
REMARK    1  A    between atoms: C8_10  and  N2_11
REMARK    2  A    between atoms: N2_11  and  C9_13
ROOT
HETATM    1  C1  UNL     1      24.645   7.489   3.294  1.00  0.00     0.048 C
HETATM    2  C2  UNL     1      25.447   6.335   3.803  1.00  0.00    -0.060 A
HETATM    3  C3  UNL     1      26.598   6.649   4.495  1.00  0.00     0.007 A
HETATM    4  C4  UNL     1      27.391   5.636   4.995  1.00  0.00     0.015 A
HETATM    5  C5  UNL     1      27.016   4.325   4.793  1.00  0.00     0.002 A
HETATM    6  C6  UNL     1      25.868   3.989   4.102  1.00  0.00     0.045 A
HETATM    7  C7  UNL     1      25.079   5.026   3.604  1.00  0.00     0.037 A
HETATM    8  N1  UNL     1      25.491   2.701   3.898  1.00  0.00    -0.341 N
ATOM      9  H1  UNL     1      24.631   2.518   3.380  1.00  0.00     0.167 HD
HETATM   10  C8  UNL     1      26.202   1.664   4.349  1.00  0.00     0.118 A
HETATM   11  C14 UNL     1      27.365   1.949   5.049  1.00  0.00     0.019 A
HETATM   12  C15 UNL     1      28.105   0.873   5.518  1.00  0.00     0.016 A
HETATM   13  C16 UNL     1      29.258   1.160   6.211  1.00  0.00     0.001 A
HETATM   14  C17 UNL     1      29.678   2.448   6.442  1.00  0.00     0.001 A
HETATM   15  C18 UNL     1      28.929   3.541   5.967  1.00  0.00     0.013 A
HETATM   16  C19 UNL     1      27.779   3.259   5.275  1.00  0.00    -0.010 A
ENDROOT
BRANCH  10  17
HETATM   17  N2  UNL     1      25.821   0.329   4.143  1.00  0.00    -0.328 N
ATOM     18  H2  UNL     1      24.823   0.118   4.174  1.00  0.00     0.169 HD
BRANCH  17  19
HETATM   19  C9  UNL     1      26.620  -0.649   3.919  1.00  0.00     0.106 A
HETATM   20  C10 UNL     1      26.722  -1.766   4.684  1.00  0.00     0.048 A
HETATM   21  C11 UNL     1      27.631  -2.769   4.341  1.00  0.00     0.005 A
HETATM   22  C12 UNL     1      28.433  -2.640   3.226  1.00  0.00     0.017 A
HETATM   23  C13 UNL     1      28.299  -1.492   2.475  1.00  0.00     0.089 A
HETATM   24  N3  UNL     1      27.416  -0.544   2.829  1.00  0.00    -0.352 N
ATOM     25  H3  UNL     1      27.342   0.293   2.250  1.00  0.00     0.166 HD
ENDBRANCH  17  19
ENDBRANCH  10  17
TORSDOF 2
ENDMDL