MODEL 4
REMARK VINA RESULT: -1.656633353      1.528      4.221
REMARK  0 active torsions:
REMARK  status: ('A' for Active; 'I' for Inactive)
ROOT
HETATM    1  C1  UNL     1      23.750   3.365   3.631  1.00  0.00     0.044 C
HETATM    2  C2  UNL     1      24.588   2.390   3.282  1.00  0.00     0.037 A
HETATM    3  N1  UNL     1      23.861   1.324   2.623  1.00  0.00    -0.352 N
ATOM      4  H1  UNL     1      22.999   1.532   2.117  1.00  0.00     0.166 HD
HETATM    5  C3  UNL     1      24.299   0.115   2.674  1.00  0.00     0.181 A
HETATM    6  N2  UNL     1      25.498  -0.189   3.377  1.00  0.00    -0.351 N
ATOM      7  H2  UNL     1      25.816  -1.158   3.410  1.00  0.00     0.166 HD
HETATM    8  C4  UNL     1      26.266   0.803   4.035  1.00  0.00     0.057 A
HETATM    9  C5  UNL     1      25.816   2.148   3.977  1.00  0.00     0.031 A
HETATM   10  C6  UNL     1      26.505   3.107   4.633  1.00  0.00     0.019 A
HETATM   11  C7  UNL     1      26.464   4.485   4.534  1.00  0.00     0.004 A
HETATM   12  C8  UNL     1      25.835   5.418   3.784  1.00  0.00     0.014 A
HETATM   13  C9  UNL     1      26.156   6.754   3.780  1.00  0.00     0.001 A
HETATM   14  C10 UNL     1      27.174   7.228   4.560  1.00  0.00     0.002 A
HETATM   15  C11 UNL     1      27.848   6.303   5.329  1.00  0.00     0.030 A
HETATM   16  C12 UNL     1      27.490   4.965   5.302  1.00  0.00     0.045 A
HETATM   17  N3  UNL     1      28.190   3.912   5.855  1.00  0.00    -0.349 N
HETATM   18  C13 UNL     1      29.322   4.082   6.733  1.00  0.00     0.156 C
HETATM   19  C14 UNL     1      27.618   2.782   5.452  1.00  0.00     0.058 A
HETATM   20  C15 UNL     1      28.011   1.435   5.514  1.00  0.00     0.004 A
HETATM   21  C16 UNL     1      29.084   1.110   6.301  1.00  0.00     0.014 A
HETATM   22  C17 UNL     1      29.478  -0.243   6.341  1.00  0.00     0.001 A
HETATM   23  C18 UNL     1      28.837  -1.228   5.636  1.00  0.00     0.001 A
HETATM   24  C19 UNL     1      27.741  -0.863   4.841  1.00  0.00     0.014 A
HETATM   25  C20 UNL     1      27.350   0.453   4.796  1.00  0.00     0.004 A
ENDROOT
TORSDOF 0
ENDMDL