MODEL 2
REMARK VINA RESULT: -7.607074209      1.641      2.071
REMARK  10 active torsions:
REMARK  status: ('A' for Active; 'I' for Inactive)
REMARK    1  A    between atoms: C2_2  and  N1_3
REMARK    2  A    between atoms: C2_2  and  C3_7
REMARK    3  A    between atoms: C4_12  and  N4_13
REMARK       I    between atoms: N4_13  and  C5_15
REMARK    4  A    between atoms: C5_15  and  C6_17
REMARK    5  A    between atoms: C6_17  and  C7_18
REMARK       I    between atoms: C7_18  and  N5_20
REMARK    6  A    between atoms: N5_20  and  C8_22
REMARK    7  A    between atoms: C11_25  and  N6_26
REMARK       I    between atoms: N6_26  and  C12_28
REMARK    8  A    between atoms: C12_28  and  C13_30
REMARK    9  A    between atoms: N9_34  and  N10_35
REMARK   10  A    between atoms: N12_42  and  N13_43
ROOT
HETATM    1  C7  UNL     1      -6.679   4.212  54.739  1.00  0.00     0.231 C
HETATM    2  O2  UNL     1      -7.589   3.991  53.921  1.00  0.00    -0.273 OA
HETATM    3  N5  UNL     1      -6.767   3.911  56.107  1.00  0.00    -0.327 N
ATOM      4  H5  UNL     1      -5.968   4.144  56.696  1.00  0.00     0.169 HD
ENDROOT
BRANCH   1   5
HETATM    5  C6  UNL     1      -5.423   4.830  54.219  1.00  0.00     0.206 C
BRANCH   5   6
HETATM    6  C5  UNL     1      -4.567   3.784  53.648  1.00  0.00     0.244 C
HETATM    7  N4  UNL     1      -3.728   3.945  52.518  1.00  0.00    -0.156 N
ATOM      8  H4  UNL     1      -2.728   4.085  52.655  1.00  0.00     0.187 HD
HETATM    9  O1  UNL     1      -4.586   2.642  54.229  1.00  0.00    -0.272 OA
BRANCH   7  10
HETATM   10  C4  UNL     1      -4.205   3.919  51.323  1.00  0.00     0.722 A
HETATM   11  N3  UNL     1      -4.619   2.883  50.572  1.00  0.00    -0.129 N
HETATM   12  N2  UNL     1      -5.046   3.337  49.383  1.00  0.00    -0.271 N
ATOM     13  H3  UNL     1      -4.610   1.905  50.860  1.00  0.00     0.205 HD
HETATM   14  C3  UNL     1      -4.910   4.674  49.355  1.00  0.00     0.166 A
ATOM     15  H2  UNL     1      -5.414   2.762  48.626  1.00  0.00     0.189 HD
HETATM   16  N12 UNL     1      -4.397   5.007  50.544  1.00  0.00    -0.075 N
BRANCH  14  17
HETATM   17  C2  UNL     1      -5.288   5.514  48.187  1.00  0.00     0.250 C
HETATM   18  C1  UNL     1      -5.003   4.852  46.862  1.00  0.00     0.048 C
BRANCH  17  19
HETATM   19  N1  UNL     1      -4.591   6.779  48.190  1.00  0.00    -0.068 N
ATOM     20  H13 UNL     1      -4.442   7.151  49.128  1.00  0.00     0.275 HD
ATOM     21  H12 UNL     1      -3.609   6.695  47.926  1.00  0.00     0.275 HD
ATOM     22  H11 UNL     1      -5.114   7.414  47.587  1.00  0.00     0.275 HD
ENDBRANCH  17  19
ENDBRANCH  14  17
BRANCH  16  23
HETATM   23  N13 UNL     1      -4.105   6.312  50.933  1.00  0.00    -0.323 N
ATOM     24 2H13 UNL     1      -4.513   7.143  50.506  1.00  0.00     0.178 HD
ATOM     25 1H13 UNL     1      -3.452   6.556  51.677  1.00  0.00     0.178 HD
ENDBRANCH  16  23
ENDBRANCH   7  10
ENDBRANCH   5   6
ENDBRANCH   1   5
BRANCH   3  26
HETATM   26  C8  UNL     1      -7.900   3.299  56.736  1.00  0.00     0.034 A
HETATM   27  C9  UNL     1      -9.171   3.779  56.681  1.00  0.00     0.032 A
HETATM   28  C10 UNL     1     -10.178   3.131  57.346  1.00  0.00     0.032 A
HETATM   29  C11 UNL     1      -9.914   1.980  58.082  1.00  0.00     0.035 A
HETATM   30  C15 UNL     1      -8.650   1.479  58.152  1.00  0.00     0.032 A
HETATM   31  C16 UNL     1      -7.641   2.160  57.463  1.00  0.00     0.032 A
BRANCH  29  32
HETATM   32  N6  UNL     1     -11.022   1.378  58.703  1.00  0.00    -0.322 N
HETATM   33  C12 UNL     1     -11.418   1.682  60.008  1.00  0.00     0.277 C
HETATM   34  O3  UNL     1     -10.828   2.510  60.712  1.00  0.00    -0.266 OA
ATOM     35  H6  UNL     1     -11.562   0.690  58.177  1.00  0.00     0.169 HD
BRANCH  33  36
HETATM   36  C13 UNL     1     -12.596   0.978  60.561  1.00  0.00     0.159 A
HETATM   37  N7  UNL     1     -12.896   0.797  61.858  1.00  0.00    -0.274 N
HETATM   38  N8  UNL     1     -14.035   0.125  61.935  1.00  0.00     0.002 NA
ATOM     39  H7  UNL     1     -12.340   1.121  62.649  1.00  0.00     0.184 HD
HETATM   40  N9  UNL     1     -14.502  -0.148  60.716  1.00  0.00    -0.170 N
HETATM   41  C14 UNL     1     -13.614   0.379  59.851  1.00  0.00     0.187 A
HETATM   42  N11 UNL     1     -13.709   0.318  58.434  1.00  0.00    -0.077 NA
BRANCH  40  43
HETATM   43  N10 UNL     1     -15.680  -0.843  60.437  1.00  0.00    -0.324 N
ATOM     44 2H10 UNL     1     -16.643  -0.559  60.618  1.00  0.00     0.178 HD
ATOM     45 1H10 UNL     1     -15.735  -1.762  59.997  1.00  0.00     0.178 HD
ENDBRANCH  40  43
ENDBRANCH  33  36
ENDBRANCH  29  32
ENDBRANCH   3  26
TORSDOF 10
ENDMDL