MODEL 4
REMARK VINA RESULT: -6.315418972      1.538      2.322
REMARK  13 active torsions:
REMARK  status: ('A' for Active; 'I' for Inactive)
REMARK    1  A    between atoms: C3_4  and  S1_5
REMARK    2  A    between atoms: S1_5  and  C4_6
REMARK    3  A    between atoms: C4_6  and  C5_7
REMARK    4  A    between atoms: C5_7  and  C6_8
REMARK    5  A    between atoms: C6_8  and  C7_9
REMARK    6  A    between atoms: C9_15  and  N2_16
REMARK    7  A    between atoms: C10_20  and  O3_21
REMARK    8  A    between atoms: C11_24  and  C12_25
REMARK    9  A    between atoms: C12_25  and  O5_26
REMARK   10  A    between atoms: C13_29  and  C14_30
REMARK   11  A    between atoms: C14_30  and  O6_33
REMARK   12  A    between atoms: C17_35  and  O7_36
REMARK   13  A    between atoms: C17_35  and  O8_38
ROOT
HETATM    1  C7  UNL     1      -6.305   4.041  56.244  1.00  0.00     0.189 C
HETATM    2  O2  UNL     1      -7.461   3.279  56.050  1.00  0.00    -0.316 OA
HETATM    3  C8  UNL     1      -8.547   4.115  56.017  1.00  0.00     0.358 C
HETATM    4  N1  UNL     1      -9.728   3.294  55.934  1.00  0.00     0.018 N
ATOM      5  H11 UNL     1      -9.733   2.620  55.169  1.00  0.00     0.286 HD
ATOM      6  H12 UNL     1     -10.574   3.781  55.638  1.00  0.00     0.286 HD
HETATM    7  C9  UNL     1      -9.785   2.715  57.264  1.00  0.00     0.440 C
HETATM    8  C10 UNL     1      -9.226   3.815  58.116  1.00  0.00     0.320 C
HETATM    9  O4  UNL     1      -8.679   4.771  57.260  1.00  0.00    -0.297 OA
HETATM   10  C11 UNL     1      -8.407   5.113  54.914  1.00  0.00     0.166 C
HETATM   11  S2  UNL     1      -6.567   5.254  54.878  1.00  0.00    -0.123 SA
ENDROOT
BRANCH   1  12
HETATM   12  C6  UNL     1      -5.098   3.193  55.992  1.00  0.00     0.044 C
BRANCH  12  13
HETATM   13  C5  UNL     1      -3.811   3.892  56.361  1.00  0.00     0.013 C
BRANCH  13  14
HETATM   14  C4  UNL     1      -2.824   3.625  55.242  1.00  0.00     0.076 C
BRANCH  14  15
HETATM   15  S1  UNL     1      -2.488   5.197  54.415  1.00  0.00    -0.137 SA
BRANCH  15  16
HETATM   16  C3  UNL     1      -2.489   5.004  52.606  1.00  0.00     0.195 C
HETATM   17  O1  UNL     1      -2.097   3.712  52.316  1.00  0.00    -0.365 OA
HETATM   18  C2  UNL     1      -2.961   3.170  51.407  1.00  0.00     0.181 C
HETATM   19  C1  UNL     1      -3.168   1.680  51.695  1.00  0.00     0.045 C
HETATM   20  C17 UNL     1      -4.283   3.870  51.563  1.00  0.00     0.195 C
HETATM   21  C13 UNL     1      -3.883   5.196  52.123  1.00  0.00     0.123 C
BRANCH  20  22
HETATM   22  O7  UNL     1      -4.942   3.992  50.342  1.00  0.00    -0.363 OA
ATOM     23  H7  UNL     1      -4.409   4.450  49.702  1.00  0.00     0.213 HD
ENDBRANCH  20  22
BRANCH  20  24
HETATM   24  O8  UNL     1      -5.059   3.111  52.450  1.00  0.00    -0.363 OA
ATOM     25  H8  UNL     1      -5.325   3.685  53.160  1.00  0.00     0.213 HD
ENDBRANCH  20  24
BRANCH  21  26
HETATM   26  C14 UNL     1      -4.012   6.328  51.126  1.00  0.00     0.062 C
HETATM   27  C15 UNL     1      -3.398   7.561  51.785  1.00  0.00     0.046 C
HETATM   28  C16 UNL     1      -3.264   6.077  49.855  1.00  0.00     0.046 C
BRANCH  26  29
HETATM   29  O6  UNL     1      -5.361   6.590  50.943  1.00  0.00    -0.390 OA
ATOM     30  H6  UNL     1      -5.703   5.959  50.320  1.00  0.00     0.210 HD
ENDBRANCH  26  29
ENDBRANCH  21  26
ENDBRANCH  15  16
ENDBRANCH  14  15
ENDBRANCH  13  14
ENDBRANCH  12  13
ENDBRANCH   1  12
BRANCH  10  31
HETATM   31  C12 UNL     1      -8.927   4.627  53.585  1.00  0.00     0.186 C
BRANCH  31  32
HETATM   32  O5  UNL     1     -10.198   5.176  53.418  1.00  0.00    -0.399 OA
ATOM     33  H5  UNL     1     -10.767   4.762  54.056  1.00  0.00     0.209 HD
ENDBRANCH  31  32
ENDBRANCH  10  31
BRANCH   7  34
HETATM   34  N2  UNL     1     -11.134   2.354  57.622  1.00  0.00    -0.045 N
ATOM     35  H23 UNL     1     -11.771   3.144  57.525  1.00  0.00     0.277 HD
ATOM     36  H22 UNL     1     -11.550   1.730  56.930  1.00  0.00     0.277 HD
ATOM     37  H21 UNL     1     -11.175   1.953  58.559  1.00  0.00     0.277 HD
ENDBRANCH   7  34
BRANCH   8  38
HETATM   38  O3  UNL     1     -10.240   4.317  58.910  1.00  0.00    -0.367 OA
ATOM     39  H3  UNL     1     -10.444   5.198  58.620  1.00  0.00     0.212 HD
ENDBRANCH   8  38
TORSDOF 13
ENDMDL