MODEL 3
REMARK VINA RESULT: -7.558006442      6.232     10.603
REMARK  8 active torsions:
REMARK  status: ('A' for Active; 'I' for Inactive)
REMARK    1  A    between atoms: C2_5  and  N3_6
REMARK    2  A    between atoms: C3_8  and  C4_9
REMARK    3  A    between atoms: C4_9  and  N5_12
REMARK       I    between atoms: N5_12  and  C6_14
REMARK    4  A    between atoms: C6_14  and  C7_16
REMARK    5  A    between atoms: C9_18  and  C10_19
REMARK    6  A    between atoms: C10_19  and  O2_20
REMARK    7  A    between atoms: C13_26  and  N7_27
REMARK    8  A    between atoms: C17_37  and  N10_38
REMARK       I    between atoms: N10_38  and  C18_40
REMARK       I    between atoms: C18_40  and  N11_41
REMARK       I    between atoms: C18_40  and  N12_45
ROOT
HETATM    1  C4  UNL     1     -11.982   2.496  63.607  1.00  0.00     0.230 C
HETATM    2  C5  UNL     1     -12.815   1.625  64.444  1.00  0.00     0.090 C
HETATM    3  N4  UNL     1     -13.487   0.952  65.105  1.00  0.00    -0.195 NA
ENDROOT
BRANCH   1   4
HETATM    4  C3  UNL     1     -12.429   3.899  63.804  1.00  0.00     0.102 C
HETATM    5  N3  UNL     1     -13.588   4.170  64.303  1.00  0.00    -0.352 N
ATOM      6  H3  UNL     1     -14.194   3.391  64.561  1.00  0.00     0.166 HD
BRANCH   5   7
HETATM    7  C2  UNL     1     -14.066   5.475  64.513  1.00  0.00     0.119 A
HETATM    8  N2  UNL     1     -14.392   5.882  65.775  1.00  0.00    -0.282 N
HETATM    9  N1  UNL     1     -14.845   7.099  66.024  1.00  0.00    -0.280 N
ATOM     10  H2  UNL     1     -14.282   5.228  66.550  1.00  0.00     0.189 HD
HETATM   11  C1  UNL     1     -15.184   7.508  67.376  1.00  0.00     0.179 C
HETATM   12  C17 UNL     1     -14.983   7.948  64.990  1.00  0.00     0.120 A
HETATM   13  C16 UNL     1     -14.673   7.606  63.690  1.00  0.00     0.053 A
HETATM   14  C15 UNL     1     -14.202   6.335  63.442  1.00  0.00     0.053 A
BRANCH  12  15
HETATM   15  N10 UNL     1     -15.426   9.151  65.211  1.00  0.00    -0.326 N
HETATM   16  C18 UNL     1     -14.853  10.320  64.621  1.00  0.00     0.481 C
HETATM   17  N11 UNL     1     -13.589  10.692  65.223  1.00  0.00    -0.033 N
HETATM   18  N12 UNL     1     -15.781  11.419  64.804  1.00  0.00    -0.033 N
ATOM     19 3H11 UNL     1     -13.684  10.801  66.233  1.00  0.00     0.278 HD
ATOM     20 2H11 UNL     1     -12.931   9.912  65.201  1.00  0.00     0.278 HD
ATOM     21 1H11 UNL     1     -13.180  11.526  64.802  1.00  0.00     0.278 HD
ATOM     22 3H12 UNL     1     -16.713  11.212  64.443  1.00  0.00     0.278 HD
ATOM     23 2H12 UNL     1     -16.041  11.558  65.781  1.00  0.00     0.278 HD
ATOM     24 1H12 UNL     1     -15.372  12.253  64.383  1.00  0.00     0.278 HD
ATOM     25  H10 UNL     1     -16.223   9.266  65.837  1.00  0.00     0.164 HD
ENDBRANCH  12  15
ENDBRANCH   5   7
ENDBRANCH   1   4
BRANCH   1  26
HETATM   26  N5  UNL     1     -12.051   2.107  62.210  1.00  0.00    -0.338 N
HETATM   27  C6  UNL     1     -11.174   1.150  61.670  1.00  0.00     0.242 C
HETATM   28  O1  UNL     1     -10.310   0.610  62.389  1.00  0.00    -0.271 OA
ATOM     29  H5  UNL     1     -12.751   2.539  61.607  1.00  0.00     0.164 HD
BRANCH  27  30
HETATM   30  C7  UNL     1     -11.258   0.768  60.248  1.00  0.00     0.190 C
HETATM   31  C8  UNL     1     -10.943   2.022  59.443  1.00  0.00     0.062 C
HETATM   32  C9  UNL     1     -10.950   1.638  57.975  1.00  0.00     0.109 C
HETATM   33  N6  UNL     1     -12.324   1.306  57.655  1.00  0.00    -0.369 N
HETATM   34  C11 UNL     1     -13.038   0.557  58.644  1.00  0.00     0.112 A
ATOM     35  H6  UNL     1     -12.758   1.589  56.776  1.00  0.00     0.161 HD
HETATM   36  C12 UNL     1     -14.306   0.093  58.271  1.00  0.00     0.096 A
HETATM   37  N9  UNL     1     -12.550   0.295  59.868  1.00  0.00    -0.271 N
HETATM   38  C13 UNL     1     -15.068  -0.638  59.159  1.00  0.00     0.106 A
HETATM   39  N8  UNL     1     -14.530  -0.871  60.368  1.00  0.00    -0.295 N
HETATM   40  C14 UNL     1     -13.308  -0.423  60.725  1.00  0.00     0.330 A
ATOM     41  H8  UNL     1     -15.070  -1.409  61.047  1.00  0.00     0.172 HD
HETATM   42  O3  UNL     1     -12.900  -0.705  61.903  1.00  0.00    -0.246 OA
BRANCH  32  43
HETATM   43  C10 UNL     1     -10.464   2.776  57.121  1.00  0.00     0.189 C
BRANCH  43  44
HETATM   44  O2  UNL     1     -11.040   3.958  57.563  1.00  0.00    -0.399 OA
ATOM     45  H2  UNL     1     -10.367   4.624  57.644  1.00  0.00     0.209 HD
ENDBRANCH  43  44
ENDBRANCH  32  43
BRANCH  38  46
HETATM   46  N7  UNL     1     -16.242  -1.098  58.884  1.00  0.00    -0.385 N
ATOM     47  H72 UNL     1     -16.419  -2.100  58.950  1.00  0.00     0.157 HD
ATOM     48  H71 UNL     1     -17.027  -0.512  58.598  1.00  0.00     0.157 HD
ENDBRANCH  38  46
ENDBRANCH  27  30
ENDBRANCH   1  26
TORSDOF 8
ENDMDL