MODEL 2
REMARK VINA RESULT: -9.365082574      0.825      1.153
REMARK  6 active torsions:
REMARK  status: ('A' for Active; 'I' for Inactive)
REMARK    1  A    between atoms: C2_3  and  N2_4
REMARK       I    between atoms: N2_4  and  C3_6
REMARK    2  A    between atoms: C3_6  and  C4_8
REMARK    3  A    between atoms: C4_8  and  N3_9
REMARK    4  A    between atoms: N3_9  and  S1_11
REMARK    5  A    between atoms: S1_11  and  C5_14
REMARK    6  A    between atoms: C8_17  and  C9_18
ROOT
HETATM    1  N1  UNL     1      -3.827   1.635  51.189  1.00  0.00    -0.196 NA
HETATM    2  C1  UNL     1      -3.988   2.227  52.189  1.00  0.00     0.078 C
HETATM    3  C2  UNL     1      -4.179   2.983  53.423  1.00  0.00     0.247 C
ENDROOT
BRANCH   3   4
HETATM    4  N2  UNL     1      -5.589   3.170  53.662  1.00  0.00    -0.344 N
HETATM    5  C3  UNL     1      -6.111   4.326  54.304  1.00  0.00     0.284 C
HETATM    6  O1  UNL     1      -5.301   5.200  54.666  1.00  0.00    -0.267 OA
ATOM      7  H2  UNL     1      -6.237   2.443  53.360  1.00  0.00     0.163 HD
BRANCH   5   8
HETATM    8  C4  UNL     1      -7.564   4.482  54.530  1.00  0.00     0.300 C
HETATM    9  N7  UNL     1      -8.289   3.267  54.144  1.00  0.00    -0.067 NA
HETATM   10  N8  UNL     1      -9.472   3.738  53.555  1.00  0.00    -0.017 NA
HETATM   11  N9  UNL     1      -8.990   4.809  52.811  1.00  0.00    -0.017 NA
HETATM   12  N10 UNL     1      -8.091   5.441  53.623  1.00  0.00    -0.067 NA
BRANCH   8  13
HETATM   13  N3  UNL     1      -7.902   4.738  55.889  1.00  0.00    -0.266 N
ATOM     14  H3  UNL     1      -8.363   5.602  56.174  1.00  0.00     0.176 HD
BRANCH  13  15
HETATM   15  S1  UNL     1      -7.495   3.531  57.013  1.00  0.00     0.267 S
HETATM   16  O2  UNL     1      -6.863   4.203  58.226  1.00  0.00    -0.200 OA
HETATM   17  O3  UNL     1      -6.535   2.519  56.509  1.00  0.00    -0.200 OA
BRANCH  15  18
HETATM   18  C5  UNL     1      -8.987   2.725  57.507  1.00  0.00     0.147 A
HETATM   19  C6  UNL     1     -10.211   3.123  57.032  1.00  0.00     0.033 A
HETATM   20  C7  UNL     1     -11.382   2.470  57.429  1.00  0.00     0.032 A
HETATM   21  C8  UNL     1     -11.353   1.409  58.306  1.00  0.00     0.045 A
HETATM   22  N6  UNL     1     -10.131   1.051  58.749  1.00  0.00    -0.322 N
HETATM   23  C15 UNL     1      -8.981   1.670  58.377  1.00  0.00     0.269 A
ATOM     24  H6  UNL     1     -10.067   0.269  59.401  1.00  0.00     0.169 HD
HETATM   25  O5  UNL     1      -7.862   1.286  58.827  1.00  0.00    -0.266 OA
BRANCH  21  26
HETATM   26  C9  UNL     1     -12.579   0.714  58.733  1.00  0.00    -0.007 A
HETATM   27  C10 UNL     1     -12.738   0.349  60.051  1.00  0.00     0.016 A
HETATM   28  C11 UNL     1     -13.899  -0.314  60.474  1.00  0.00     0.035 A
HETATM   29  C12 UNL     1     -14.888  -0.604  59.566  1.00  0.00     0.085 A
HETATM   30  N4  UNL     1     -16.084  -1.216  59.673  1.00  0.00    -0.240 N
HETATM   31  C13 UNL     1     -14.764  -0.257  58.246  1.00  0.00     0.086 A
HETATM   32  O4  UNL     1     -16.631  -1.228  58.490  1.00  0.00    -0.156 OA
ATOM     33  H4  UNL     1     -16.490  -1.601  60.526  1.00  0.00     0.197 HD
HETATM   34  N5  UNL     1     -15.862  -0.660  57.617  1.00  0.00    -0.240 N
ATOM     35  H5  UNL     1     -16.063  -0.544  56.623  1.00  0.00     0.197 HD
HETATM   36  C14 UNL     1     -13.604   0.396  57.872  1.00  0.00     0.047 A
ENDBRANCH  21  26
ENDBRANCH  15  18
ENDBRANCH  13  15
ENDBRANCH   8  13
ENDBRANCH   5   8
ENDBRANCH   3   4
TORSDOF 6
ENDMDL