MODEL 5
REMARK VINA RESULT: -8.436147122      2.694      4.008
REMARK  8 active torsions:
REMARK  status: ('A' for Active; 'I' for Inactive)
REMARK    1  A    between atoms: C2_2  and  N1_3
REMARK    2  A    between atoms: C2_2  and  C3_7
REMARK    3  A    between atoms: C4_9  and  N2_10
REMARK    4  A    between atoms: N2_10  and  C5_12
REMARK    5  A    between atoms: C6_13  and  N3_14
REMARK    6  A    between atoms: N3_14  and  N4_16
REMARK    7  A    between atoms: N4_16  and  C7_18
REMARK    8  A    between atoms: C16_35  and  C17_36
REMARK       I    between atoms: C17_36  and  N7_38
ROOT
HETATM    1  C17 UNL     1      -7.322   5.250  54.541  1.00  0.00     0.262 C
HETATM    2  O6  UNL     1      -7.276   6.497  54.501  1.00  0.00    -0.270 OA
HETATM    3  N7  UNL     1      -8.528   4.595  54.206  1.00  0.00    -0.262 N
ATOM      4  H7  UNL     1      -8.594   3.577  54.229  1.00  0.00     0.181 HD
HETATM    5  C18 UNL     1      -9.636   5.382  53.840  1.00  0.00     0.184 C
HETATM    6  N8  UNL     1     -10.556   6.016  53.540  1.00  0.00    -0.172 NA
ENDROOT
BRANCH   1   7
HETATM    7  C16 UNL     1      -6.149   4.428  54.929  1.00  0.00     0.250 A
HETATM    8  C3  UNL     1      -6.047   3.235  54.038  1.00  0.00     0.194 A
HETATM    9  O1  UNL     1      -6.208   2.149  54.852  1.00  0.00    -0.333 OA
HETATM   10  C4  UNL     1      -6.251   2.574  56.170  1.00  0.00     0.372 A
HETATM   11  O5  UNL     1      -6.234   3.944  56.208  1.00  0.00    -0.326 OA
BRANCH   8  12
HETATM   12  C2  UNL     1      -4.758   3.253  53.263  1.00  0.00     0.211 C
HETATM   13  C1  UNL     1      -3.671   4.038  53.949  1.00  0.00     0.042 C
BRANCH  12  14
HETATM   14  N1  UNL     1      -4.300   1.901  52.953  1.00  0.00    -0.073 N
ATOM     15  H13 UNL     1      -3.513   1.908  52.304  1.00  0.00     0.274 HD
ATOM     16  H12 UNL     1      -3.836   1.467  53.751  1.00  0.00     0.274 HD
ATOM     17  H11 UNL     1      -5.071   1.331  52.606  1.00  0.00     0.274 HD
ENDBRANCH  12  14
ENDBRANCH   8  12
BRANCH  10  18
HETATM   18  N2  UNL     1      -7.398   2.084  56.883  1.00  0.00    -0.337 N
ATOM     19  H2  UNL     1      -8.183   1.738  56.332  1.00  0.00     0.164 HD
BRANCH  18  20
HETATM   20  C5  UNL     1      -7.521   2.045  58.299  1.00  0.00     0.119 A
HETATM   21  C6  UNL     1      -8.517   1.895  59.217  1.00  0.00     0.133 A
HETATM   22  C14 UNL     1      -7.611   2.003  60.236  1.00  0.00     0.254 A
HETATM   23  O3  UNL     1      -7.639   1.980  61.517  1.00  0.00    -0.281 OA
HETATM   24  C15 UNL     1      -6.610   2.155  59.312  1.00  0.00     0.253 A
HETATM   25  O4  UNL     1      -5.343   2.327  59.416  1.00  0.00    -0.281 OA
BRANCH  21  26
HETATM   26  N3  UNL     1      -9.945   1.702  59.143  1.00  0.00    -0.294 N
ATOM     27  H3  UNL     1     -10.382   1.567  58.231  1.00  0.00     0.187 HD
BRANCH  26  28
HETATM   28  N4  UNL     1     -10.740   1.695  60.288  1.00  0.00    -0.300 N
ATOM     29  H4  UNL     1     -10.385   2.134  61.138  1.00  0.00     0.187 HD
BRANCH  28  30
HETATM   30  C7  UNL     1     -12.026   1.097  60.309  1.00  0.00     0.050 A
HETATM   31  C8  UNL     1     -12.723   0.929  61.487  1.00  0.00     0.033 A
HETATM   32  C9  UNL     1     -13.975   0.353  61.556  1.00  0.00     0.034 A
HETATM   33  C10 UNL     1     -14.587  -0.086  60.397  1.00  0.00     0.063 A
HETATM   34  N5  UNL     1     -15.779  -0.672  60.184  1.00  0.00    -0.307 N
HETATM   35  C12 UNL     1     -13.895   0.078  59.210  1.00  0.00     0.065 A
HETATM   36  C11 UNL     1     -15.847  -0.881  58.854  1.00  0.00     0.325 A
ATOM     37  H5  UNL     1     -16.485  -0.907  60.883  1.00  0.00     0.170 HD
HETATM   38  O2  UNL     1     -16.803  -1.411  58.220  1.00  0.00    -0.247 OA
HETATM   39  N6  UNL     1     -14.725  -0.435  58.260  1.00  0.00    -0.306 N
ATOM     40  H6  UNL     1     -14.528  -0.476  57.260  1.00  0.00     0.170 HD
HETATM   41  C13 UNL     1     -12.645   0.656  59.159  1.00  0.00     0.062 A
ENDBRANCH  28  30
ENDBRANCH  26  28
ENDBRANCH  21  26
ENDBRANCH  18  20
ENDBRANCH  10  18
ENDBRANCH   1   7
TORSDOF 8
ENDMDL