MODEL 3
REMARK VINA RESULT: -7.671897082      2.033      5.991
REMARK  9 active torsions:
REMARK  status: ('A' for Active; 'I' for Inactive)
REMARK       I    between atoms: C2_2  and  N1_4
REMARK    1  A    between atoms: N1_4  and  C3_6
REMARK    2  A    between atoms: C4_13  and  N5_14
REMARK    3  A    between atoms: N5_14  and  C5_16
REMARK    4  A    between atoms: C8_22  and  C9_23
REMARK    5  A    between atoms: C9_23  and  C10_24
REMARK    6  A    between atoms: C11_25  and  C12_26
REMARK    7  A    between atoms: N7_28  and  C14_29
REMARK    8  A    between atoms: C14_29  and  C16_31
REMARK    9  A    between atoms: C17_38  and  O4_39
ROOT
HETATM    1  C5  UNL     1      -5.599   7.306  54.584  1.00  0.00     0.089 A
HETATM    2  C6  UNL     1      -4.333   7.802  54.790  1.00  0.00     0.107 A
HETATM    3  C7  UNL     1      -3.523   8.224  53.750  1.00  0.00     0.247 A
HETATM    4  O2  UNL     1      -2.370   8.675  53.948  1.00  0.00    -0.268 OA
HETATM    5  N6  UNL     1      -4.028   8.131  52.512  1.00  0.00    -0.324 N
ATOM      6  H6  UNL     1      -3.444   8.440  51.735  1.00  0.00     0.169 HD
HETATM    7  C8  UNL     1      -5.264   7.654  52.227  1.00  0.00     0.051 A
HETATM    8  C17 UNL     1      -6.050   7.241  53.275  1.00  0.00     0.116 A
ENDROOT
BRANCH   1   9
HETATM    9  N5  UNL     1      -6.448   6.868  55.620  1.00  0.00    -0.187 N
ATOM     10  H5  UNL     1      -6.994   7.552  56.144  1.00  0.00     0.184 HD
BRANCH   9  11
HETATM   11  C4  UNL     1      -6.557   5.477  55.949  1.00  0.00     0.713 A
HETATM   12  N4  UNL     1      -5.485   4.789  56.118  1.00  0.00    -0.116 N
HETATM   13  N3  UNL     1      -5.513   3.440  56.437  1.00  0.00    -0.214 N
ATOM     14  H4  UNL     1      -4.582   5.251  56.014  1.00  0.00     0.207 HD
HETATM   15  N2  UNL     1      -6.765   2.849  56.570  1.00  0.00    -0.116 N
ATOM     16  H3  UNL     1      -4.655   2.905  56.568  1.00  0.00     0.209 HD
HETATM   17  C3  UNL     1      -7.901   3.488  56.413  1.00  0.00     0.715 A
ATOM     18  H2  UNL     1      -6.804   1.858  56.805  1.00  0.00     0.207 HD
HETATM   19  N11 UNL     1      -7.825   4.853  56.089  1.00  0.00    -0.019 N
ATOM     20  H11 UNL     1      -8.679   5.395  55.955  1.00  0.00     0.203 HD
BRANCH  17  21
HETATM   21  N1  UNL     1      -9.082   2.766  56.577  1.00  0.00    -0.158 N
HETATM   22  C2  UNL     1     -10.104   3.054  57.478  1.00  0.00     0.232 C
HETATM   23  C1  UNL     1     -11.321   2.142  57.508  1.00  0.00     0.118 C
HETATM   24  O1  UNL     1     -10.082   4.017  58.262  1.00  0.00    -0.273 OA
ATOM     25  H1  UNL     1      -9.210   1.948  55.980  1.00  0.00     0.187 HD
ENDBRANCH  17  21
ENDBRANCH   9  11
ENDBRANCH   1   9
BRANCH   8  26
HETATM   26  O4  UNL     1      -7.321   6.747  53.044  1.00  0.00    -0.357 OA
ATOM     27  H4  UNL     1      -7.693   6.849  52.176  1.00  0.00     0.218 HD
ENDBRANCH   8  26
BRANCH   7  28
HETATM   28  C9  UNL     1      -5.722   7.584  50.788  1.00  0.00     0.087 C
BRANCH  28  29
HETATM   29  C10 UNL     1      -4.569   7.512  49.884  1.00  0.00    -0.018 C
HETATM   30  C11 UNL     1      -3.952   6.442  49.483  1.00  0.00     0.029 C
BRANCH  30  31
HETATM   31  C12 UNL     1      -4.248   5.071  49.824  1.00  0.00     0.066 A
HETATM   32  C13 UNL     1      -3.722   4.444  50.963  1.00  0.00     0.143 A
HETATM   33  N7  UNL     1      -4.185   3.191  50.981  1.00  0.00    -0.274 N
HETATM   34  N9  UNL     1      -4.948   3.044  49.927  1.00  0.00    -0.240 N
HETATM   35  N10 UNL     1      -5.007   4.141  49.220  1.00  0.00    -0.285 N
ATOM     36  H9  UNL     1      -5.435   2.181  49.687  1.00  0.00     0.208 HD
ATOM     37  H10 UNL     1      -5.537   4.270  48.358  1.00  0.00     0.188 HD
BRANCH  33  38
HETATM   38  C14 UNL     1      -3.851   2.231  52.023  1.00  0.00     0.194 C
HETATM   39  C15 UNL     1      -2.324   2.141  52.107  1.00  0.00     0.044 C
BRANCH  38  40
HETATM   40  C16 UNL     1      -4.377   2.777  53.292  1.00  0.00     0.255 C
HETATM   41  N8  UNL     1      -5.736   3.155  53.376  1.00  0.00    -0.060 NA
HETATM   42  O3  UNL     1      -3.642   2.910  54.292  1.00  0.00    -0.275 OA
ENDBRANCH  38  40
ENDBRANCH  33  38
ENDBRANCH  30  31
ENDBRANCH  28  29
ENDBRANCH   7  28
TORSDOF 9
ENDMDL