MODEL 2
REMARK VINA RESULT: -8.227606185      1.922      3.500
REMARK  10 active torsions:
REMARK  status: ('A' for Active; 'I' for Inactive)
REMARK    1  A    between atoms: C4_9  and  C5_10
REMARK    2  A    between atoms: C5_10  and  O1_11
REMARK    3  A    between atoms: C5_10  and  O2_13
REMARK    4  A    between atoms: C6_15  and  S1_16
REMARK    5  A    between atoms: S1_16  and  N3_19
REMARK    6  A    between atoms: N3_19  and  C7_21
REMARK    7  A    between atoms: C7_21  and  C8_22
REMARK    8  A    between atoms: C8_22  and  C9_23
REMARK    9  A    between atoms: C11_30  and  O5_31
REMARK   10  A    between atoms: C14_35  and  O6_36
ROOT
HETATM    1  C7  UNL     1      -4.105   8.003  53.041  1.00  0.00     0.137 C
ENDROOT
BRANCH   1   2
HETATM    2  N3  UNL     1      -4.768   6.828  53.547  1.00  0.00    -0.315 N
ATOM      3  H3  UNL     1      -4.303   5.925  53.647  1.00  0.00     0.172 HD
BRANCH   2   4
HETATM    4  S1  UNL     1      -6.415   7.088  53.969  1.00  0.00     0.263 S
HETATM    5  O3  UNL     1      -6.441   8.317  54.888  1.00  0.00    -0.200 OA
HETATM    6  O4  UNL     1      -7.208   7.520  52.757  1.00  0.00    -0.200 OA
BRANCH   4   7
HETATM    7  C6  UNL     1      -7.117   5.692  54.712  1.00  0.00     0.134 A
HETATM    8  C1  UNL     1      -6.496   5.039  55.778  1.00  0.00     0.123 A
HETATM    9  N1  UNL     1      -5.429   5.442  56.326  1.00  0.00    -0.384 N
HETATM   10  N2  UNL     1      -7.096   3.906  56.271  1.00  0.00    -0.351 N
ATOM     11  H12 UNL     1      -4.976   4.964  57.106  1.00  0.00     0.157 HD
ATOM     12  H11 UNL     1      -4.983   6.282  55.960  1.00  0.00     0.157 HD
HETATM   13  C2  UNL     1      -8.230   3.412  55.783  1.00  0.00     0.090 A
ATOM     14  H2  UNL     1      -6.650   3.420  57.050  1.00  0.00     0.166 HD
HETATM   15  C3  UNL     1      -8.856   4.042  54.737  1.00  0.00     0.031 A
HETATM   16  C4  UNL     1      -8.292   5.194  54.200  1.00  0.00     0.024 A
BRANCH  16  17
HETATM   17  C5  UNL     1      -9.049   5.865  53.152  1.00  0.00     0.290 C
BRANCH  17  18
HETATM   18  O1  UNL     1     -10.398   5.948  53.627  1.00  0.00    -0.367 OA
ATOM     19  H1  UNL     1     -10.704   6.819  53.402  1.00  0.00     0.213 HD
ENDBRANCH  17  18
BRANCH  17  20
HETATM   20  O2  UNL     1      -9.083   5.081  52.016  1.00  0.00    -0.367 OA
ATOM     21  H2  UNL     1      -9.850   5.292  51.497  1.00  0.00     0.213 HD
ENDBRANCH  17  20
ENDBRANCH  16  17
ENDBRANCH   4   7
ENDBRANCH   2   4
ENDBRANCH   1   2
BRANCH   1  22
HETATM   22  C8  UNL     1      -3.202   7.657  51.881  1.00  0.00     0.066 C
BRANCH  22  23
HETATM   23  C9  UNL     1      -3.480   6.321  51.328  1.00  0.00     0.025 C
HETATM   24  C10 UNL     1      -4.282   6.239  50.212  1.00  0.00     0.155 A
HETATM   25  N4  UNL     1      -4.902   6.989  49.283  1.00  0.00    -0.268 N
HETATM   26  N6  UNL     1      -4.804   5.049  49.584  1.00  0.00    -0.201 N
HETATM   27  N5  UNL     1      -5.369   5.874  48.726  1.00  0.00    -0.231 N
ATOM     28  H4  UNL     1      -4.981   7.988  49.088  1.00  0.00     0.190 HD
ATOM     29  H5  UNL     1      -5.962   5.712  47.912  1.00  0.00     0.209 HD
HETATM   30  C11 UNL     1      -4.648   3.744  49.912  1.00  0.00     0.173 C
HETATM   31  C12 UNL     1      -3.957   3.258  50.995  1.00  0.00     0.021 C
HETATM   32  C13 UNL     1      -3.253   3.913  51.981  1.00  0.00    -0.007 C
HETATM   33  C17 UNL     1      -4.039   1.757  51.024  1.00  0.00     0.162 C
HETATM   34  C14 UNL     1      -2.908   5.265  51.989  1.00  0.00     0.083 C
HETATM   35  C15 UNL     1      -2.800   3.161  53.163  1.00  0.00     0.086 C
HETATM   36  C16 UNL     1      -2.375   1.806  52.747  1.00  0.00     0.060 C
HETATM   37  N7  UNL     1      -2.951   1.218  51.793  1.00  0.00    -0.398 N
ATOM     38  H7  UNL     1      -2.618   0.286  51.547  1.00  0.00     0.158 HD
BRANCH  30  39
HETATM   39  O5  UNL     1      -5.263   2.859  49.038  1.00  0.00    -0.344 OA
ATOM     40  H5  UNL     1      -4.668   2.251  48.615  1.00  0.00     0.219 HD
ENDBRANCH  30  39
BRANCH  34  41
HETATM   41  O6  UNL     1      -1.824   5.512  52.800  1.00  0.00    -0.359 OA
ATOM     42  H6  UNL     1      -1.064   4.950  52.720  1.00  0.00     0.217 HD
ENDBRANCH  34  41
ENDBRANCH  22  23
ENDBRANCH   1  22
TORSDOF 10
ENDMDL