MODEL 1
REMARK VINA RESULT: -6.222790797      0.000      0.000
REMARK  12 active torsions:
REMARK  status: ('A' for Active; 'I' for Inactive)
REMARK    1  A    between atoms: C2_2  and  C4_4
REMARK    2  A    between atoms: C7_9  and  C8_10
REMARK    3  A    between atoms: C8_10  and  O3_11
REMARK    4  A    between atoms: C9_13  and  O4_15
REMARK    5  A    between atoms: C13_21  and  O6_22
REMARK    6  A    between atoms: O6_22  and  C14_23
REMARK    7  A    between atoms: C14_23  and  C15_24
REMARK    8  A    between atoms: C15_24  and  O7_25
REMARK    9  A    between atoms: C16_27  and  O8_28
REMARK   10  A    between atoms: C17_30  and  O9_31
REMARK   11  A    between atoms: C17_30  and  C18_33
REMARK   12  A    between atoms: C18_33  and  O10_34
ROOT
HETATM    1  C4  UNL     1      -5.089   8.140  55.825  1.00  0.00     0.157 C
HETATM    2  O1  UNL     1      -4.568   6.854  55.968  1.00  0.00    -0.372 OA
HETATM    3  C5  UNL     1      -5.529   6.412  55.078  1.00  0.00     0.184 C
HETATM    4  C6  UNL     1      -5.696   7.754  54.508  1.00  0.00     0.183 C
HETATM    5  O2  UNL     1      -4.939   8.029  53.406  1.00  0.00    -0.370 OA
HETATM    6  C7  UNL     1      -5.371   7.167  52.390  1.00  0.00     0.181 C
HETATM    7  C9  UNL     1      -4.224   6.177  52.196  1.00  0.00     0.105 C
HETATM    8  C10 UNL     1      -3.047   7.083  51.870  1.00  0.00     0.050 C
HETATM    9  C11 UNL     1      -3.981   5.311  53.377  1.00  0.00     0.116 C
HETATM   10  S1  UNL     1      -2.681   5.995  54.444  1.00  0.00    -0.077 SA
HETATM   11  C12 UNL     1      -5.247   5.267  54.217  1.00  0.00     0.182 C
HETATM   12  O5  UNL     1      -5.126   4.150  55.086  1.00  0.00    -0.349 OA
HETATM   13  C13 UNL     1      -5.711   3.069  54.373  1.00  0.00     0.292 C
HETATM   14  C16 UNL     1      -4.914   3.000  53.083  1.00  0.00     0.211 C
HETATM   15  C17 UNL     1      -3.654   3.886  53.144  1.00  0.00     0.132 C
ENDROOT
BRANCH  13  16
HETATM   16  O6  UNL     1      -7.006   3.368  54.095  1.00  0.00    -0.356 OA
BRANCH  16  17
HETATM   17  C14 UNL     1      -8.031   2.930  54.830  1.00  0.00     0.197 C
BRANCH  17  18
HETATM   18  C15 UNL     1      -9.370   3.482  54.487  1.00  0.00     0.190 C
BRANCH  18  19
HETATM   19  O7  UNL     1      -9.461   4.074  53.261  1.00  0.00    -0.399 OA
ATOM     20  H7  UNL     1      -9.596   3.481  52.532  1.00  0.00     0.209 HD
ENDBRANCH  18  19
ENDBRANCH  17  18
ENDBRANCH  16  17
ENDBRANCH  13  16
BRANCH  14  21
HETATM   21  O8  UNL     1      -4.395   1.705  52.999  1.00  0.00    -0.387 OA
ATOM     22  H8  UNL     1      -3.574   1.769  52.526  1.00  0.00     0.210 HD
ENDBRANCH  14  21
BRANCH  15  23
HETATM   23  O9  UNL     1      -3.016   3.423  54.334  1.00  0.00    -0.383 OA
ATOM     24  H9  UNL     1      -2.174   3.073  54.066  1.00  0.00     0.210 HD
ENDBRANCH  15  23
BRANCH  15  25
HETATM   25  C18 UNL     1      -2.771   3.470  52.054  1.00  0.00     0.206 C
BRANCH  25  26
HETATM   26  O10 UNL     1      -3.445   3.008  50.920  1.00  0.00    -0.398 OA
ATOM     27  H10 UNL     1      -3.250   2.106  50.696  1.00  0.00     0.209 HD
ENDBRANCH  25  26
ENDBRANCH  15  25
BRANCH   7  28
HETATM   28  O4  UNL     1      -4.624   5.426  51.079  1.00  0.00    -0.386 OA
ATOM     29  H4  UNL     1      -3.819   5.316  50.586  1.00  0.00     0.210 HD
ENDBRANCH   7  28
BRANCH   1  30
HETATM   30  C2  UNL     1      -6.026   8.445  56.940  1.00  0.00     0.009 C
HETATM   31  C1  UNL     1      -6.404   9.906  57.015  1.00  0.00     0.012 C
HETATM   32  C3  UNL     1      -5.367   8.026  58.240  1.00  0.00     0.012 C
ENDBRANCH   1  30
BRANCH   6  33
HETATM   33  C8  UNL     1      -5.495   7.996  51.105  1.00  0.00     0.199 C
BRANCH  33  34
HETATM   34  O3  UNL     1      -6.763   8.557  51.004  1.00  0.00    -0.398 OA
ATOM     35  H3  UNL     1      -6.953   9.095  51.764  1.00  0.00     0.209 HD
ENDBRANCH  33  34
ENDBRANCH   6  33
TORSDOF 12
ENDMDL