MODEL 2
REMARK VINA RESULT: -7.970636982      2.409      9.930
REMARK  9 active torsions:
REMARK  status: ('A' for Active; 'I' for Inactive)
REMARK    1  A    between atoms: C2_3  and  O1_4
REMARK    2  A    between atoms: C3_6  and  O2_7
REMARK    3  A    between atoms: C4_9  and  N2_10
REMARK       I    between atoms: N2_10  and  C5_12
REMARK    4  A    between atoms: C5_12  and  C6_14
REMARK    5  A    between atoms: C6_14  and  N3_15
REMARK    6  A    between atoms: N3_15  and  N4_17
REMARK    7  A    between atoms: N5_19  and  N6_20
REMARK    8  A    between atoms: C16_33  and  C17_34
REMARK    9  A    between atoms: C18_37  and  O7_38
ROOT
HETATM    1  N4  UNL     1      -8.798   3.134  57.979  1.00  0.00    -0.298 N
HETATM    2  C7  UNL     1      -8.147   1.866  58.099  1.00  0.00     0.262 C
HETATM    3  N5  UNL     1      -9.095   0.991  58.806  1.00  0.00    -0.184 NA
HETATM    4  C8  UNL     1     -10.339   1.553  58.417  1.00  0.00     0.053 C
HETATM    5  C9  UNL     1     -11.580   1.013  58.881  1.00  0.00    -0.012 A
HETATM    6  C10 UNL     1     -11.856   0.672  60.188  1.00  0.00     0.016 A
HETATM    7  C11 UNL     1     -13.092   0.151  60.526  1.00  0.00     0.040 A
HETATM    8  C12 UNL     1     -14.098  -0.049  59.570  1.00  0.00     0.105 A
HETATM    9  C13 UNL     1     -13.841   0.285  58.264  1.00  0.00     0.105 A
HETATM   10  C14 UNL     1     -12.625   0.794  57.953  1.00  0.00     0.053 A
HETATM   11  O4  UNL     1     -14.959   0.012  57.488  1.00  0.00    -0.323 OA
HETATM   12  C15 UNL     1     -15.825  -0.758  58.315  1.00  0.00     0.352 C
HETATM   13  O5  UNL     1     -15.378  -0.536  59.635  1.00  0.00    -0.323 OA
HETATM   14  C16 UNL     1     -10.135   3.052  58.473  1.00  0.00     0.239 C
ENDROOT
BRANCH   1  15
HETATM   15  N3  UNL     1      -8.584   3.819  56.813  1.00  0.00    -0.328 N
ATOM     16  H3  UNL     1      -8.848   4.799  56.710  1.00  0.00     0.180 HD
BRANCH  15  17
HETATM   17  C6  UNL     1      -7.976   3.096  55.756  1.00  0.00     0.242 C
BRANCH  17  18
HETATM   18  C5  UNL     1      -7.262   4.025  54.854  1.00  0.00     0.241 C
HETATM   19  N2  UNL     1      -7.161   5.392  55.146  1.00  0.00    -0.320 N
ATOM     20  H2  UNL     1      -7.589   5.754  55.999  1.00  0.00     0.169 HD
HETATM   21  O3  UNL     1      -6.712   3.597  53.775  1.00  0.00    -0.271 OA
BRANCH  19  22
HETATM   22  C4  UNL     1      -6.463   6.301  54.262  1.00  0.00     0.124 A
HETATM   23  C3  UNL     1      -7.122   6.988  53.268  1.00  0.00     0.148 A
HETATM   24  C2  UNL     1      -6.159   7.749  52.630  1.00  0.00     0.180 A
HETATM   25  N1  UNL     1      -4.979   7.510  53.234  1.00  0.00    -0.309 N
HETATM   26  C1  UNL     1      -3.709   8.116  52.863  1.00  0.00     0.161 C
HETATM   27  C18 UNL     1      -5.135   6.627  54.237  1.00  0.00     0.174 A
BRANCH  23  28
HETATM   28  O2  UNL     1      -8.471   6.947  52.947  1.00  0.00    -0.355 OA
ATOM     29  H2  UNL     1      -8.862   6.436  52.248  1.00  0.00     0.218 HD
ENDBRANCH  23  28
BRANCH  24  30
HETATM   30  O1  UNL     1      -6.420   8.596  51.555  1.00  0.00    -0.344 OA
ATOM     31  H1  UNL     1      -6.459   9.546  51.551  1.00  0.00     0.219 HD
ENDBRANCH  24  30
BRANCH  27  32
HETATM   32  O7  UNL     1      -4.158   6.126  55.097  1.00  0.00    -0.344 OA
ATOM     33  H7  UNL     1      -3.921   5.217  55.245  1.00  0.00     0.219 HD
ENDBRANCH  27  32
ENDBRANCH  19  22
ENDBRANCH  17  18
ENDBRANCH  15  17
ENDBRANCH   1  15
BRANCH  14  34
HETATM   34  C17 UNL     1     -10.169   3.656  59.797  1.00  0.00     0.261 C
HETATM   35  N7  UNL     1      -9.775   5.003  60.014  1.00  0.00    -0.060 NA
HETATM   36  O6  UNL     1     -10.546   3.022  60.817  1.00  0.00    -0.274 OA
ENDBRANCH  14  34
BRANCH   3  37
HETATM   37  N6  UNL     1      -8.804   0.870  60.128  1.00  0.00    -0.357 NA
ATOM     38  H62 UNL     1      -8.137   1.514  60.553  1.00  0.00     0.171 HD
ATOM     39  H61 UNL     1      -8.386  -0.032  60.354  1.00  0.00     0.171 HD
ENDBRANCH   3  37
TORSDOF 9
ENDMDL