MODEL 2
REMARK VINA RESULT: -7.439483808      0.425      1.115
REMARK  8 active torsions:
REMARK  status: ('A' for Active; 'I' for Inactive)
REMARK    1  A    between atoms: C3_7  and  N3_8
REMARK    2  A    between atoms: C5_16  and  N7_17
REMARK    3  A    between atoms: N7_17  and  C6_19
REMARK    4  A    between atoms: C6_19  and  C7_20
REMARK    5  A    between atoms: C9_22  and  N8_23
REMARK       I    between atoms: N8_23  and  C10_25
REMARK    6  A    between atoms: C10_25  and  C11_27
REMARK    7  A    between atoms: C14_32  and  N10_33
REMARK    8  A    between atoms: C16_41  and  N13_42
ROOT
HETATM    1  C7  UNL     1      -6.312   2.828  56.225  1.00  0.00     0.005 A
HETATM    2  C8  UNL     1      -7.496   2.143  56.532  1.00  0.00     0.043 A
HETATM    3  C9  UNL     1      -8.012   2.106  57.799  1.00  0.00     0.051 A
HETATM    4  C15 UNL     1      -7.334   2.785  58.819  1.00  0.00     0.119 A
HETATM    5  N12 UNL     1      -6.223   3.443  58.529  1.00  0.00    -0.350 N
ATOM      6  H12 UNL     1      -5.738   3.945  59.273  1.00  0.00     0.166 HD
HETATM    7  C16 UNL     1      -5.713   3.472  57.287  1.00  0.00     0.106 A
ENDROOT
BRANCH   1   8
HETATM    8  C6  UNL     1      -5.613   2.699  54.962  1.00  0.00     0.162 C
BRANCH   8   9
HETATM    9  N7  UNL     1      -5.991   3.615  53.888  1.00  0.00    -0.378 N
ATOM     10  H7  UNL     1      -6.917   3.574  53.460  1.00  0.00     0.160 HD
BRANCH   9  11
HETATM   11  C5  UNL     1      -5.032   4.560  53.464  1.00  0.00     0.144 A
HETATM   12  C3  UNL     1      -4.090   4.275  52.539  1.00  0.00     0.166 A
HETATM   13  N2  UNL     1      -3.224   5.312  52.258  1.00  0.00    -0.291 N
HETATM   14  C2  UNL     1      -3.305   6.507  52.852  1.00  0.00     0.330 A
ATOM     15  H2  UNL     1      -2.489   5.160  51.567  1.00  0.00     0.172 HD
HETATM   16  N1  UNL     1      -4.233   6.791  53.767  1.00  0.00    -0.269 N
HETATM   17  O1  UNL     1      -2.475   7.442  52.549  1.00  0.00    -0.246 OA
HETATM   18  C1  UNL     1      -4.365   8.032  54.471  1.00  0.00     0.164 C
HETATM   19  C17 UNL     1      -5.120   5.799  54.083  1.00  0.00     0.281 A
HETATM   20  O3  UNL     1      -5.975   6.040  54.918  1.00  0.00    -0.265 OA
BRANCH  12  21
HETATM   21  N3  UNL     1      -3.927   3.063  51.882  1.00  0.00    -0.216 N
HETATM   22  C4  UNL     1      -3.303   1.945  52.150  1.00  0.00     0.228 A
HETATM   23  N4  UNL     1      -3.448   1.017  51.148  1.00  0.00    -0.279 N
HETATM   24  N5  UNL     1      -4.198   1.624  50.232  1.00  0.00    -0.227 N
ATOM     25  H4  UNL     1      -3.066   0.073  51.114  1.00  0.00     0.189 HD
HETATM   26  N6  UNL     1      -4.490   2.830  50.653  1.00  0.00    -0.219 N
ATOM     27  H5  UNL     1      -4.497   1.216  49.346  1.00  0.00     0.210 HD
ATOM     28  H6  UNL     1      -5.057   3.503  50.138  1.00  0.00     0.210 HD
ENDBRANCH  12  21
ENDBRANCH   9  11
ENDBRANCH   8   9
ENDBRANCH   1   8
BRANCH   7  29
HETATM   29  N13 UNL     1      -4.645   4.188  57.129  1.00  0.00    -0.385 N
ATOM     30 2H13 UNL     1      -3.837   3.706  56.734  1.00  0.00     0.157 HD
ATOM     31 1H13 UNL     1      -4.610   5.164  57.421  1.00  0.00     0.157 HD
ENDBRANCH   7  29
BRANCH   3  32
HETATM   32  N8  UNL     1      -9.207   1.385  58.197  1.00  0.00    -0.319 N
HETATM   33  C10 UNL     1     -10.441   2.046  58.040  1.00  0.00     0.290 C
HETATM   34  O2  UNL     1     -10.567   3.250  57.617  1.00  0.00    -0.264 OA
ATOM     35  H8  UNL     1      -9.156   0.439  58.574  1.00  0.00     0.169 HD
BRANCH  33  36
HETATM   36  C11 UNL     1     -11.698   1.385  58.350  1.00  0.00     0.176 A
HETATM   37  N9  UNL     1     -12.562   1.115  57.357  1.00  0.00    -0.348 N
HETATM   38  C12 UNL     1     -13.730   0.499  57.519  1.00  0.00     0.093 A
ATOM     39  H9  UNL     1     -12.303   1.402  56.413  1.00  0.00     0.167 HD
HETATM   40  C13 UNL     1     -14.094   0.107  58.793  1.00  0.00     0.065 A
HETATM   41  C14 UNL     1     -13.200   0.387  59.824  1.00  0.00     0.101 A
HETATM   42  N11 UNL     1     -12.020   1.017  59.578  1.00  0.00    -0.324 N
ATOM     43  H11 UNL     1     -11.377   1.207  60.348  1.00  0.00     0.169 HD
BRANCH  41  44
HETATM   44  N10 UNL     1     -13.528   0.014  61.000  1.00  0.00    -0.385 N
ATOM     45 2H10 UNL     1     -12.836  -0.336  61.663  1.00  0.00     0.157 HD
ATOM     46 1H10 UNL     1     -14.515   0.067  61.249  1.00  0.00     0.157 HD
ENDBRANCH  41  44
ENDBRANCH  33  36
ENDBRANCH   3  32
TORSDOF 8
ENDMDL