MODEL 4
REMARK VINA RESULT: -9.794059880      3.349      4.907
REMARK  15 active torsions:
REMARK  status: ('A' for Active; 'I' for Inactive)
REMARK    1  A    between atoms: O1_2  and  C2_3
REMARK    2  A    between atoms: C2_3  and  C3_5
REMARK    3  A    between atoms: C7_9  and  S1_10
REMARK    4  A    between atoms: S1_10  and  C8_11
REMARK    5  A    between atoms: C8_11  and  C9_12
REMARK    6  A    between atoms: C9_12  and  N1_13
REMARK    7  A    between atoms: C9_12  and  C24_46
REMARK       I    between atoms: N1_13  and  C10_15
REMARK    8  A    between atoms: C10_15  and  C11_17
REMARK    9  A    between atoms: C14_20  and  N2_21
REMARK       I    between atoms: N2_21  and  C15_23
REMARK       I    between atoms: C15_23  and  N4_27
REMARK   10  A    between atoms: N4_27  and  S2_29
REMARK   11  A    between atoms: S2_29  and  C16_32
REMARK   12  A    between atoms: C19_35  and  N5_36
REMARK   13  A    between atoms: N6_38  and  O6_40
REMARK   14  A    between atoms: C24_46  and  O8_48
REMARK   15  A    between atoms: O8_48  and  C25_49
ROOT
HETATM    1  C11 UNL     1      14.163   2.340 -10.163  1.00  0.00     0.032 A
HETATM    2  C12 UNL     1      15.519   2.083 -10.103  1.00  0.00     0.019 A
HETATM    3  C13 UNL     1      16.222   1.595 -11.186  1.00  0.00     0.031 A
HETATM    4  C14 UNL     1      15.590   1.341 -12.393  1.00  0.00     0.049 A
HETATM    5  C22 UNL     1      14.238   1.593 -12.463  1.00  0.00     0.031 A
HETATM    6  C23 UNL     1      13.537   2.085 -11.361  1.00  0.00     0.019 A
ENDROOT
BRANCH   1   7
HETATM    7  C10 UNL     1      13.379   2.871  -9.059  1.00  0.00     0.252 C
HETATM    8  N1  UNL     1      12.933   4.217  -8.981  1.00  0.00    -0.342 N
ATOM      9  H1  UNL     1      13.176   4.849  -9.745  1.00  0.00     0.163 HD
HETATM   10  O3  UNL     1      13.054   2.115  -8.089  1.00  0.00    -0.268 OA
BRANCH   8  11
HETATM   11  C9  UNL     1      12.165   4.739  -7.894  1.00  0.00     0.194 C
BRANCH  11  12
HETATM   12  C8  UNL     1      12.893   5.705  -7.007  1.00  0.00     0.114 C
BRANCH  12  13
HETATM   13  S1  UNL     1      13.304   5.058  -5.387  1.00  0.00    -0.127 SA
BRANCH  13  14
HETATM   14  C7  UNL     1      14.656   3.911  -5.481  1.00  0.00     0.001 A
HETATM   15  C6  UNL     1      15.612   4.083  -6.451  1.00  0.00     0.018 A
HETATM   16  C5  UNL     1      16.700   3.213  -6.568  1.00  0.00     0.002 A
HETATM   17  C4  UNL     1      16.807   2.150  -5.675  1.00  0.00     0.017 A
HETATM   18  C3  UNL     1      15.846   1.962  -4.688  1.00  0.00     0.040 A
HETATM   19  C31 UNL     1      14.791   2.849  -4.615  1.00  0.00     0.036 A
BRANCH  18  20
HETATM   20  C2  UNL     1      15.939   0.860  -3.743  1.00  0.00     0.292 C
HETATM   21  O2  UNL     1      17.011   0.574  -3.199  1.00  0.00    -0.259 OA
BRANCH  20  22
HETATM   22  O1  UNL     1      14.797   0.124  -3.453  1.00  0.00    -0.323 OA
HETATM   23  C1  UNL     1      14.758  -1.290  -3.605  1.00  0.00     0.213 C
ENDBRANCH  20  22
ENDBRANCH  18  20
ENDBRANCH  13  14
ENDBRANCH  12  13
ENDBRANCH  11  12
BRANCH  11  24
HETATM   24  C24 UNL     1      11.014   5.506  -8.509  1.00  0.00     0.287 C
HETATM   25  O7  UNL     1      10.253   4.978  -9.374  1.00  0.00    -0.262 OA
BRANCH  24  26
HETATM   26  O8  UNL     1      10.747   6.812  -8.154  1.00  0.00    -0.277 OA
BRANCH  26  27
HETATM   27  C25 UNL     1      10.854   7.871  -9.022  1.00  0.00     0.079 A
HETATM   28  C26 UNL     1      11.701   7.783 -10.096  1.00  0.00     0.037 A
HETATM   29  C27 UNL     1      11.812   8.862 -10.986  1.00  0.00     0.003 A
HETATM   30  C28 UNL     1      11.081  10.016 -10.800  1.00  0.00     0.000 A
HETATM   31  C29 UNL     1      10.231  10.085  -9.711  1.00  0.00     0.003 A
HETATM   32  C30 UNL     1      10.117   9.012  -8.821  1.00  0.00     0.037 A
ENDBRANCH  26  27
ENDBRANCH  24  26
ENDBRANCH  11  24
ENDBRANCH   8  11
ENDBRANCH   1   7
BRANCH   4  33
HETATM   33  N2  UNL     1      16.304   0.833 -13.520  1.00  0.00    -0.192 N
HETATM   34  C15 UNL     1      17.685   1.097 -13.658  1.00  0.00     0.686 C
HETATM   35  N3  UNL     1      18.505   0.154 -13.303  1.00  0.00    -0.234 N
HETATM   36  N4  UNL     1      18.256   2.287 -14.145  1.00  0.00    -0.113 N
ATOM     37  H32 UNL     1      18.092  -0.709 -12.949  1.00  0.00     0.174 HD
ATOM     38  H31 UNL     1      19.502   0.344 -13.402  1.00  0.00     0.174 HD
ATOM     39  H4  UNL     1      18.509   3.054 -13.522  1.00  0.00     0.197 HD
ATOM     40  H2  UNL     1      15.818   0.281 -14.226  1.00  0.00     0.184 HD
BRANCH  36  41
HETATM   41  S2  UNL     1      18.508   2.387 -15.865  1.00  0.00     0.276 S
HETATM   42  O4  UNL     1      18.962   1.047 -16.399  1.00  0.00    -0.200 OA
HETATM   43  O5  UNL     1      19.487   3.471 -16.190  1.00  0.00    -0.200 OA
BRANCH  41  44
HETATM   44  C16 UNL     1      16.947   2.784 -16.562  1.00  0.00     0.080 A
HETATM   45  C17 UNL     1      16.288   3.905 -16.152  1.00  0.00     0.027 A
HETATM   46  C18 UNL     1      15.049   4.229 -16.701  1.00  0.00     0.032 A
HETATM   47  C19 UNL     1      14.466   3.436 -17.658  1.00  0.00     0.050 A
HETATM   48  C20 UNL     1      15.124   2.306 -18.075  1.00  0.00     0.032 A
HETATM   49  C21 UNL     1      16.365   1.975 -17.531  1.00  0.00     0.027 A
BRANCH  47  50
HETATM   50  N5  UNL     1      13.208   3.807 -18.184  1.00  0.00    -0.282 N
HETATM   51  N6  UNL     1      12.117   3.478 -17.637  1.00  0.00    -0.210 N
ATOM     52  H6  UNL     1      11.236   3.772 -18.059  1.00  0.00     0.215 HD
ATOM     53  H5  UNL     1      13.180   4.363 -19.039  1.00  0.00     0.189 HD
BRANCH  51  54
HETATM   54  O6  UNL     1      12.097   2.731 -16.487  1.00  0.00    -0.274 OA
ATOM     55  H6  UNL     1      11.281   2.406 -16.126  1.00  0.00     0.246 HD
ENDBRANCH  51  54
ENDBRANCH  47  50
ENDBRANCH  41  44
ENDBRANCH  36  41
ENDBRANCH   4  33
TORSDOF 15
ENDMDL