MODEL 1
REMARK VINA RESULT: -11.845818894      0.000      0.000
REMARK  17 active torsions:
REMARK  status: ('A' for Active; 'I' for Inactive)
REMARK    1  A    between atoms: S1_2  and  C2_3
REMARK    2  A    between atoms: C7_8  and  N1_9
REMARK       I    between atoms: N1_9  and  C8_11
REMARK    3  A    between atoms: C8_11  and  C9_13
REMARK    4  A    between atoms: C9_13  and  N2_14
REMARK    5  A    between atoms: C9_13  and  C29_51
REMARK    6  A    between atoms: N2_14  and  C10_16
REMARK    7  A    between atoms: C10_16  and  O2_17
REMARK    8  A    between atoms: C10_16  and  C11_19
REMARK    9  A    between atoms: C11_19  and  N3_20
REMARK       I    between atoms: N3_20  and  C12_22
REMARK   10  A    between atoms: C12_22  and  C13_24
REMARK   11  A    between atoms: C16_27  and  N4_28
REMARK   12  A    between atoms: N4_28  and  N5_30
REMARK   13  A    between atoms: C17_33  and  C18_34
REMARK   14  A    between atoms: C21_37  and  N7_38
REMARK   15  A    between atoms: C24_45  and  S2_46
REMARK   16  A    between atoms: C29_51  and  O6_52
REMARK   17  A    between atoms: N9_54  and  O7_56
ROOT
HETATM    1  N3  UNL     1      14.897  -2.409  -5.230  1.00  0.00    -0.329 N
ATOM      2  H3  UNL     1      14.810  -1.822  -6.060  1.00  0.00     0.168 HD
HETATM    3  C12 UNL     1      14.678  -1.544  -4.267  1.00  0.00     0.256 C
HETATM    4  O3  UNL     1      14.719  -1.888  -3.031  1.00  0.00    -0.267 OA
ENDROOT
BRANCH   3   5
HETATM    5  C13 UNL     1      14.365  -0.101  -4.429  1.00  0.00     0.038 A
HETATM    6  C14 UNL     1      13.243   0.295  -5.120  1.00  0.00     0.020 A
HETATM    7  C15 UNL     1      12.935   1.643  -5.261  1.00  0.00     0.032 A
HETATM    8  C16 UNL     1      13.733   2.614  -4.720  1.00  0.00     0.050 A
HETATM    9  C26 UNL     1      14.854   2.231  -4.030  1.00  0.00     0.038 A
HETATM   10  C27 UNL     1      15.158   0.889  -3.892  1.00  0.00    -0.044 A
HETATM   11  C28 UNL     1      16.413   0.540  -3.125  1.00  0.00     0.049 C
BRANCH   8  12
HETATM   12  N4  UNL     1      13.389   3.979  -4.877  1.00  0.00    -0.278 N
ATOM     13  H4  UNL     1      13.109   4.523  -4.061  1.00  0.00     0.189 HD
BRANCH  12  14
HETATM   14  N5  UNL     1      13.427   4.596  -6.141  1.00  0.00    -0.171 N
HETATM   15  N6  UNL     1      12.584   5.498  -6.594  1.00  0.00    -0.261 N
HETATM   16  C17 UNL     1      12.908   5.899  -7.830  1.00  0.00     0.134 A
ATOM     17  H6  UNL     1      11.783   5.850  -6.069  1.00  0.00     0.191 HD
HETATM   18  N8  UNL     1      13.997   5.225  -8.177  1.00  0.00    -0.318 N
HETATM   19  C24 UNL     1      14.315   4.417  -7.123  1.00  0.00     0.184 A
ATOM     20  H8  UNL     1      14.500   5.296  -9.061  1.00  0.00     0.169 HD
BRANCH  16  21
HETATM   21  C18 UNL     1      12.136   6.908  -8.600  1.00  0.00     0.009 A
HETATM   22  C19 UNL     1      12.216   6.918  -9.972  1.00  0.00     0.018 A
HETATM   23  C20 UNL     1      11.521   7.819 -10.707  1.00  0.00     0.037 A
HETATM   24  C21 UNL     1      10.716   8.746 -10.069  1.00  0.00     0.102 A
HETATM   25  C22 UNL     1      10.621   8.750  -8.685  1.00  0.00     0.037 A
HETATM   26  C23 UNL     1      11.337   7.824  -7.955  1.00  0.00     0.018 A
BRANCH  24  27
HETATM   27  N7  UNL     1      10.007   9.668 -10.870  1.00  0.00    -0.116 N
HETATM   28  O4  UNL     1       9.603  10.722 -10.362  1.00  0.00    -0.532 OA
HETATM   29  O5  UNL     1       9.771   9.407 -12.179  1.00  0.00    -0.532 OA
ENDBRANCH  24  27
ENDBRANCH  16  21
BRANCH  19  30
HETATM   30  S2  UNL     1      15.710   3.288  -7.079  1.00  0.00    -0.095 SA
HETATM   31  C25 UNL     1      16.182   2.768  -8.741  1.00  0.00     0.099 C
ENDBRANCH  19  30
ENDBRANCH  12  14
ENDBRANCH   8  12
ENDBRANCH   3   5
BRANCH   1  32
HETATM   32  C11 UNL     1      15.139  -3.481  -5.714  1.00  0.00     0.146 C
BRANCH  32  33
HETATM   33  C10 UNL     1      15.966  -4.599  -5.322  1.00  0.00     0.152 C
BRANCH  33  34
HETATM   34  N2  UNL     1      15.979  -5.263  -4.087  1.00  0.00    -0.350 N
ATOM     35  H2  UNL     1      15.105  -5.436  -3.591  1.00  0.00     0.163 HD
BRANCH  34  36
HETATM   36  C9  UNL     1      17.267  -5.715  -3.502  1.00  0.00     0.253 C
BRANCH  36  37
HETATM   37  C8  UNL     1      16.925  -6.755  -2.462  1.00  0.00     0.253 C
HETATM   38  N1  UNL     1      15.679  -6.638  -1.818  1.00  0.00    -0.324 N
ATOM     39  H1  UNL     1      15.092  -5.853  -2.099  1.00  0.00     0.169 HD
HETATM   40  O1  UNL     1      17.750  -7.633  -2.241  1.00  0.00    -0.270 OA
BRANCH  38  41
HETATM   41  C7  UNL     1      15.155  -7.494  -0.822  1.00  0.00     0.051 A
HETATM   42  C2  UNL     1      14.041  -8.270  -1.168  1.00  0.00     0.026 A
HETATM   43  C3  UNL     1      13.511  -9.119  -0.255  1.00  0.00     0.021 A
HETATM   44  C4  UNL     1      14.032  -9.247   1.011  1.00  0.00     0.002 A
HETATM   45  C5  UNL     1      15.119  -8.495   1.357  1.00  0.00     0.002 A
HETATM   46  C6  UNL     1      15.695  -7.612   0.453  1.00  0.00     0.031 A
BRANCH  42  47
HETATM   47  S1  UNL     1      13.331  -8.101  -2.787  1.00  0.00    -0.132 SA
HETATM   48  C1  UNL     1      14.325  -8.889  -4.070  1.00  0.00     0.095 C
ENDBRANCH  42  47
ENDBRANCH  38  41
ENDBRANCH  36  37
BRANCH  36  49
HETATM   49  C29 UNL     1      17.897  -4.576  -2.826  1.00  0.00     0.168 C
HETATM   50  N9  UNL     1      17.292  -3.759  -2.110  1.00  0.00    -0.249 N
ATOM     51  H9  UNL     1      17.841  -3.009  -1.691  1.00  0.00     0.196 HD
BRANCH  49  52
HETATM   52  O6  UNL     1      19.281  -4.410  -3.013  1.00  0.00    -0.346 OA
ATOM     53  H6  UNL     1      19.700  -4.980  -3.646  1.00  0.00     0.219 HD
ENDBRANCH  49  52
BRANCH  50  54
HETATM   54  O7  UNL     1      15.969  -3.781  -1.839  1.00  0.00    -0.288 OA
ATOM     55  H7  UNL     1      15.474  -3.072  -1.445  1.00  0.00     0.244 HD
ENDBRANCH  50  54
ENDBRANCH  36  49
ENDBRANCH  34  36
ENDBRANCH  33  34
BRANCH  33  56
HETATM   56  O2  UNL     1      16.799  -5.055  -6.210  1.00  0.00    -0.345 OA
ATOM     57  H2  UNL     1      17.153  -5.919  -6.031  1.00  0.00     0.219 HD
ENDBRANCH  33  56
ENDBRANCH  32  33
ENDBRANCH   1  32
TORSDOF 17
ENDMDL