MODEL 1
REMARK VINA RESULT: -10.662002369      0.000      0.000
REMARK  14 active torsions:
REMARK  status: ('A' for Active; 'I' for Inactive)
REMARK    1  A    between atoms: O1_2  and  C2_3
REMARK    2  A    between atoms: C4_5  and  C5_6
REMARK    3  A    between atoms: N1_7  and  N2_9
REMARK       I    between atoms: N2_9  and  C6_11
REMARK    4  A    between atoms: C6_11  and  C7_13
REMARK    5  A    between atoms: C11_18  and  C12_19
REMARK    6  A    between atoms: C14_21  and  C15_22
REMARK    7  A    between atoms: C16_23  and  C17_24
REMARK    8  A    between atoms: C20_27  and  C21_28
REMARK    9  A    between atoms: C22_31  and  O5_32
REMARK   10  A    between atoms: C25_36  and  O6_37
REMARK   11  A    between atoms: C27_39  and  O7_40
REMARK   12  A    between atoms: C29_42  and  O8_43
REMARK   13  A    between atoms: O8_43  and  S1_44
REMARK   14  A    between atoms: C33_51  and  O12_52
ROOT
HETATM    1  C7  UNL     1      13.221  -0.118  -7.685  1.00  0.00     0.037 A
HETATM    2  C8  UNL     1      12.000  -0.324  -8.322  1.00  0.00     0.040 A
HETATM    3  C9  UNL     1      11.567   0.552  -9.284  1.00  0.00     0.059 A
HETATM    4  C10 UNL     1      10.307   0.333  -9.936  1.00  0.00     0.100 C
HETATM    5  N3  UNL     1       9.283   0.164 -10.452  1.00  0.00    -0.191 NA
HETATM    6  C11 UNL     1      12.345   1.664  -9.641  1.00  0.00     0.033 A
HETATM    7  C29 UNL     1      13.540   1.873  -9.026  1.00  0.00     0.105 A
HETATM    8  C30 UNL     1      13.964   0.966  -8.044  1.00  0.00     0.056 A
ENDROOT
BRANCH   6   9
HETATM    9  C12 UNL     1      11.910   2.536 -10.727  1.00  0.00     0.015 A
HETATM   10  C13 UNL     1      12.252   2.210 -12.017  1.00  0.00     0.027 A
HETATM   11  C14 UNL     1      11.973   3.000 -13.143  1.00  0.00    -0.033 A
HETATM   12  C24 UNL     1      11.311   4.173 -12.903  1.00  0.00     0.051 A
HETATM   13  C25 UNL     1      10.955   4.522 -11.614  1.00  0.00     0.103 A
HETATM   14  C27 UNL     1      11.235   3.734 -10.513  1.00  0.00     0.112 A
BRANCH  11  15
HETATM   15  C15 UNL     1      12.253   2.536 -14.471  1.00  0.00     0.012 C
HETATM   16  C16 UNL     1      13.182   2.581 -15.328  1.00  0.00     0.012 C
BRANCH  16  17
HETATM   17  C17 UNL     1      14.506   3.095 -15.492  1.00  0.00    -0.034 A
HETATM   18  C18 UNL     1      14.803   3.943 -16.581  1.00  0.00     0.012 A
HETATM   19  C19 UNL     1      16.069   4.361 -16.825  1.00  0.00     0.022 A
HETATM   20  C20 UNL     1      17.163   3.992 -16.030  1.00  0.00     0.073 A
HETATM   21  C22 UNL     1      16.889   3.168 -14.969  1.00  0.00     0.083 A
HETATM   22  C23 UNL     1      15.574   2.740 -14.725  1.00  0.00     0.049 A
BRANCH  20  23
HETATM   23  C21 UNL     1      18.485   4.488 -16.365  1.00  0.00     0.212 C
HETATM   24  O3  UNL     1      19.366   4.761 -15.542  1.00  0.00    -0.644 OA
HETATM   25  O4  UNL     1      18.802   4.676 -17.706  1.00  0.00    -0.644 OA
ENDBRANCH  20  23
BRANCH  21  26
HETATM   26  O5  UNL     1      17.862   2.737 -14.121  1.00  0.00    -0.360 OA
ATOM     27  H5  UNL     1      17.929   3.057 -13.229  1.00  0.00     0.217 HD
ENDBRANCH  21  26
ENDBRANCH  16  17
ENDBRANCH  11  15
BRANCH  13  28
HETATM   28  O6  UNL     1      10.277   5.740 -11.429  1.00  0.00    -0.353 OA
HETATM   29  C26 UNL     1      10.918   6.979 -11.655  1.00  0.00     0.210 C
ENDBRANCH  13  28
BRANCH  14  30
HETATM   30  O7  UNL     1      10.850   4.121  -9.275  1.00  0.00    -0.352 OA
HETATM   31  C28 UNL     1      11.209   5.054  -8.365  1.00  0.00     0.210 C
ENDBRANCH  14  30
ENDBRANCH   6   9
BRANCH   1  32
HETATM   32  C6  UNL     1      13.705  -1.028  -6.666  1.00  0.00     0.270 C
HETATM   33  N2  UNL     1      14.039  -2.374  -6.948  1.00  0.00    -0.266 N
ATOM     34  H2  UNL     1      13.952  -2.763  -7.887  1.00  0.00     0.190 HD
HETATM   35  O2  UNL     1      13.822  -0.557  -5.483  1.00  0.00    -0.266 OA
BRANCH  33  36
HETATM   36  N1  UNL     1      14.502  -3.157  -5.854  1.00  0.00    -0.308 N
HETATM   37  C5  UNL     1      15.528  -3.907  -6.089  1.00  0.00     0.118 C
ATOM     38  H1  UNL     1      14.051  -3.127  -4.939  1.00  0.00     0.186 HD
BRANCH  37  39
HETATM   39  C4  UNL     1      16.075  -4.747  -5.027  1.00  0.00    -0.017 A
HETATM   40  C3  UNL     1      15.583  -5.991  -4.788  1.00  0.00     0.052 A
HETATM   41  C2  UNL     1      16.099  -6.781  -3.789  1.00  0.00     0.102 A
HETATM   42  C33 UNL     1      17.132  -6.325  -3.004  1.00  0.00     0.099 A
HETATM   43  C32 UNL     1      17.619  -5.066  -3.256  1.00  0.00     0.040 A
HETATM   44  C31 UNL     1      17.097  -4.279  -4.259  1.00  0.00     0.016 A
BRANCH  41  45
HETATM   45  O1  UNL     1      15.600  -8.048  -3.544  1.00  0.00    -0.353 OA
HETATM   46  C1  UNL     1      14.406  -8.186  -2.811  1.00  0.00     0.210 C
ENDBRANCH  41  45
BRANCH  42  47
HETATM   47  O12 UNL     1      17.685  -7.083  -1.985  1.00  0.00    -0.358 OA
ATOM     48  H12 UNL     1      17.575  -6.863  -1.067  1.00  0.00     0.217 HD
ENDBRANCH  42  47
ENDBRANCH  37  39
ENDBRANCH  33  36
ENDBRANCH   1  32
BRANCH   7  49
HETATM   49  O8  UNL     1      14.361   2.909  -9.322  1.00  0.00    -0.213 OA
BRANCH  49  50
HETATM   50  S1  UNL     1      14.930   4.074  -8.279  1.00  0.00     0.257 S
HETATM   51  O9  UNL     1      14.655   5.463  -8.797  1.00  0.00    -0.572 OA
HETATM   52  O10 UNL     1      16.400   3.978  -7.982  1.00  0.00    -0.572 OA
HETATM   53  O11 UNL     1      14.178   3.950  -6.751  1.00  0.00    -0.572 OA
ENDBRANCH  49  50
ENDBRANCH   7  49
TORSDOF 14
ENDMDL