MODEL 1
REMARK VINA RESULT: -10.436174242      0.000      0.000
REMARK  16 active torsions:
REMARK  status: ('A' for Active; 'I' for Inactive)
REMARK    1  A    between atoms: O1_2  and  C2_3
REMARK    2  A    between atoms: C4_5  and  C5_6
REMARK    3  A    between atoms: N1_11  and  C8_12
REMARK    4  A    between atoms: C8_12  and  C9_13
REMARK       I    between atoms: C9_13  and  N2_15
REMARK    5  A    between atoms: N2_15  and  N3_17
REMARK       I    between atoms: N3_17  and  C10_19
REMARK       I    between atoms: C10_19  and  N4_21
REMARK    6  A    between atoms: N4_21  and  C11_23
REMARK    7  A    between atoms: C13_25  and  O5_26
REMARK    8  A    between atoms: C14_28  and  C15_29
REMARK    9  A    between atoms: C15_29  and  O7_31
REMARK   10  A    between atoms: O7_31  and  C16_32
REMARK   11  A    between atoms: C16_32  and  C18_34
REMARK   12  A    between atoms: C20_36  and  C21_37
REMARK   13  A    between atoms: C21_37  and  C22_38
REMARK   14  A    between atoms: C25_41  and  O8_42
REMARK   15  A    between atoms: C30_48  and  O10_49
REMARK   16  A    between atoms: C32_51  and  O11_52
ROOT
HETATM    1  N3  UNL     1      12.981   1.883  -6.283  1.00  0.00    -0.249 N
ATOM      2  H3  UNL     1      12.025   1.752  -5.950  1.00  0.00     0.192 HD
HETATM    3  C10 UNL     1      13.979   0.899  -5.956  1.00  0.00     0.339 C
HETATM    4  O4  UNL     1      15.135   1.095  -6.375  1.00  0.00    -0.245 OA
HETATM    5  N4  UNL     1      13.572  -0.213  -5.185  1.00  0.00    -0.307 N
ATOM      6  H4  UNL     1      12.590  -0.248  -4.909  1.00  0.00     0.170 HD
ENDROOT
BRANCH   1   7
HETATM    7  N2  UNL     1      13.286   2.999  -7.037  1.00  0.00    -0.265 N
HETATM    8  C9  UNL     1      13.244   4.328  -6.545  1.00  0.00     0.254 C
HETATM    9  O3  UNL     1      12.943   4.608  -5.369  1.00  0.00    -0.270 OA
ATOM     10  H2  UNL     1      13.558   2.859  -8.011  1.00  0.00     0.190 HD
BRANCH   8  11
HETATM   11  C8  UNL     1      13.568   5.445  -7.469  1.00  0.00     0.240 C
BRANCH  11  12
HETATM   12  N1  UNL     1      12.477   5.636  -8.445  1.00  0.00    -0.265 N
HETATM   13  C7  UNL     1      11.545   6.665  -8.266  1.00  0.00     0.294 A
HETATM   14  S1  UNL     1      10.487   6.623  -9.700  1.00  0.00    -0.023 SA
HETATM   15  O2  UNL     1      11.414   7.487  -7.327  1.00  0.00    -0.259 OA
HETATM   16  C6  UNL     1      11.237   5.151 -10.459  1.00  0.00     0.079 A
HETATM   17  C5  UNL     1      10.802   4.626 -11.578  1.00  0.00     0.036 C
HETATM   18  C28 UNL     1      12.340   4.837  -9.572  1.00  0.00     0.268 A
HETATM   19  O9  UNL     1      13.141   3.858  -9.847  1.00  0.00    -0.266 OA
BRANCH  17  20
HETATM   20  C4  UNL     1      11.303   3.470 -12.275  1.00  0.00    -0.029 A
HETATM   21  C3  UNL     1      12.237   3.440 -13.267  1.00  0.00     0.051 A
HETATM   22  C2  UNL     1      12.598   2.252 -13.913  1.00  0.00     0.104 A
HETATM   23  C32 UNL     1      12.013   1.061 -13.560  1.00  0.00     0.133 A
HETATM   24  C30 UNL     1      11.071   1.057 -12.561  1.00  0.00     0.104 A
HETATM   25  C29 UNL     1      10.731   2.230 -11.943  1.00  0.00     0.051 A
BRANCH  22  26
HETATM   26  O1  UNL     1      13.543   2.301 -14.904  1.00  0.00    -0.353 OA
HETATM   27  C1  UNL     1      14.824   2.823 -14.742  1.00  0.00     0.210 C
ENDBRANCH  22  26
BRANCH  23  28
HETATM   28  O11 UNL     1      12.325  -0.147 -14.158  1.00  0.00    -0.356 OA
ATOM     29  H11 UNL     1      12.139  -0.990 -13.761  1.00  0.00     0.218 HD
ENDBRANCH  23  28
BRANCH  24  30
HETATM   30  O10 UNL     1      10.454  -0.135 -12.172  1.00  0.00    -0.353 OA
HETATM   31  C31 UNL     1       9.515  -0.120 -11.097  1.00  0.00     0.210 C
ENDBRANCH  24  30
ENDBRANCH  17  20
ENDBRANCH  11  12
ENDBRANCH   8  11
ENDBRANCH   1   7
BRANCH   5  32
HETATM   32  C11 UNL     1      14.395  -1.282  -4.762  1.00  0.00     0.041 A
HETATM   33  C12 UNL     1      15.035  -1.358  -3.557  1.00  0.00     0.067 A
HETATM   34  C13 UNL     1      15.863  -2.468  -3.238  1.00  0.00     0.086 A
HETATM   35  C14 UNL     1      16.056  -3.497  -4.111  1.00  0.00     0.105 A
HETATM   36  C25 UNL     1      15.383  -3.394  -5.340  1.00  0.00     0.089 A
HETATM   37  C27 UNL     1      14.599  -2.344  -5.646  1.00  0.00     0.067 A
BRANCH  34  38
HETATM   38  O5  UNL     1      16.449  -2.423  -2.000  1.00  0.00    -0.359 OA
ATOM     39  H5  UNL     1      15.851  -2.497  -1.265  1.00  0.00     0.217 HD
ENDBRANCH  34  38
BRANCH  35  40
HETATM   40  C15 UNL     1      16.886  -4.655  -3.873  1.00  0.00     0.299 C
HETATM   41  O6  UNL     1      17.848  -5.013  -4.576  1.00  0.00    -0.259 OA
BRANCH  40  42
HETATM   42  O7  UNL     1      16.613  -5.464  -2.774  1.00  0.00    -0.308 OA
BRANCH  42  43
HETATM   43  C16 UNL     1      15.689  -6.468  -2.662  1.00  0.00     0.156 C
HETATM   44  C17 UNL     1      15.387  -7.117  -4.037  1.00  0.00     0.045 C
BRANCH  43  45
HETATM   45  C18 UNL     1      16.024  -7.562  -1.710  1.00  0.00    -0.059 C
HETATM   46  C19 UNL     1      17.495  -7.857  -1.579  1.00  0.00     0.046 C
HETATM   47  C20 UNL     1      15.176  -8.253  -0.992  1.00  0.00    -0.021 C
BRANCH  47  48
HETATM   48  C21 UNL     1      13.705  -8.103  -0.958  1.00  0.00     0.031 C
BRANCH  48  49
HETATM   49  C22 UNL     1      13.130  -8.750   0.305  1.00  0.00    -0.019 C
HETATM   50  C23 UNL     1      14.271  -9.108   1.214  1.00  0.00     0.010 C
HETATM   51  C24 UNL     1      12.260  -9.938  -0.047  1.00  0.00     0.010 C
ENDBRANCH  48  49
ENDBRANCH  47  48
ENDBRANCH  43  45
ENDBRANCH  42  43
ENDBRANCH  40  42
ENDBRANCH  35  40
BRANCH  36  52
HETATM   52  O8  UNL     1      15.552  -4.424  -6.252  1.00  0.00    -0.355 OA
HETATM   53  C26 UNL     1      15.567  -4.200  -7.624  1.00  0.00     0.210 C
ENDBRANCH  36  52
ENDBRANCH   5  32
TORSDOF 16
ENDMDL