MODEL 1
REMARK VINA RESULT: -11.959374998      0.000      0.000
REMARK  15 active torsions:
REMARK  status: ('A' for Active; 'I' for Inactive)
REMARK    1  A    between atoms: N1_2  and  C2_4
REMARK    2  A    between atoms: C3_5  and  C4_6
REMARK    3  A    between atoms: C7_9  and  N2_10
REMARK    4  A    between atoms: C10_17  and  S1_18
REMARK    5  A    between atoms: S1_18  and  C11_19
REMARK    6  A    between atoms: C11_19  and  C12_20
REMARK    7  A    between atoms: C12_20  and  C13_22
REMARK    8  A    between atoms: C21_33  and  C22_34
REMARK    9  A    between atoms: C22_34  and  O5_35
REMARK   10  A    between atoms: C22_34  and  N5_37
REMARK   11  A    between atoms: N5_37  and  N6_38
REMARK       I    between atoms: N6_38  and  C23_40
REMARK   12  A    between atoms: C23_40  and  C24_42
REMARK   13  A    between atoms: C27_45  and  N7_46
REMARK   14  A    between atoms: N7_46  and  N8_48
REMARK   15  A    between atoms: N8_48  and  C28_49
ROOT
HETATM    1  C13 UNL     1      13.648   2.625 -14.774  1.00  0.00     0.102 A
HETATM    2  N4  UNL     1      13.731   3.524 -15.797  1.00  0.00    -0.319 N
ATOM      3  H4  UNL     1      12.886   3.853 -16.263  1.00  0.00     0.169 HD
HETATM    4  C14 UNL     1      14.948   3.972 -16.185  1.00  0.00     0.257 A
HETATM    5  O4  UNL     1      14.998   4.821 -17.146  1.00  0.00    -0.267 OA
HETATM    6  C15 UNL     1      16.103   3.530 -15.554  1.00  0.00     0.043 A
HETATM    7  C16 UNL     1      17.345   3.993 -15.950  1.00  0.00     0.018 A
HETATM    8  C17 UNL     1      18.516   3.574 -15.329  1.00  0.00     0.001 A
HETATM    9  C18 UNL     1      18.415   2.665 -14.281  1.00  0.00     0.001 A
HETATM   10  C19 UNL     1      17.189   2.180 -13.867  1.00  0.00     0.013 A
HETATM   11  C20 UNL     1      16.042   2.634 -14.524  1.00  0.00    -0.002 A
HETATM   12  C21 UNL     1      14.812   2.192 -14.145  1.00  0.00     0.073 A
ENDROOT
BRANCH   1  13
HETATM   13  C12 UNL     1      12.366   2.116 -14.362  1.00  0.00     0.206 C
HETATM   14  O3  UNL     1      12.189   0.851 -14.388  1.00  0.00    -0.285 OA
BRANCH  13  15
HETATM   15  C11 UNL     1      11.248   2.921 -13.913  1.00  0.00     0.110 C
BRANCH  15  16
HETATM   16  S1  UNL     1      11.017   3.181 -12.200  1.00  0.00    -0.061 SA
BRANCH  16  17
HETATM   17  C10 UNL     1      11.219   4.810 -11.537  1.00  0.00     0.152 A
HETATM   18  N3  UNL     1      10.694   5.907 -12.191  1.00  0.00    -0.333 N
HETATM   19  C3  UNL     1      10.928   7.039 -11.486  1.00  0.00     0.089 A
ATOM     20  H3  UNL     1      10.198   5.870 -13.081  1.00  0.00     0.168 HD
HETATM   21  C2  UNL     1      11.620   6.643 -10.355  1.00  0.00     0.132 A
HETATM   22  N9  UNL     1      11.780   5.306 -10.415  1.00  0.00    -0.316 N
HETATM   23  C33 UNL     1      12.485   4.465  -9.429  1.00  0.00     0.160 C
BRANCH  19  24
HETATM   24  C4  UNL     1      10.444   8.349 -11.879  1.00  0.00    -0.005 A
HETATM   25  C5  UNL     1      10.422   9.456 -11.088  1.00  0.00     0.016 A
HETATM   26  C6  UNL     1       9.935  10.688 -11.595  1.00  0.00     0.037 A
HETATM   27  C7  UNL     1       9.472  10.817 -12.876  1.00  0.00     0.102 A
HETATM   28  C8  UNL     1       9.510   9.673 -13.664  1.00  0.00     0.037 A
HETATM   29  C9  UNL     1       9.974   8.492 -13.198  1.00  0.00     0.016 A
BRANCH  27  30
HETATM   30  N2  UNL     1       8.961  12.043 -13.381  1.00  0.00    -0.116 N
HETATM   31  O1  UNL     1       7.821  12.051 -13.871  1.00  0.00    -0.532 OA
HETATM   32  O2  UNL     1       9.662  13.220 -13.337  1.00  0.00    -0.532 OA
ENDBRANCH  27  30
ENDBRANCH  19  24
BRANCH  21  33
HETATM   33  N1  UNL     1      12.009   7.537  -9.337  1.00  0.00    -0.379 N
HETATM   34  C1  UNL     1      11.423   7.794  -8.078  1.00  0.00     0.147 C
ATOM     35  H1  UNL     1      12.845   8.084  -9.542  1.00  0.00     0.160 HD
ENDBRANCH  21  33
ENDBRANCH  16  17
ENDBRANCH  15  16
ENDBRANCH  13  15
ENDBRANCH   1  13
BRANCH  12  36
HETATM   36  C22 UNL     1      14.764   1.259 -13.002  1.00  0.00     0.252 C
BRANCH  36  37
HETATM   37  O5  UNL     1      14.797   0.035 -13.447  1.00  0.00    -0.333 OA
ATOM     38  H5  UNL     1      14.082  -0.458 -13.061  1.00  0.00     0.220 HD
ENDBRANCH  36  37
BRANCH  36  39
HETATM   39  N5  UNL     1      14.698   1.547 -11.670  1.00  0.00    -0.296 NA
BRANCH  39  40
HETATM   40  N6  UNL     1      14.634   1.822 -10.375  1.00  0.00    -0.196 N
HETATM   41  C23 UNL     1      15.740   2.260  -9.567  1.00  0.00     0.280 C
HETATM   42  O6  UNL     1      16.875   2.470 -10.002  1.00  0.00    -0.265 OA
ATOM     43  H6  UNL     1      13.729   1.715  -9.916  1.00  0.00     0.205 HD
BRANCH  41  44
HETATM   44  C24 UNL     1      15.503   2.457  -8.125  1.00  0.00     0.034 A
HETATM   45  C25 UNL     1      14.371   1.905  -7.545  1.00  0.00     0.019 A
HETATM   46  C26 UNL     1      14.079   2.097  -6.215  1.00  0.00     0.033 A
HETATM   47  C27 UNL     1      14.924   2.853  -5.444  1.00  0.00     0.060 A
HETATM   48  C31 UNL     1      16.032   3.395  -5.993  1.00  0.00     0.033 A
HETATM   49  C32 UNL     1      16.327   3.193  -7.355  1.00  0.00     0.019 A
BRANCH  47  50
HETATM   50  N7  UNL     1      14.595   3.076  -4.055  1.00  0.00    -0.236 N
ATOM     51  H7  UNL     1      14.483   4.023  -3.692  1.00  0.00     0.202 HD
BRANCH  50  52
HETATM   52  N8  UNL     1      14.442   2.032  -3.268  1.00  0.00    -0.335 NA
BRANCH  52  53
HETATM   53  C28 UNL     1      14.496   0.896  -2.871  1.00  0.00     0.079 C
HETATM   54  C29 UNL     1      13.202   0.289  -2.286  1.00  0.00     0.081 C
HETATM   55  C30 UNL     1      15.698  -0.001  -2.880  1.00  0.00     0.081 C
ENDBRANCH  52  53
ENDBRANCH  50  52
ENDBRANCH  47  50
ENDBRANCH  41  44
ENDBRANCH  39  40
ENDBRANCH  36  39
ENDBRANCH  12  36
TORSDOF 15
ENDMDL