MODEL 4
REMARK VINA RESULT: -9.817247466      2.816      6.843
REMARK  18 active torsions:
REMARK  status: ('A' for Active; 'I' for Inactive)
REMARK    1  A    between atoms: O1_2  and  C2_3
REMARK    2  A    between atoms: C5_6  and  N1_7
REMARK    3  A    between atoms: N1_7  and  C6_9
REMARK    4  A    between atoms: C6_9  and  N2_10
REMARK    5  A    between atoms: C6_9  and  C21_36
REMARK    6  A    between atoms: N2_10  and  C7_11
REMARK    7  A    between atoms: C9_13  and  O2_14
REMARK    8  A    between atoms: C10_16  and  N3_17
REMARK    9  A    between atoms: N3_17  and  S1_19
REMARK   10  A    between atoms: S1_19  and  C11_22
REMARK   11  A    between atoms: C14_25  and  O5_26
REMARK   12  A    between atoms: C16_28  and  O6_29
REMARK   13  A    between atoms: C20_33  and  O7_34
REMARK   14  A    between atoms: C24_39  and  O8_40
REMARK   15  A    between atoms: C26_42  and  O9_43
REMARK   16  A    between atoms: C29_46  and  C30_47
REMARK   17  A    between atoms: C30_47  and  N4_49
REMARK   18  A    between atoms: N4_49  and  N5_51
ROOT
HETATM    1  C6  UNL     1      13.457   0.348  -9.145  1.00  0.00     0.190 C
ENDROOT
BRANCH   1   2
HETATM    2  N1  UNL     1      13.403  -0.218 -10.511  1.00  0.00    -0.330 N
ATOM      3  H1  UNL     1      13.614  -1.209 -10.626  1.00  0.00     0.168 HD
BRANCH   2   4
HETATM    4  C5  UNL     1      13.083   0.520 -11.647  1.00  0.00     0.048 A
HETATM    5  C4  UNL     1      11.796   0.636 -12.074  1.00  0.00     0.033 A
HETATM    6  C3  UNL     1      11.543   1.371 -13.219  1.00  0.00     0.039 A
HETATM    7  C2  UNL     1      12.567   1.972 -13.912  1.00  0.00     0.069 A
HETATM    8  C31 UNL     1      13.871   1.835 -13.450  1.00  0.00     0.053 A
HETATM    9  C29 UNL     1      14.155   1.112 -12.317  1.00  0.00     0.033 A
BRANCH   7  10
HETATM   10  O1  UNL     1      12.332   2.723 -15.071  1.00  0.00    -0.356 OA
HETATM   11  C1  UNL     1      12.768   2.253 -16.332  1.00  0.00     0.210 C
ENDBRANCH   7  10
BRANCH   9  12
HETATM   12  C30 UNL     1      15.518   0.976 -11.804  1.00  0.00     0.127 C
HETATM   13  S2  UNL     1      16.459  -0.296 -12.208  1.00  0.00    -0.058 SA
BRANCH  12  14
HETATM   14  N4  UNL     1      16.020   1.971 -10.940  1.00  0.00    -0.296 N
ATOM     15  H4  UNL     1      15.359   2.576 -10.454  1.00  0.00     0.187 HD
BRANCH  14  16
HETATM   16  N5  UNL     1      17.382   2.161 -10.724  1.00  0.00    -0.344 N
ATOM     17  H52 UNL     1      17.662   2.942 -10.131  1.00  0.00     0.176 HD
ATOM     18  H51 UNL     1      18.094   1.555 -11.133  1.00  0.00     0.176 HD
ENDBRANCH  14  16
ENDBRANCH  12  14
ENDBRANCH   9  12
ENDBRANCH   2   4
ENDBRANCH   1   2
BRANCH   1  19
HETATM   19  N2  UNL     1      13.316   1.507  -8.945  1.00  0.00    -0.384 NA
BRANCH  19  20
HETATM   20  C7  UNL     1      13.166   2.788  -8.733  1.00  0.00     0.145 A
HETATM   21  C8  UNL     1      12.610   3.563  -9.791  1.00  0.00     0.086 A
HETATM   22  C9  UNL     1      12.349   4.879  -9.727  1.00  0.00     0.096 A
HETATM   23  C10 UNL     1      12.637   5.572  -8.530  1.00  0.00     0.078 A
HETATM   24  C19 UNL     1      13.165   4.882  -7.503  1.00  0.00     0.073 A
HETATM   25  C20 UNL     1      13.434   3.499  -7.587  1.00  0.00     0.108 A
BRANCH  22  26
HETATM   26  O2  UNL     1      11.806   5.605 -10.781  1.00  0.00    -0.358 OA
ATOM     27  H2  UNL     1      11.890   6.548 -10.866  1.00  0.00     0.217 HD
ENDBRANCH  22  26
BRANCH  23  28
HETATM   28  N3  UNL     1      12.286   6.926  -8.512  1.00  0.00    -0.278 N
ATOM     29  H3  UNL     1      13.056   7.594  -8.546  1.00  0.00     0.179 HD
BRANCH  28  30
HETATM   30  S1  UNL     1      10.729   7.581  -8.441  1.00  0.00     0.263 S
HETATM   31  O3  UNL     1       9.645   6.526  -8.467  1.00  0.00    -0.200 OA
HETATM   32  O4  UNL     1      10.568   8.319  -7.111  1.00  0.00    -0.200 OA
BRANCH  30  33
HETATM   33  C11 UNL     1      10.435   8.723  -9.713  1.00  0.00     0.082 A
HETATM   34  C12 UNL     1       9.865   9.964  -9.374  1.00  0.00     0.028 A
HETATM   35  C13 UNL     1       9.570  10.869 -10.362  1.00  0.00     0.041 A
HETATM   36  C14 UNL     1       9.813  10.618 -11.694  1.00  0.00     0.101 A
HETATM   37  C16 UNL     1      10.375   9.394 -12.033  1.00  0.00     0.102 A
HETATM   38  C18 UNL     1      10.678   8.464 -11.029  1.00  0.00     0.065 A
BRANCH  36  39
HETATM   39  O5  UNL     1       9.504  11.544 -12.632  1.00  0.00    -0.353 OA
HETATM   40  C15 UNL     1       8.275  12.258 -12.677  1.00  0.00     0.210 C
ENDBRANCH  36  39
BRANCH  37  41
HETATM   41  O6  UNL     1      10.607   9.156 -13.339  1.00  0.00    -0.353 OA
HETATM   42  C17 UNL     1       9.624   8.795 -14.272  1.00  0.00     0.210 C
ENDBRANCH  37  41
ENDBRANCH  30  33
ENDBRANCH  28  30
ENDBRANCH  23  28
BRANCH  25  43
HETATM   43  O7  UNL     1      13.978   2.946  -6.443  1.00  0.00    -0.357 OA
ATOM     44  H7  UNL     1      13.675   3.138  -5.564  1.00  0.00     0.217 HD
ENDBRANCH  25  43
ENDBRANCH  19  20
ENDBRANCH   1  19
BRANCH   1  45
HETATM   45  C21 UNL     1      13.743  -0.693  -8.166  1.00  0.00     0.025 A
HETATM   46  C22 UNL     1      14.187  -1.922  -8.654  1.00  0.00     0.019 A
HETATM   47  C23 UNL     1      14.539  -2.951  -7.808  1.00  0.00     0.040 A
HETATM   48  C24 UNL     1      14.471  -2.811  -6.442  1.00  0.00     0.101 A
HETATM   49  C26 UNL     1      14.034  -1.599  -5.956  1.00  0.00     0.102 A
HETATM   50  C28 UNL     1      13.678  -0.562  -6.818  1.00  0.00     0.056 A
BRANCH  48  51
HETATM   51  O8  UNL     1      14.819  -3.827  -5.568  1.00  0.00    -0.353 OA
HETATM   52  C25 UNL     1      15.945  -4.627  -5.885  1.00  0.00     0.210 C
ENDBRANCH  48  51
BRANCH  49  53
HETATM   53  O9  UNL     1      13.962  -1.444  -4.583  1.00  0.00    -0.353 OA
HETATM   54  C27 UNL     1      14.477  -0.293  -3.947  1.00  0.00     0.210 C
ENDBRANCH  49  53
ENDBRANCH   1  45
TORSDOF 18
ENDMDL