MODEL 3
REMARK VINA RESULT: -10.200185836      2.957      9.363
REMARK  17 active torsions:
REMARK  status: ('A' for Active; 'I' for Inactive)
REMARK    1  A    between atoms: O1_2  and  C2_3
REMARK    2  A    between atoms: C5_6  and  C6_7
REMARK    3  A    between atoms: C6_7  and  C7_13
REMARK    4  A    between atoms: N1_8  and  N2_10
REMARK    5  A    between atoms: C11_17  and  O2_18
REMARK    6  A    between atoms: C12_20  and  O3_21
REMARK    7  A    between atoms: C17_26  and  C18_27
REMARK    8  A    between atoms: C18_27  and  O4_28
REMARK    9  A    between atoms: C18_27  and  C19_30
REMARK   10  A    between atoms: C22_33  and  N3_34
REMARK   11  A    between atoms: N3_34  and  C23_36
REMARK   12  A    between atoms: C23_36  and  C24_40
REMARK   13  A    between atoms: C26_42  and  O5_43
REMARK   14  A    between atoms: C28_45  and  O6_46
REMARK   15  A    between atoms: C30_48  and  O7_49
REMARK   16  A    between atoms: C33_52  and  O8_53
REMARK   17  A    between atoms: C37_57  and  O9_58
ROOT
HETATM    1  C7  UNL     1      11.838   4.537 -10.423  1.00  0.00     0.007 A
HETATM    2  C8  UNL     1      11.808   5.817  -9.936  1.00  0.00     0.027 A
HETATM    3  C9  UNL     1      11.293   6.912 -10.628  1.00  0.00    -0.022 A
HETATM    4  C10 UNL     1      11.307   8.177 -10.078  1.00  0.00     0.051 A
HETATM    5  C11 UNL     1      10.795   9.229 -10.809  1.00  0.00     0.099 A
HETATM    6  C12 UNL     1      10.268   9.039 -12.080  1.00  0.00     0.102 A
HETATM    7  C14 UNL     1      10.261   7.773 -12.609  1.00  0.00     0.052 A
HETATM    8  C15 UNL     1      10.778   6.704 -11.876  1.00  0.00    -0.022 A
HETATM    9  C16 UNL     1      10.784   5.447 -12.405  1.00  0.00     0.027 A
HETATM   10  C17 UNL     1      11.305   4.342 -11.711  1.00  0.00     0.011 A
ENDROOT
BRANCH  10  11
HETATM   11  C18 UNL     1      11.458   3.074 -12.380  1.00  0.00     0.087 C
BRANCH  11  12
HETATM   12  O4  UNL     1      10.402   2.300 -12.469  1.00  0.00    -0.359 OA
ATOM     13  H4  UNL     1       9.840   2.405 -13.228  1.00  0.00     0.217 HD
ENDBRANCH  11  12
BRANCH  11  14
HETATM   14  C19 UNL     1      12.629   2.524 -12.980  1.00  0.00     0.001 A
HETATM   15  C20 UNL     1      13.255   3.105 -14.048  1.00  0.00     0.017 A
HETATM   16  C21 UNL     1      14.425   2.579 -14.618  1.00  0.00     0.033 A
HETATM   17  C22 UNL     1      14.975   1.444 -14.105  1.00  0.00     0.067 A
HETATM   18  C33 UNL     1      14.352   0.828 -13.013  1.00  0.00     0.095 A
HETATM   19  C35 UNL     1      13.219   1.349 -12.468  1.00  0.00     0.053 A
BRANCH  17  20
HETATM   20  N3  UNL     1      16.149   0.896 -14.661  1.00  0.00    -0.340 N
ATOM     21  H3  UNL     1      16.073   0.304 -15.489  1.00  0.00     0.167 HD
BRANCH  20  22
HETATM   22  C23 UNL     1      17.433   1.140 -14.106  1.00  0.00     0.109 C
HETATM   23  N4  UNL     1      17.942   0.335 -13.271  1.00  0.00    -0.385 N
ATOM     24  H42 UNL     1      17.416  -0.491 -12.983  1.00  0.00     0.157 HD
ATOM     25  H41 UNL     1      18.864   0.510 -12.873  1.00  0.00     0.157 HD
BRANCH  22  26
HETATM   26  C24 UNL     1      18.186   2.323 -14.520  1.00  0.00     0.013 A
HETATM   27  C25 UNL     1      19.333   2.630 -13.765  1.00  0.00     0.055 A
HETATM   28  C26 UNL     1      20.084   3.725 -14.066  1.00  0.00     0.105 A
HETATM   29  C28 UNL     1      19.694   4.526 -15.126  1.00  0.00     0.135 A
HETATM   30  C30 UNL     1      18.563   4.227 -15.874  1.00  0.00     0.105 A
HETATM   31  C32 UNL     1      17.804   3.116 -15.568  1.00  0.00     0.055 A
BRANCH  28  32
HETATM   32  O5  UNL     1      21.217   4.039 -13.340  1.00  0.00    -0.353 OA
HETATM   33  C27 UNL     1      22.345   3.208 -13.424  1.00  0.00     0.210 C
ENDBRANCH  28  32
BRANCH  29  34
HETATM   34  O6  UNL     1      20.473   5.625 -15.404  1.00  0.00    -0.351 OA
HETATM   35  C29 UNL     1      21.533   5.480 -16.358  1.00  0.00     0.210 C
ENDBRANCH  29  34
BRANCH  30  36
HETATM   36  O7  UNL     1      18.235   5.077 -16.919  1.00  0.00    -0.353 OA
HETATM   37  C31 UNL     1      18.203   4.518 -18.228  1.00  0.00     0.210 C
ENDBRANCH  30  36
ENDBRANCH  22  26
ENDBRANCH  20  22
ENDBRANCH  17  20
BRANCH  18  38
HETATM   38  O8  UNL     1      14.933  -0.316 -12.522  1.00  0.00    -0.354 OA
HETATM   39  C34 UNL     1      15.214  -0.537 -11.175  1.00  0.00     0.210 C
ENDBRANCH  18  38
ENDBRANCH  11  14
ENDBRANCH  10  11
BRANCH   1  40
HETATM   40  C6  UNL     1      12.213   3.389  -9.586  1.00  0.00     0.069 C
HETATM   41  N1  UNL     1      11.423   2.450  -9.511  1.00  0.00    -0.306 N
ATOM     42  H1  UNL     1      10.552   2.696  -9.981  1.00  0.00     0.186 HD
BRANCH  40  43
HETATM   43  C5  UNL     1      13.551   3.306  -8.965  1.00  0.00    -0.004 A
HETATM   44  C4  UNL     1      13.720   3.403  -7.599  1.00  0.00     0.017 A
HETATM   45  C3  UNL     1      14.925   3.226  -6.949  1.00  0.00     0.040 A
HETATM   46  C2  UNL     1      16.037   2.933  -7.701  1.00  0.00     0.101 A
HETATM   47  C37 UNL     1      15.916   2.826  -9.087  1.00  0.00     0.099 A
HETATM   48  C36 UNL     1      14.691   3.012  -9.677  1.00  0.00     0.053 A
BRANCH  46  49
HETATM   49  O1  UNL     1      17.257   2.751  -7.079  1.00  0.00    -0.353 OA
HETATM   50  C1  UNL     1      17.441   2.636  -5.703  1.00  0.00     0.210 C
ENDBRANCH  46  49
BRANCH  47  51
HETATM   51  O9  UNL     1      17.074   2.529  -9.810  1.00  0.00    -0.358 OA
ATOM     52  H9  UNL     1      17.427   3.212 -10.368  1.00  0.00     0.217 HD
ENDBRANCH  47  51
ENDBRANCH  40  43
BRANCH  41  53
HETATM   53  N2  UNL     1      11.334   1.210  -9.014  1.00  0.00    -0.345 N
ATOM     54  H22 UNL     1      12.274   0.817  -8.971  1.00  0.00     0.176 HD
ATOM     55  H21 UNL     1      10.639   0.547  -8.670  1.00  0.00     0.176 HD
ENDBRANCH  41  53
ENDBRANCH   1  40
BRANCH   6  56
HETATM   56  O3  UNL     1       9.763  10.099 -12.795  1.00  0.00    -0.353 OA
HETATM   57  C13 UNL     1       8.757   9.952 -13.777  1.00  0.00     0.210 C
ENDBRANCH   6  56
BRANCH   5  58
HETATM   58  O2  UNL     1      10.775  10.533 -10.321  1.00  0.00    -0.358 OA
ATOM     59  H2  UNL     1       9.995  10.921  -9.942  1.00  0.00     0.217 HD
ENDBRANCH   5  58
TORSDOF 17
ENDMDL