MODEL 5
REMARK VINA RESULT: -9.723073562      3.797      7.801
REMARK  13 active torsions:
REMARK  status: ('A' for Active; 'I' for Inactive)
REMARK    1  A    between atoms: C2_2  and  N1_3
REMARK    2  A    between atoms: N1_3  and  N2_4
REMARK       I    between atoms: N2_4  and  C3_6
REMARK       I    between atoms: C3_6  and  N4_10
REMARK    3  A    between atoms: N4_10  and  C4_12
REMARK    4  A    between atoms: C4_12  and  C5_13
REMARK    5  A    between atoms: C5_13  and  N5_14
REMARK    6  A    between atoms: C6_15  and  C7_16
REMARK    7  A    between atoms: N6_17  and  N7_19
REMARK    8  A    between atoms: N7_19  and  O1_21
REMARK    9  A    between atoms: C8_23  and  S1_24
REMARK   10  A    between atoms: S1_24  and  C9_25
REMARK   11  A    between atoms: N9_36  and  C17_37
REMARK   12  A    between atoms: C24_44  and  C25_45
REMARK   13  A    between atoms: C28_48  and  N10_49
ROOT
HETATM    1  N5  UNL     1      12.697   2.407 -10.842  1.00  0.00    -0.342 N
HETATM    2  C6  UNL     1      12.899   2.570 -12.153  1.00  0.00     0.070 A
HETATM    3  C8  UNL     1      13.722   1.576 -12.633  1.00  0.00     0.050 A
HETATM    4  C23 UNL     1      14.036   0.771 -11.563  1.00  0.00     0.021 A
HETATM    5  C24 UNL     1      14.788  -0.360 -11.406  1.00  0.00    -0.012 A
HETATM    6  C31 UNL     1      14.886  -0.955 -10.141  1.00  0.00     0.013 A
HETATM    7  C32 UNL     1      14.225  -0.393  -9.079  1.00  0.00     0.003 A
HETATM    8  C33 UNL     1      13.464   0.738  -9.185  1.00  0.00     0.030 A
HETATM    9  C34 UNL     1      13.380   1.309 -10.437  1.00  0.00     0.047 A
ENDROOT
BRANCH   3  10
HETATM   10  S1  UNL     1      14.243   1.369 -14.287  1.00  0.00    -0.050 SA
BRANCH  10  11
HETATM   11  C9  UNL     1      15.815   2.158 -14.648  1.00  0.00     0.160 A
HETATM   12  N8  UNL     1      16.772   2.266 -13.715  1.00  0.00    -0.335 N
HETATM   13  C10 UNL     1      17.952   2.840 -13.942  1.00  0.00     0.050 A
ATOM     14  H8  UNL     1      16.587   1.889 -12.786  1.00  0.00     0.168 HD
HETATM   15  C11 UNL     1      18.908   2.934 -12.980  1.00  0.00     0.030 A
HETATM   16  C15 UNL     1      18.200   3.346 -15.195  1.00  0.00     0.059 A
HETATM   17  C12 UNL     1      20.127   3.537 -13.264  1.00  0.00     0.002 A
HETATM   18  C13 UNL     1      20.380   4.052 -14.533  1.00  0.00     0.001 A
HETATM   19  C14 UNL     1      19.407   3.950 -15.493  1.00  0.00     0.019 A
HETATM   20  C16 UNL     1      17.218   3.239 -16.160  1.00  0.00     0.266 A
HETATM   21  O2  UNL     1      17.434   3.710 -17.342  1.00  0.00    -0.267 OA
HETATM   22  N9  UNL     1      16.059   2.652 -15.863  1.00  0.00    -0.258 N
BRANCH  22  23
HETATM   23  C17 UNL     1      15.066   2.578 -16.883  1.00  0.00     0.044 A
HETATM   24  C18 UNL     1      15.049   1.482 -17.716  1.00  0.00     0.030 A
HETATM   25  C19 UNL     1      14.099   1.395 -18.709  1.00  0.00     0.002 A
HETATM   26  C20 UNL     1      13.147   2.396 -18.896  1.00  0.00     0.000 A
HETATM   27  C21 UNL     1      13.206   3.482 -18.029  1.00  0.00     0.002 A
HETATM   28  C22 UNL     1      14.150   3.589 -17.026  1.00  0.00     0.030 A
ENDBRANCH  22  23
ENDBRANCH  10  11
ENDBRANCH   3  10
BRANCH   2  29
HETATM   29  C7  UNL     1      12.349   3.618 -12.964  1.00  0.00     0.140 C
HETATM   30  N6  UNL     1      11.284   4.225 -12.613  1.00  0.00    -0.290 N
ATOM     31  H6  UNL     1      10.846   3.933 -11.739  1.00  0.00     0.188 HD
BRANCH  30  32
HETATM   32  N7  UNL     1      10.668   5.252 -13.321  1.00  0.00    -0.210 N
ATOM     33  H7  UNL     1       9.983   5.037 -14.045  1.00  0.00     0.215 HD
BRANCH  32  34
HETATM   34  O1  UNL     1      10.984   6.544 -13.042  1.00  0.00    -0.274 OA
ATOM     35  H1  UNL     1      11.403   7.079 -13.706  1.00  0.00     0.246 HD
ENDBRANCH  32  34
ENDBRANCH  30  32
ENDBRANCH   2  29
BRANCH   1  36
HETATM   36  C5  UNL     1      11.890   3.247  -9.975  1.00  0.00     0.149 C
BRANCH  36  37
HETATM   37  C4  UNL     1      12.667   4.398  -9.385  1.00  0.00     0.158 C
BRANCH  37  38
HETATM   38  N4  UNL     1      12.219   4.606  -8.024  1.00  0.00    -0.224 N
HETATM   39  C3  UNL     1      12.190   5.893  -7.432  1.00  0.00     0.683 C
HETATM   40  N2  UNL     1      11.701   7.048  -8.054  1.00  0.00    -0.137 N
HETATM   41  N3  UNL     1      12.653   6.004  -6.225  1.00  0.00    -0.234 N
ATOM     42  H2  UNL     1      11.974   7.221  -9.022  1.00  0.00     0.201 HD
ATOM     43  H32 UNL     1      12.632   6.931  -5.799  1.00  0.00     0.174 HD
ATOM     44  H31 UNL     1      13.009   5.163  -5.772  1.00  0.00     0.174 HD
ATOM     45  H4  UNL     1      11.915   3.802  -7.474  1.00  0.00     0.177 HD
BRANCH  40  46
HETATM   46  N1  UNL     1      10.866   7.980  -7.434  1.00  0.00    -0.127 NA
BRANCH  46  47
HETATM   47  C2  UNL     1      10.068   8.744  -8.358  1.00  0.00     0.131 C
HETATM   48  C1  UNL     1      10.964   9.803  -8.962  1.00  0.00     0.024 C
ENDBRANCH  46  47
ENDBRANCH  40  46
ENDBRANCH  37  38
ENDBRANCH  36  37
ENDBRANCH   1  36
BRANCH   5  49
HETATM   49  C25 UNL     1      15.542  -0.943 -12.493  1.00  0.00    -0.025 A
HETATM   50  C26 UNL     1      16.926  -0.805 -12.469  1.00  0.00     0.014 A
HETATM   51  C27 UNL     1      17.724  -1.280 -13.493  1.00  0.00     0.037 A
HETATM   52  C28 UNL     1      17.157  -1.919 -14.594  1.00  0.00     0.102 A
HETATM   53  C29 UNL     1      15.789  -2.053 -14.611  1.00  0.00     0.037 A
HETATM   54  C30 UNL     1      14.980  -1.573 -13.575  1.00  0.00     0.014 A
BRANCH  52  55
HETATM   55  N10 UNL     1      17.978  -2.415 -15.656  1.00  0.00    -0.116 N
HETATM   56  O3  UNL     1      17.659  -3.492 -16.171  1.00  0.00    -0.532 OA
HETATM   57  O4  UNL     1      19.079  -1.742 -16.102  1.00  0.00    -0.532 OA
ENDBRANCH  52  55
ENDBRANCH   5  49
TORSDOF 13
ENDMDL