MODEL 2
REMARK VINA RESULT: -10.560288058      1.592      2.248
REMARK  16 active torsions:
REMARK  status: ('A' for Active; 'I' for Inactive)
REMARK    1  A    between atoms: O1_2  and  C2_3
REMARK    2  A    between atoms: C5_6  and  C6_7
REMARK    3  A    between atoms: C6_7  and  C7_8
REMARK    4  A    between atoms: C7_8  and  C8_9
REMARK    5  A    between atoms: C8_9  and  N1_10
REMARK    6  A    between atoms: C8_9  and  C19_30
REMARK    7  A    between atoms: N1_10  and  N2_12
REMARK       I    between atoms: N2_12  and  C9_14
REMARK    8  A    between atoms: C9_14  and  C10_16
REMARK    9  A    between atoms: C12_18  and  O3_19
REMARK   10  A    between atoms: C13_21  and  O4_22
REMARK   11  A    between atoms: C15_24  and  O5_25
REMARK   12  A    between atoms: C17_27  and  O6_28
REMARK   13  A    between atoms: C22_35  and  O7_36
REMARK   14  A    between atoms: C24_38  and  O8_39
REMARK   15  A    between atoms: C26_41  and  O9_42
REMARK   16  A    between atoms: C29_47  and  C30_48
ROOT
HETATM    1  C8  UNL     1      12.283   3.317  -9.148  1.00  0.00     0.075 C
ENDROOT
BRANCH   1   2
HETATM    2  C7  UNL     1      12.226   1.951  -8.996  1.00  0.00     0.034 C
BRANCH   2   3
HETATM    3  C6  UNL     1      12.958   0.900  -9.133  1.00  0.00     0.014 C
BRANCH   3   4
HETATM    4  C5  UNL     1      14.135   0.800 -10.046  1.00  0.00    -0.036 A
HETATM    5  C4  UNL     1      15.048   1.799 -10.228  1.00  0.00     0.014 A
HETATM    6  C3  UNL     1      16.114   1.639 -11.116  1.00  0.00     0.037 A
HETATM    7  C2  UNL     1      16.284   0.490 -11.827  1.00  0.00     0.068 A
HETATM    8  C37 UNL     1      15.372  -0.530 -11.656  1.00  0.00     0.037 A
HETATM    9  C36 UNL     1      14.317  -0.363 -10.775  1.00  0.00     0.014 A
BRANCH   7  10
HETATM   10  O1  UNL     1      17.350   0.322 -12.717  1.00  0.00    -0.356 OA
HETATM   11  C1  UNL     1      17.699  -0.974 -13.163  1.00  0.00     0.210 C
ENDBRANCH   7  10
ENDBRANCH   3   4
ENDBRANCH   2   3
ENDBRANCH   1   2
BRANCH   1  12
HETATM   12  N1  UNL     1      12.595   4.000  -7.990  1.00  0.00    -0.296 N
ATOM     13  H1  UNL     1      12.472   5.012  -7.947  1.00  0.00     0.187 HD
BRANCH  12  14
HETATM   14  N2  UNL     1      13.069   3.320  -6.899  1.00  0.00    -0.265 N
HETATM   15  C9  UNL     1      14.451   3.217  -6.629  1.00  0.00     0.273 C
HETATM   16  O2  UNL     1      15.200   3.795  -7.517  1.00  0.00    -0.266 OA
ATOM     17  H2  UNL     1      12.405   2.875  -6.265  1.00  0.00     0.190 HD
BRANCH  15  18
HETATM   18  C10 UNL     1      15.066   2.563  -5.505  1.00  0.00     0.072 A
HETATM   19  C11 UNL     1      16.473   2.347  -5.590  1.00  0.00     0.059 A
HETATM   20  C12 UNL     1      17.159   1.640  -4.646  1.00  0.00     0.102 A
HETATM   21  C13 UNL     1      16.480   1.108  -3.562  1.00  0.00     0.137 A
HETATM   22  C15 UNL     1      15.125   1.322  -3.483  1.00  0.00     0.139 A
HETATM   23  C17 UNL     1      14.433   2.038  -4.438  1.00  0.00     0.120 A
BRANCH  20  24
HETATM   24  O3  UNL     1      18.535   1.466  -4.793  1.00  0.00    -0.358 OA
ATOM     25  H3  UNL     1      19.038   1.120  -4.066  1.00  0.00     0.217 HD
ENDBRANCH  20  24
BRANCH  21  26
HETATM   26  O4  UNL     1      17.190   0.395  -2.619  1.00  0.00    -0.351 OA
HETATM   27  C14 UNL     1      17.368  -0.982  -2.798  1.00  0.00     0.210 C
ENDBRANCH  21  26
BRANCH  22  28
HETATM   28  O5  UNL     1      14.462   0.789  -2.397  1.00  0.00    -0.351 OA
HETATM   29  C16 UNL     1      13.680  -0.364  -2.541  1.00  0.00     0.210 C
ENDBRANCH  22  28
BRANCH  23  30
HETATM   30  O6  UNL     1      13.082   2.186  -4.221  1.00  0.00    -0.352 OA
HETATM   31  C18 UNL     1      12.714   3.350  -3.451  1.00  0.00     0.210 C
ENDBRANCH  23  30
ENDBRANCH  15  18
ENDBRANCH  12  14
ENDBRANCH   1  12
BRANCH   1  32
HETATM   32  C19 UNL     1      12.008   4.296 -10.166  1.00  0.00     0.076 A
HETATM   33  N3  UNL     1      11.916   5.622  -9.729  1.00  0.00    -0.353 N
HETATM   34  C20 UNL     1      11.517   6.640 -10.483  1.00  0.00     0.052 A
ATOM     35  H3  UNL     1      12.174   5.822  -8.762  1.00  0.00     0.166 HD
HETATM   36  C21 UNL     1      11.459   7.929  -9.940  1.00  0.00     0.070 A
HETATM   37  C27 UNL     1      11.154   6.442 -11.801  1.00  0.00     0.078 A
HETATM   38  C22 UNL     1      11.043   8.981 -10.716  1.00  0.00     0.106 A
HETATM   39  C24 UNL     1      10.676   8.817 -12.026  1.00  0.00     0.136 A
HETATM   40  C26 UNL     1      10.737   7.513 -12.569  1.00  0.00     0.118 A
HETATM   41  C28 UNL     1      11.234   5.162 -12.259  1.00  0.00     0.200 A
HETATM   42  O10 UNL     1      10.928   4.880 -13.435  1.00  0.00    -0.286 OA
HETATM   43  C29 UNL     1      11.664   4.072 -11.449  1.00  0.00     0.054 A
BRANCH  38  44
HETATM   44  O7  UNL     1      10.975  10.272 -10.202  1.00  0.00    -0.353 OA
HETATM   45  C23 UNL     1       9.831  10.640  -9.459  1.00  0.00     0.210 C
ENDBRANCH  38  44
BRANCH  39  46
HETATM   46  O8  UNL     1      10.249   9.883 -12.836  1.00  0.00    -0.351 OA
HETATM   47  C25 UNL     1       8.825  10.039 -12.914  1.00  0.00     0.210 C
ENDBRANCH  39  46
BRANCH  40  48
HETATM   48  O9  UNL     1      10.374   7.373 -13.852  1.00  0.00    -0.357 OA
ATOM     49  H9  UNL     1      11.018   6.998 -14.442  1.00  0.00     0.217 HD
ENDBRANCH  40  48
BRANCH  43  50
HETATM   50  C30 UNL     1      11.802   2.818 -12.182  1.00  0.00    -0.020 A
HETATM   51  C31 UNL     1      10.827   1.861 -12.088  1.00  0.00     0.012 A
HETATM   52  C32 UNL     1      10.922   0.670 -12.814  1.00  0.00     0.001 A
HETATM   53  C33 UNL     1      12.007   0.449 -13.633  1.00  0.00     0.000 A
HETATM   54  C34 UNL     1      12.983   1.406 -13.728  1.00  0.00     0.001 A
HETATM   55  C35 UNL     1      12.876   2.596 -12.996  1.00  0.00     0.012 A
ENDBRANCH  43  50
ENDBRANCH   1  32
TORSDOF 16
ENDMDL