MODEL 3
REMARK VINA RESULT: -9.921809539      2.693      4.469
REMARK  16 active torsions:
REMARK  status: ('A' for Active; 'I' for Inactive)
REMARK    1  A    between atoms: O1_2  and  C2_3
REMARK    2  A    between atoms: C5_6  and  N1_7
REMARK    3  A    between atoms: N1_7  and  C6_9
REMARK    4  A    between atoms: C7_10  and  C8_11
REMARK       I    between atoms: C8_11  and  N2_13
REMARK    5  A    between atoms: N2_13  and  C9_15
REMARK    6  A    between atoms: C9_15  and  C10_16
REMARK    7  A    between atoms: C9_15  and  N3_20
REMARK    8  A    between atoms: C10_16  and  C11_17
REMARK    9  A    between atoms: C11_17  and  S1_18
REMARK       I    between atoms: N3_20  and  C13_22
REMARK   10  A    between atoms: C13_22  and  C14_24
REMARK   11  A    between atoms: C14_24  and  O4_25
REMARK   12  A    between atoms: C14_24  and  N4_27
REMARK   13  A    between atoms: N4_27  and  C15_28
REMARK   14  A    between atoms: C17_32  and  C18_33
REMARK   15  A    between atoms: C21_37  and  N6_38
REMARK   16  A    between atoms: C26_47  and  N7_48
ROOT
HETATM    1  C8  UNL     1      13.510   1.672  -4.766  1.00  0.00     0.259 C
HETATM    2  O2  UNL     1      12.436   1.742  -4.056  1.00  0.00    -0.267 OA
HETATM    3  N2  UNL     1      14.588   1.114  -4.104  1.00  0.00    -0.336 N
ATOM      4  H2  UNL     1      15.466   1.011  -4.613  1.00  0.00     0.164 HD
ENDROOT
BRANCH   3   5
HETATM    5  C9  UNL     1      14.537   0.663  -2.706  1.00  0.00     0.188 C
BRANCH   5   6
HETATM    6  C10 UNL     1      13.143   0.180  -2.355  1.00  0.00     0.057 C
BRANCH   6   7
HETATM    7  C11 UNL     1      12.889   0.546  -0.909  1.00  0.00     0.077 C
BRANCH   7   8
HETATM    8  S1  UNL     1      11.376  -0.271  -0.299  1.00  0.00    -0.173 SA
HETATM    9  C12 UNL     1      11.252  -0.249   1.487  1.00  0.00     0.089 C
ENDBRANCH   7   8
ENDBRANCH   6   7
ENDBRANCH   5   6
BRANCH   5  10
HETATM   10  N3  UNL     1      15.432  -0.418  -2.474  1.00  0.00    -0.332 N
HETATM   11  C13 UNL     1      16.803  -0.481  -2.820  1.00  0.00     0.308 C
HETATM   12  O3  UNL     1      17.382   0.467  -3.389  1.00  0.00    -0.262 OA
ATOM     13  H3  UNL     1      15.043  -1.237  -2.008  1.00  0.00     0.165 HD
BRANCH  11  14
HETATM   14  C14 UNL     1      17.619  -1.688  -2.516  1.00  0.00     0.285 C
BRANCH  14  15
HETATM   15  O4  UNL     1      18.873  -1.455  -2.241  1.00  0.00    -0.331 OA
ATOM     16  H4  UNL     1      19.492  -1.740  -2.903  1.00  0.00     0.220 HD
ENDBRANCH  14  15
BRANCH  14  17
HETATM   17  N4  UNL     1      17.183  -2.921  -2.514  1.00  0.00    -0.353 NA
BRANCH  17  18
HETATM   18  C15 UNL     1      16.996  -4.101  -2.516  1.00  0.00     0.233 A
HETATM   19  N5  UNL     1      15.778  -4.710  -2.305  1.00  0.00    -0.335 N
HETATM   20  C16 UNL     1      15.696  -6.043  -2.300  1.00  0.00     0.124 A
ATOM     21  H5  UNL     1      14.942  -4.145  -2.154  1.00  0.00     0.168 HD
HETATM   22  C17 UNL     1      16.771  -6.863  -2.496  1.00  0.00     0.074 A
HETATM   23  O5  UNL     1      17.949  -6.277  -2.702  1.00  0.00    -0.292 OA
HETATM   24  C21 UNL     1      18.066  -4.996  -2.714  1.00  0.00     0.201 A
BRANCH  22  25
HETATM   25  C18 UNL     1      16.658  -8.327  -2.481  1.00  0.00     0.036 C
HETATM   26  C19 UNL     1      17.783  -9.054  -3.162  1.00  0.00     0.016 C
HETATM   27  C20 UNL     1      15.380  -8.758  -3.231  1.00  0.00     0.016 C
ENDBRANCH  22  25
BRANCH  24  28
HETATM   28  N6  UNL     1      19.246  -4.463  -2.921  1.00  0.00    -0.376 N
ATOM     29  H62 UNL     1      20.082  -5.019  -2.741  1.00  0.00     0.158 HD
ATOM     30  H61 UNL     1      19.260  -3.501  -3.258  1.00  0.00     0.158 HD
ENDBRANCH  24  28
ENDBRANCH  17  18
ENDBRANCH  14  17
ENDBRANCH  11  14
ENDBRANCH   5  10
ENDBRANCH   3   5
BRANCH   1  31
HETATM   31  C7  UNL     1      13.422   2.169  -6.106  1.00  0.00     0.104 A
HETATM   32  C6  UNL     1      12.868   1.342  -7.091  1.00  0.00     0.065 A
HETATM   33  C28 UNL     1      12.750   1.738  -8.431  1.00  0.00     0.028 A
HETATM   34  C23 UNL     1      13.211   3.003  -8.747  1.00  0.00     0.089 A
HETATM   35  C27 UNL     1      12.210   0.920  -9.396  1.00  0.00     0.052 A
HETATM   36  O6  UNL     1      13.718   3.770  -7.851  1.00  0.00    -0.297 OA
HETATM   37  C24 UNL     1      13.108   3.431 -10.086  1.00  0.00     0.041 A
HETATM   38  C22 UNL     1      13.836   3.401  -6.567  1.00  0.00     0.160 A
HETATM   39  S2  UNL     1      14.496   4.466  -5.526  1.00  0.00    -0.051 SA
HETATM   40  C25 UNL     1      12.561   2.604 -11.057  1.00  0.00     0.039 A
HETATM   41  C26 UNL     1      12.109   1.333 -10.699  1.00  0.00     0.103 A
BRANCH  32  42
HETATM   42  N1  UNL     1      12.393   0.070  -6.800  1.00  0.00    -0.355 N
ATOM     43  H1  UNL     1      11.402  -0.045  -6.585  1.00  0.00     0.166 HD
BRANCH  42  44
HETATM   44  C5  UNL     1      13.225  -1.072  -6.790  1.00  0.00     0.032 A
HETATM   45  C4  UNL     1      13.583  -1.675  -8.018  1.00  0.00     0.032 A
HETATM   46  C3  UNL     1      14.385  -2.782  -8.057  1.00  0.00     0.039 A
HETATM   47  C2  UNL     1      14.883  -3.360  -6.887  1.00  0.00     0.068 A
HETATM   48  C30 UNL     1      14.552  -2.796  -5.702  1.00  0.00     0.039 A
HETATM   49  C29 UNL     1      13.730  -1.666  -5.669  1.00  0.00     0.032 A
BRANCH  47  50
HETATM   50  O1  UNL     1      15.694  -4.487  -6.995  1.00  0.00    -0.356 OA
HETATM   51  C1  UNL     1      16.438  -5.077  -5.984  1.00  0.00     0.210 C
ENDBRANCH  47  50
ENDBRANCH  42  44
ENDBRANCH  32  42
BRANCH  41  52
HETATM   52  N7  UNL     1      11.564   0.541 -11.746  1.00  0.00    -0.116 N
HETATM   53  O7  UNL     1      12.236   0.341 -12.782  1.00  0.00    -0.532 OA
HETATM   54  O8  UNL     1      10.322  -0.020 -11.685  1.00  0.00    -0.532 OA
ENDBRANCH  41  52
ENDBRANCH   1  31
TORSDOF 16
ENDMDL