MODEL 5
REMARK VINA RESULT: -7.467687342      2.361      7.285
REMARK  5 active torsions:
REMARK  status: ('A' for Active; 'I' for Inactive)
REMARK    1  A    between atoms: N1_2  and  C2_4
REMARK    2  A    between atoms: C3_7  and  C4_8
REMARK    3  A    between atoms: C9_13  and  C10_14
REMARK    4  A    between atoms: C10_14  and  C11_15
REMARK    5  A    between atoms: C11_15  and  N3_16
ROOT
HETATM    1  C2  UNL     1      39.392   6.447  51.675  1.00  0.00     0.678 A
HETATM    2  N2  UNL     1      38.574   7.247  52.430  1.00  0.00    -0.195 N
ATOM      3  H2  UNL     1      38.896   7.543  53.352  1.00  0.00     0.184 HD
HETATM    4  C3  UNL     1      37.372   7.656  52.010  1.00  0.00     0.036 A
HETATM    5  C8  UNL     1      36.952   7.234  50.743  1.00  0.00     0.052 A
HETATM    6  C9  UNL     1      37.750   6.436  49.970  1.00  0.00     0.030 A
HETATM    7  N5  UNL     1      38.969   6.058  50.465  1.00  0.00    -0.196 N
ATOM      8  H5  UNL     1      39.572   5.464  49.897  1.00  0.00     0.184 HD
ENDROOT
BRANCH   6   9
HETATM    9  C10 UNL     1      37.380   5.946  48.642  1.00  0.00     0.078 C
BRANCH   9  10
HETATM   10  C11 UNL     1      38.022   4.616  48.350  1.00  0.00     0.143 C
BRANCH  10  11
HETATM   11  N3  UNL     1      39.002   4.752  47.272  1.00  0.00    -0.268 N
HETATM   12  C12 UNL     1      40.402   4.865  47.412  1.00  0.00     0.245 C
HETATM   13  O1  UNL     1      41.030   5.037  48.514  1.00  0.00    -0.271 OA
HETATM   14  C13 UNL     1      40.986   4.750  46.063  1.00  0.00     0.230 C
HETATM   15  N4  UNL     1      39.862   4.902  45.178  1.00  0.00    -0.329 N
HETATM   16  C14 UNL     1      39.958   5.158  43.738  1.00  0.00     0.155 C
HETATM   17  C15 UNL     1      38.654   4.774  45.894  1.00  0.00     0.327 C
HETATM   18  O2  UNL     1      37.529   4.704  45.336  1.00  0.00    -0.247 OA
ENDBRANCH  10  11
ENDBRANCH   9  10
ENDBRANCH   6   9
BRANCH   4  19
HETATM   19  C4  UNL     1      36.473   8.517  52.804  1.00  0.00    -0.008 C
HETATM   20  C5  UNL     1      35.093   8.599  52.171  1.00  0.00     0.021 C
HETATM   21  C6  UNL     1      36.335   7.864  54.188  1.00  0.00     0.021 C
HETATM   22  C7  UNL     1      37.071   9.898  52.914  1.00  0.00     0.021 C
ENDBRANCH   4  19
BRANCH   1  23
HETATM   23  N1  UNL     1      40.510   6.123  52.187  1.00  0.00    -0.230 N
HETATM   24  C1  UNL     1      41.177   6.856  53.203  1.00  0.00     0.165 C
ATOM     25  H1  UNL     1      40.960   5.274  51.843  1.00  0.00     0.177 HD
ENDBRANCH   1  23
TORSDOF 5
ENDMDL