MODEL 4
REMARK VINA RESULT: -7.022602747      1.783      2.074
REMARK  7 active torsions:
REMARK  status: ('A' for Active; 'I' for Inactive)
REMARK    1  A    between atoms: C6_9  and  N3_10
REMARK    2  A    between atoms: N4_13  and  C9_14
REMARK    3  A    between atoms: C9_14  and  N5_16
REMARK    4  A    between atoms: N5_16  and  C10_18
REMARK    5  A    between atoms: C10_18  and  C11_19
REMARK    6  A    between atoms: C11_19  and  N6_20
REMARK    7  A    between atoms: N6_20  and  N7_21
ROOT
HETATM    1  N3  UNL     1      38.578   6.093  48.734  1.00  0.00    -0.374 N
HETATM    2  C7  UNL     1      39.279   6.853  47.713  1.00  0.00     0.143 C
HETATM    3  C8  UNL     1      38.433   6.960  46.420  1.00  0.00     0.145 C
HETATM    4  N4  UNL     1      38.331   5.604  45.929  1.00  0.00    -0.355 N
HETATM    5  C12 UNL     1      37.836   4.632  46.859  1.00  0.00     0.145 C
HETATM    6  C13 UNL     1      37.582   5.156  48.251  1.00  0.00     0.143 C
ENDROOT
BRANCH   4   7
HETATM    7  C9  UNL     1      38.696   5.217  44.616  1.00  0.00     0.170 C
HETATM    8  S1  UNL     1      37.821   4.120  43.777  1.00  0.00    -0.041 SA
BRANCH   7   9
HETATM    9  N5  UNL     1      39.842   5.779  43.994  1.00  0.00    -0.361 N
ATOM     10  H5  UNL     1      39.749   6.212  43.075  1.00  0.00     0.162 HD
BRANCH   9  11
HETATM   11  C10 UNL     1      41.155   5.751  44.642  1.00  0.00     0.183 C
BRANCH  11  12
HETATM   12  C11 UNL     1      41.541   4.381  45.033  1.00  0.00     0.200 C
BRANCH  12  13
HETATM   13  N6  UNL     1      41.462   3.470  44.176  1.00  0.00    -0.348 NA
BRANCH  13  14
HETATM   14  N7  UNL     1      41.114   2.678  43.294  1.00  0.00    -0.281 N
ATOM     15  H72 UNL     1      40.981   1.926  43.971  1.00  0.00     0.191 HD
ATOM     16  H71 UNL     1      40.864   2.214  42.420  1.00  0.00     0.191 HD
ENDBRANCH  13  14
ENDBRANCH  12  13
ENDBRANCH  11  12
ENDBRANCH   9  11
ENDBRANCH   7   9
ENDBRANCH   4   7
BRANCH   1  17
HETATM   17  C6  UNL     1      38.887   6.239  50.121  1.00  0.00     0.078 A
HETATM   18  C2  UNL     1      39.937   5.608  50.750  1.00  0.00     0.050 A
HETATM   19  C1  UNL     1      40.948   4.645  50.317  1.00  0.00     0.072 C
HETATM   20  N1  UNL     1      39.916   6.045  52.052  1.00  0.00    -0.301 N
HETATM   21  N2  UNL     1      38.953   6.879  52.269  1.00  0.00    -0.299 N
ATOM     22  H1  UNL     1      40.582   5.746  52.764  1.00  0.00     0.187 HD
HETATM   23  C3  UNL     1      38.601   7.557  53.516  1.00  0.00     0.177 C
HETATM   24  C4  UNL     1      38.297   7.018  51.083  1.00  0.00     0.052 A
HETATM   25  C5  UNL     1      37.150   7.906  50.929  1.00  0.00     0.072 C
ENDBRANCH   1  17
TORSDOF 7
ENDMDL