MODEL 1
REMARK VINA RESULT: -8.881429395      0.000      0.000
REMARK  3 active torsions:
REMARK  status: ('A' for Active; 'I' for Inactive)
REMARK    1  A    between atoms: C2_2  and  N1_4
REMARK    2  A    between atoms: N1_4  and  S1_6
REMARK    3  A    between atoms: S1_6  and  N2_9
ROOT
HETATM    1  N2  UNL     1      37.590   6.051  47.279  1.00  0.00    -0.193 NA
HETATM    2  C4  UNL     1      38.530   6.768  46.472  1.00  0.00     0.110 C
HETATM    3  C5  UNL     1      38.662   6.081  45.133  1.00  0.00     0.041 C
HETATM    4  C6  UNL     1      39.344   4.743  45.304  1.00  0.00     0.066 C
HETATM    5  C7  UNL     1      40.805   4.871  45.281  1.00  0.00     0.026 C
HETATM    6  C8  UNL     1      41.490   3.844  44.534  1.00  0.00     0.017 C
HETATM    7  C9  UNL     1      40.607   2.842  43.920  1.00  0.00     0.141 C
HETATM    8  S2  UNL     1      39.016   3.664  43.910  1.00  0.00     0.153 S
HETATM    9  O3  UNL     1      37.902   2.726  44.182  1.00  0.00    -0.227 OA
HETATM   10  O4  UNL     1      38.824   4.491  42.687  1.00  0.00    -0.227 OA
HETATM   11  C10 UNL     1      38.917   4.088  46.606  1.00  0.00     0.041 C
HETATM   12  C11 UNL     1      37.615   4.632  47.112  1.00  0.00     0.110 C
ENDROOT
BRANCH   1  13
HETATM   13  S1  UNL     1      37.659   6.533  48.941  1.00  0.00     0.299 S
HETATM   14  O1  UNL     1      37.255   7.973  49.005  1.00  0.00    -0.188 OA
HETATM   15  O2  UNL     1      36.648   5.721  49.673  1.00  0.00    -0.188 OA
BRANCH  13  16
HETATM   16  N1  UNL     1      39.253   6.311  49.492  1.00  0.00    -0.303 N
ATOM     17  H1  UNL     1      40.047   6.800  49.077  1.00  0.00     0.173 HD
BRANCH  16  18
HETATM   18  C2  UNL     1      39.403   5.394  50.574  1.00  0.00     0.086 C
HETATM   19  C1  UNL     1      39.999   6.078  51.783  1.00  0.00     0.032 C
HETATM   20  C3  UNL     1      40.228   4.179  50.245  1.00  0.00     0.032 C
ENDBRANCH  16  18
ENDBRANCH  13  16
ENDBRANCH   1  13
TORSDOF 3
ENDMDL