MODEL 1
REMARK VINA RESULT: -7.620990605      0.000      0.000
REMARK  5 active torsions:
REMARK  status: ('A' for Active; 'I' for Inactive)
REMARK    1  A    between atoms: C2_2  and  C3_3
REMARK    2  A    between atoms: C4_4  and  S1_5
REMARK    3  A    between atoms: S1_5  and  C5_7
REMARK    4  A    between atoms: C5_7  and  C6_8
REMARK    5  A    between atoms: C7_9  and  C8_10
REMARK       I    between atoms: N3_16  and  C10_18
REMARK       I    between atoms: C10_18  and  N4_20
ROOT
HETATM    1  C8  UNL     1      38.529   3.552  46.859  1.00  0.00     0.091 A
HETATM    2  N1  UNL     1      37.345   4.081  47.021  1.00  0.00    -0.292 N
ATOM      3  H1  UNL     1      36.639   3.946  46.298  1.00  0.00     0.187 HD
HETATM    4  N2  UNL     1      37.050   4.758  48.052  1.00  0.00    -0.279 N
ATOM      5  H2  UNL     1      36.121   5.164  48.161  1.00  0.00     0.189 HD
HETATM    6  C9  UNL     1      37.985   4.928  48.994  1.00  0.00     0.169 A
HETATM    7  N3  UNL     1      37.883   5.585  50.121  1.00  0.00    -0.288 N
ATOM      8  H3  UNL     1      37.018   6.054  50.392  1.00  0.00     0.172 HD
HETATM    9  C10 UNL     1      39.036   5.611  50.949  1.00  0.00     0.323 C
HETATM   10  O2  UNL     1      39.670   4.530  51.105  1.00  0.00    -0.247 OA
HETATM   11  N4  UNL     1      39.482   6.787  51.588  1.00  0.00    -0.343 N
HETATM   12  C11 UNL     1      38.744   8.022  51.400  1.00  0.00     0.154 C
HETATM   13  C12 UNL     1      40.649   6.781  52.418  1.00  0.00     0.154 C
HETATM   14  S2  UNL     1      39.304   4.069  48.325  1.00  0.00    -0.033 SA
ENDROOT
BRANCH   1  15
HETATM   15  C7  UNL     1      39.086   2.750  45.778  1.00  0.00     0.035 C
HETATM   16  C6  UNL     1      38.962   2.922  44.501  1.00  0.00    -0.011 C
BRANCH  16  17
HETATM   17  C5  UNL     1      38.246   3.944  43.749  1.00  0.00     0.150 C
BRANCH  17  18
HETATM   18  S1  UNL     1      39.161   5.461  43.601  1.00  0.00     0.098 S
HETATM   19  O1  UNL     1      40.749   5.151  43.129  1.00  0.00    -0.244 OA
BRANCH  18  20
HETATM   20  C4  UNL     1      39.085   6.403  45.017  1.00  0.00     0.003 C
HETATM   21  C3  UNL     1      39.031   7.048  46.021  1.00  0.00    -0.065 C
BRANCH  21  22
HETATM   22  C2  UNL     1      38.963   7.803  47.238  1.00  0.00     0.055 C
HETATM   23  C1  UNL     1      37.805   8.251  47.711  1.00  0.00     0.021 C
ENDBRANCH  21  22
ENDBRANCH  18  20
ENDBRANCH  17  18
ENDBRANCH  16  17
ENDBRANCH   1  15
TORSDOF 5
ENDMDL