MODEL 3
REMARK VINA RESULT: -8.003397816      1.310      1.549
REMARK  3 active torsions:
REMARK  status: ('A' for Active; 'I' for Inactive)
REMARK       I    between atoms: C1_2  and  N1_3
REMARK       I    between atoms: C1_2  and  N2_8
REMARK    1  A    between atoms: C8_11  and  O2_12
REMARK    2  A    between atoms: C8_11  and  C9_14
REMARK    3  A    between atoms: C9_14  and  N3_15
ROOT
HETATM    1  O1  UNL     1      40.362   6.047  52.976  1.00  0.00    -0.247 OA
HETATM    2  C1  UNL     1      39.623   6.769  52.193  1.00  0.00     0.320 C
HETATM    3  N1  UNL     1      39.259   8.017  52.671  1.00  0.00    -0.334 N
HETATM    4  C2  UNL     1      39.665   8.477  54.024  1.00  0.00     0.127 C
HETATM    5  C3  UNL     1      39.996   9.929  53.704  1.00  0.00     0.022 C
HETATM    6  C4  UNL     1      38.859  10.320  52.839  1.00  0.00     0.022 C
HETATM    7  C5  UNL     1      38.506   9.075  52.063  1.00  0.00     0.127 C
HETATM    8  N2  UNL     1      39.291   6.208  50.981  1.00  0.00    -0.334 N
HETATM    9  C6  UNL     1      38.450   6.769  49.975  1.00  0.00     0.130 C
HETATM   10  C7  UNL     1      37.874   5.638  49.138  1.00  0.00     0.059 C
HETATM   11  C8  UNL     1      38.959   4.891  48.389  1.00  0.00     0.087 C
HETATM   12  C14 UNL     1      40.278   4.946  49.177  1.00  0.00     0.059 C
HETATM   13  C15 UNL     1      39.875   4.887  50.633  1.00  0.00     0.130 C
ENDROOT
BRANCH  11  14
HETATM   14  O2  UNL     1      38.591   3.552  48.395  1.00  0.00    -0.388 OA
ATOM     15  H2  UNL     1      38.124   3.403  49.209  1.00  0.00     0.210 HD
ENDBRANCH  11  14
BRANCH  11  16
HETATM   16  C9  UNL     1      39.163   5.453  47.026  1.00  0.00     0.310 C
BRANCH  16  17
HETATM   17  N3  UNL     1      38.847   4.494  46.002  1.00  0.00     0.095 N
HETATM   18  C10 UNL     1      38.413   5.239  44.778  1.00  0.00     0.298 C
HETATM   19  C11 UNL     1      38.000   4.169  43.801  1.00  0.00     0.198 C
HETATM   20  O3  UNL     1      38.241   2.879  44.228  1.00  0.00    -0.388 OA
HETATM   21  C12 UNL     1      39.529   2.649  44.673  1.00  0.00     0.198 C
HETATM   22  C13 UNL     1      40.046   3.766  45.553  1.00  0.00     0.298 C
ENDBRANCH  16  17
ENDBRANCH  11  16
TORSDOF 3
ENDMDL