MODEL 3
REMARK VINA RESULT: -7.374926784      1.741      2.760
REMARK  6 active torsions:
REMARK  status: ('A' for Active; 'I' for Inactive)
REMARK    1  A    between atoms: C2_2  and  C3_3
REMARK    2  A    between atoms: C4_4  and  C5_5
REMARK    3  A    between atoms: C5_5  and  N1_6
REMARK    4  A    between atoms: C10_12  and  O2_13
REMARK    5  A    between atoms: C10_12  and  C11_15
REMARK    6  A    between atoms: C11_15  and  N2_16
ROOT
HETATM    1  N1  UNL     1      39.192   6.377  51.197  1.00  0.00    -0.334 N
HETATM    2  C6  UNL     1      38.490   7.437  50.482  1.00  0.00     0.164 C
HETATM    3  C7  UNL     1      38.176   7.091  49.068  1.00  0.00     0.074 C
HETATM    4  C8  UNL     1      37.993   8.418  48.312  1.00  0.00     0.047 C
HETATM    5  C9  UNL     1      36.807   6.431  49.041  1.00  0.00     0.047 C
HETATM    6  O1  UNL     1      39.132   6.393  48.405  1.00  0.00    -0.334 OA
HETATM    7  C10 UNL     1      39.608   5.264  48.998  1.00  0.00     0.263 C
HETATM    8  C16 UNL     1      39.548   5.237  50.474  1.00  0.00     0.285 C
HETATM    9  O4  UNL     1      39.816   4.193  51.078  1.00  0.00    -0.267 OA
ENDROOT
BRANCH   7  10
HETATM   10  O2  UNL     1      40.988   5.197  48.679  1.00  0.00    -0.357 OA
ATOM     11  H2  UNL     1      41.232   4.281  48.740  1.00  0.00     0.213 HD
ENDBRANCH   7  10
BRANCH   7  12
HETATM   12  C11 UNL     1      38.983   4.025  48.385  1.00  0.00     0.205 C
BRANCH  12  13
HETATM   13  N2  UNL     1      38.951   4.153  46.941  1.00  0.00    -0.346 N
HETATM   14  C12 UNL     1      40.092   3.876  46.064  1.00  0.00     0.126 C
HETATM   15  C13 UNL     1      39.928   4.994  45.036  1.00  0.00     0.029 C
HETATM   16  C14 UNL     1      38.430   4.857  44.730  1.00  0.00     0.104 C
HETATM   17  C15 UNL     1      37.899   4.545  46.079  1.00  0.00     0.220 C
HETATM   18  O3  UNL     1      36.695   4.610  46.433  1.00  0.00    -0.273 OA
ENDBRANCH  12  13
ENDBRANCH   7  12
BRANCH   1  19
HETATM   19  C5  UNL     1      39.450   6.607  52.588  1.00  0.00     0.220 C
BRANCH  19  20
HETATM   20  C4  UNL     1      40.831   6.786  52.916  1.00  0.00    -0.087 C
HETATM   21  C3  UNL     1      41.989   6.916  53.194  1.00  0.00    -0.105 C
BRANCH  21  22
HETATM   22  C2  UNL     1      43.419   7.050  53.540  1.00  0.00     0.089 C
HETATM   23  C1  UNL     1      44.059   5.707  53.761  1.00  0.00     0.018 C
ENDBRANCH  21  22
ENDBRANCH  19  20
ENDBRANCH   1  19
TORSDOF 6
ENDMDL