MODEL 3
REMARK VINA RESULT: -8.208041573      1.445      1.654
REMARK  3 active torsions:
REMARK  status: ('A' for Active; 'I' for Inactive)
REMARK    1  A    between atoms: C4_7  and  C5_8
REMARK    2  A    between atoms: C5_8  and  N2_9
REMARK    3  A    between atoms: N3_12  and  C8_13
ROOT
HETATM    1  C1  UNL     1      36.801   8.275  52.156  1.00  0.00     0.069 C
HETATM    2  C2  UNL     1      37.052   7.479  50.990  1.00  0.00     0.015 A
HETATM    3  N1  UNL     1      36.047   7.293  50.085  1.00  0.00    -0.326 N
ATOM      4  H1  UNL     1      35.186   7.832  50.171  1.00  0.00     0.169 HD
HETATM    5  C3  UNL     1      36.179   6.418  49.095  1.00  0.00     0.257 A
HETATM    6  O1  UNL     1      35.192   6.294  48.290  1.00  0.00    -0.267 OA
HETATM    7  C4  UNL     1      37.308   5.610  48.864  1.00  0.00     0.049 A
HETATM    8  C11 UNL     1      38.326   5.786  49.778  1.00  0.00    -0.031 A
HETATM    9  C12 UNL     1      38.169   6.743  50.826  1.00  0.00    -0.026 A
HETATM   10  C13 UNL     1      39.263   7.314  51.595  1.00  0.00     0.067 C
HETATM   11  C14 UNL     1      40.002   6.387  52.435  1.00  0.00     0.172 C
HETATM   12  O3  UNL     1      40.758   5.562  51.535  1.00  0.00    -0.391 OA
HETATM   13  C15 UNL     1      40.000   4.571  51.013  1.00  0.00     0.172 C
HETATM   14  C16 UNL     1      39.427   4.829  49.589  1.00  0.00     0.066 C
ENDROOT
BRANCH   7  15
HETATM   15  C5  UNL     1      37.474   4.986  47.577  1.00  0.00     0.077 C
BRANCH  15  16
HETATM   16  N2  UNL     1      38.751   5.045  46.899  1.00  0.00    -0.289 NA
HETATM   17  C6  UNL     1      38.647   5.979  45.796  1.00  0.00     0.114 C
HETATM   18  C7  UNL     1      38.892   5.348  44.429  1.00  0.00     0.140 C
HETATM   19  N3  UNL     1      40.122   4.603  44.598  1.00  0.00    -0.357 N
HETATM   20  C9  UNL     1      40.022   3.484  45.491  1.00  0.00     0.140 C
HETATM   21  C10 UNL     1      38.793   3.639  46.309  1.00  0.00     0.114 C
BRANCH  19  22
HETATM   22  C8  UNL     1      41.277   4.947  43.913  1.00  0.00     0.350 C
HETATM   23  O2  UNL     1      42.300   5.403  44.506  1.00  0.00    -0.284 OA
ENDBRANCH  19  22
ENDBRANCH  15  16
ENDBRANCH   7  15
TORSDOF 3
ENDMDL