MODEL 5
REMARK VINA RESULT: -8.020533292      1.583      2.810
REMARK  4 active torsions:
REMARK  status: ('A' for Active; 'I' for Inactive)
REMARK    1  A    between atoms: C8_13  and  N4_14
REMARK    2  A    between atoms: N4_14  and  C9_16
REMARK    3  A    between atoms: C9_16  and  C10_17
REMARK    4  A    between atoms: C10_17  and  N5_18
ROOT
HETATM    1  C1  UNL     1      37.425   9.095  54.129  1.00  0.00     0.143 C
HETATM    2  N1  UNL     1      37.461   9.257  52.722  1.00  0.00    -0.416 N
HETATM    3  C2  UNL     1      38.659   8.808  52.081  1.00  0.00     0.116 C
HETATM    4  C3  UNL     1      39.119   7.453  52.487  1.00  0.00     0.024 C
HETATM    5  C4  UNL     1      39.227   6.558  51.270  1.00  0.00     0.046 C
HETATM    6  C5  UNL     1      37.931   6.502  50.581  1.00  0.00     0.008 A
HETATM    7  C6  UNL     1      36.616   6.855  50.854  1.00  0.00     0.021 A
HETATM    8  N2  UNL     1      35.671   6.630  49.916  1.00  0.00    -0.355 N
ATOM      9  H2  UNL     1      34.709   6.893  50.127  1.00  0.00     0.166 HD
HETATM   10  C7  UNL     1      35.932   6.078  48.717  1.00  0.00     0.182 A
HETATM   11  N3  UNL     1      37.211   5.743  48.471  1.00  0.00    -0.338 N
ATOM     12  H3  UNL     1      37.435   5.323  47.570  1.00  0.00     0.168 HD
HETATM   13  C8  UNL     1      38.209   5.933  49.348  1.00  0.00     0.110 A
HETATM   14  C15 UNL     1      35.924   7.471  52.020  1.00  0.00     0.077 C
HETATM   15  C16 UNL     1      36.255   8.935  52.031  1.00  0.00     0.122 C
ENDROOT
BRANCH  13  16
HETATM   16  N4  UNL     1      39.431   5.612  49.112  1.00  0.00    -0.374 N
ATOM     17  H4  UNL     1      40.198   6.121  49.551  1.00  0.00     0.161 HD
BRANCH  16  18
HETATM   18  C9  UNL     1      39.698   4.498  48.200  1.00  0.00     0.141 C
BRANCH  18  19
HETATM   19  C10 UNL     1      40.761   4.951  47.202  1.00  0.00     0.145 C
BRANCH  19  20
HETATM   20  N5  UNL     1      40.556   4.251  45.951  1.00  0.00    -0.351 N
HETATM   21  C11 UNL     1      39.470   3.317  45.645  1.00  0.00     0.126 C
HETATM   22  C12 UNL     1      39.601   3.082  44.156  1.00  0.00     0.029 C
HETATM   23  C13 UNL     1      41.116   3.166  43.978  1.00  0.00     0.104 C
HETATM   24  C14 UNL     1      41.408   4.381  44.815  1.00  0.00     0.219 C
HETATM   25  O1  UNL     1      42.218   5.313  44.583  1.00  0.00    -0.273 OA
ENDBRANCH  19  20
ENDBRANCH  18  19
ENDBRANCH  16  18
ENDBRANCH  13  16
TORSDOF 4
ENDMDL