MODEL 3
REMARK VINA RESULT: -6.726896357      2.080      5.890
REMARK  5 active torsions:
REMARK  status: ('A' for Active; 'I' for Inactive)
REMARK    1  A    between atoms: N2_5  and  C3_6
REMARK    2  A    between atoms: C7_11  and  C8_12
REMARK    3  A    between atoms: C8_12  and  C9_13
REMARK    4  A    between atoms: C10_14  and  N3_15
REMARK    5  A    between atoms: N4_20  and  O2_21
ROOT
HETATM    1  C9  UNL     1      39.822   4.337  46.397  1.00  0.00     0.016 A
HETATM    2  C10 UNL     1      40.224   4.492  45.065  1.00  0.00     0.043 A
HETATM    3  C13 UNL     1      39.709   3.595  44.159  1.00  0.00     0.050 A
HETATM    4  C14 UNL     1      38.840   2.604  44.572  1.00  0.00     0.125 A
HETATM    5  N4  UNL     1      38.472   2.484  45.862  1.00  0.00    -0.240 N
HETATM    6  C15 UNL     1      38.942   3.329  46.793  1.00  0.00     0.048 A
HETATM    7  C16 UNL     1      38.529   3.187  48.214  1.00  0.00     0.072 C
ENDROOT
BRANCH   1   8
HETATM    8  C8  UNL     1      40.349   5.208  47.394  1.00  0.00     0.035 C
BRANCH   8   9
HETATM    9  C7  UNL     1      39.777   5.687  48.476  1.00  0.00     0.062 A
HETATM   10  C2  UNL     1      39.989   5.500  49.810  1.00  0.00     0.054 A
HETATM   11  C1  UNL     1      40.886   4.738  50.400  1.00  0.00     0.045 C
HETATM   12  N1  UNL     1      39.079   6.267  50.485  1.00  0.00    -0.295 N
HETATM   13  N2  UNL     1      38.325   6.910  49.663  1.00  0.00    -0.252 N
ATOM     14  H1  UNL     1      39.008   6.321  51.501  1.00  0.00     0.187 HD
HETATM   15  C6  UNL     1      38.706   6.594  48.419  1.00  0.00     0.275 A
HETATM   16  O1  UNL     1      38.196   7.031  47.334  1.00  0.00    -0.266 OA
BRANCH  13  17
HETATM   17  C3  UNL     1      37.227   7.837  49.968  1.00  0.00     0.103 C
HETATM   18  C4  UNL     1      35.935   7.033  50.028  1.00  0.00     0.034 C
HETATM   19  C5  UNL     1      37.489   8.465  51.313  1.00  0.00     0.034 C
ENDBRANCH  13  17
ENDBRANCH   8   9
ENDBRANCH   1   8
BRANCH   2  20
HETATM   20  N3  UNL     1      41.124   5.533  44.695  1.00  0.00    -0.389 N
HETATM   21  C11 UNL     1      40.580   6.868  44.501  1.00  0.00     0.149 C
HETATM   22  C12 UNL     1      42.527   5.302  44.514  1.00  0.00     0.149 C
ENDBRANCH   2  20
BRANCH   5  23
HETATM   23  O2  UNL     1      37.607   1.498  46.274  1.00  0.00    -0.283 OA
ATOM     24  H2  UNL     1      37.323   1.430  47.178  1.00  0.00     0.245 HD
ENDBRANCH   5  23
TORSDOF 5
ENDMDL