MODEL 5
REMARK VINA RESULT: -7.953770353      1.680      7.135
REMARK  3 active torsions:
REMARK  status: ('A' for Active; 'I' for Inactive)
REMARK    1  A    between atoms: N2_15  and  C11_16
REMARK    2  A    between atoms: C11_16  and  C12_17
REMARK    3  A    between atoms: C12_17  and  N3_18
ROOT
HETATM    1  O1  UNL     1      37.034   5.689  47.299  1.00  0.00    -0.273 OA
HETATM    2  C1  UNL     1      37.737   6.432  48.070  1.00  0.00     0.226 C
HETATM    3  C2  UNL     1      37.657   7.913  47.973  1.00  0.00     0.106 C
HETATM    4  C3  UNL     1      38.103   8.593  49.222  1.00  0.00     0.050 C
HETATM    5  C4  UNL     1      37.951   7.746  50.472  1.00  0.00     0.108 C
HETATM    6  C5  UNL     1      38.384   8.576  51.631  1.00  0.00     0.040 C
HETATM    7  C6  UNL     1      38.104   8.025  52.970  1.00  0.00     0.003 C
HETATM    8  C7  UNL     1      36.850   7.231  53.099  1.00  0.00     0.002 C
HETATM    9  C8  UNL     1      35.634   7.946  52.596  1.00  0.00     0.019 C
HETATM   10  C9  UNL     1      35.672   8.177  51.112  1.00  0.00     0.115 C
HETATM   11  N1  UNL     1      36.609   7.284  50.527  1.00  0.00    -0.405 N
ATOM     12  H1  UNL     1      36.336   6.369  50.168  1.00  0.00     0.154 HD
HETATM   13  C10 UNL     1      38.840   6.560  50.249  1.00  0.00     0.254 C
HETATM   14  O2  UNL     1      39.716   6.196  51.041  1.00  0.00    -0.270 OA
HETATM   15  N2  UNL     1      38.610   5.856  49.035  1.00  0.00    -0.285 N
ENDROOT
BRANCH  15  16
HETATM   16  C11 UNL     1      39.228   4.582  48.753  1.00  0.00     0.165 C
BRANCH  16  17
HETATM   17  C12 UNL     1      40.479   4.796  47.940  1.00  0.00     0.293 C
BRANCH  17  18
HETATM   18  N3  UNL     1      40.226   4.723  46.512  1.00  0.00     0.094 N
HETATM   19  C13 UNL     1      39.561   3.424  46.307  1.00  0.00     0.298 C
HETATM   20  C14 UNL     1      39.331   3.249  44.837  1.00  0.00     0.198 C
HETATM   21  O3  UNL     1      40.593   3.037  44.245  1.00  0.00    -0.388 OA
HETATM   22  C15 UNL     1      41.353   4.170  44.403  1.00  0.00     0.198 C
HETATM   23  C16 UNL     1      41.493   4.634  45.816  1.00  0.00     0.298 C
ENDBRANCH  17  18
ENDBRANCH  16  17
ENDBRANCH  15  16
TORSDOF 3
ENDMDL