MODEL 4
REMARK VINA RESULT: -6.894882601      5.482      8.584
REMARK  4 active torsions:
REMARK  status: ('A' for Active; 'I' for Inactive)
REMARK       I    between atoms: C1_2  and  N1_3
REMARK    1  A    between atoms: C1_2  and  C13_20
REMARK    2  A    between atoms: N1_3  and  C2_5
REMARK    3  A    between atoms: C5_8  and  N2_9
REMARK       I    between atoms: N2_9  and  C6_11
REMARK    4  A    between atoms: C6_11  and  C7_13
ROOT
HETATM    1  C2  UNL     1      -4.518   4.415  12.516  1.00  0.00     0.084 C
HETATM    2  C3  UNL     1      -5.140   4.499  13.899  1.00  0.00     0.027 C
HETATM    3  C4  UNL     1      -4.221   3.786  14.846  1.00  0.00     0.027 C
HETATM    4  C5  UNL     1      -3.905   2.379  14.473  1.00  0.00     0.084 C
HETATM    5  C11 UNL     1      -3.796   2.107  13.011  1.00  0.00     0.027 C
HETATM    6  C12 UNL     1      -4.640   2.951  12.134  1.00  0.00     0.027 C
ENDROOT
BRANCH   1   7
HETATM    7  N1  UNL     1      -5.206   5.271  11.575  1.00  0.00    -0.356 N
HETATM    8  C1  UNL     1      -4.950   6.645  11.428  1.00  0.00     0.222 C
HETATM    9  O1  UNL     1      -4.075   7.211  12.137  1.00  0.00    -0.273 OA
ATOM     10  H1  UNL     1      -5.921   4.851  10.981  1.00  0.00     0.162 HD
BRANCH   8  11
HETATM   11  C13 UNL     1      -5.687   7.447  10.454  1.00  0.00     0.089 C
HETATM   12  C14 UNL     1      -6.558   6.666   9.492  1.00  0.00     0.093 C
HETATM   13  C15 UNL     1      -7.566   7.819   9.591  1.00  0.00     0.245 C
HETATM   14  F1  UNL     1      -8.872   7.437   9.590  1.00  0.00    -0.206 F
HETATM   15  F2  UNL     1      -7.207   8.804   8.702  1.00  0.00    -0.206 F
HETATM   16  C16 UNL     1      -6.977   8.087  10.983  1.00  0.00     0.093 C
ENDBRANCH   8  11
ENDBRANCH   1   7
BRANCH   4  17
HETATM   17  N2  UNL     1      -4.890   1.499  15.073  1.00  0.00    -0.354 N
HETATM   18  C6  UNL     1      -4.600   0.717  16.241  1.00  0.00     0.247 C
HETATM   19  O2  UNL     1      -3.434   0.827  16.734  1.00  0.00    -0.271 OA
ATOM     20  H2  UNL     1      -5.817   1.434  14.652  1.00  0.00     0.162 HD
BRANCH  18  21
HETATM   21  C7  UNL     1      -5.603  -0.166  16.834  1.00  0.00     0.213 C
HETATM   22  C8  UNL     1      -5.728   0.030  18.336  1.00  0.00     0.043 C
HETATM   23  C9  UNL     1      -6.541   1.310  18.396  1.00  0.00     0.029 C
HETATM   24  C10 UNL     1      -7.303   1.258  17.102  1.00  0.00     0.168 C
HETATM   25  O3  UNL     1      -6.857   0.176  16.382  1.00  0.00    -0.376 OA
ENDBRANCH  18  21
ENDBRANCH   4  17
TORSDOF 4
ENDMDL