MODEL 4
REMARK VINA RESULT: -6.305939421      3.108      4.725
REMARK  4 active torsions:
REMARK  status: ('A' for Active; 'I' for Inactive)
REMARK    1  A    between atoms: C2_2  and  C3_3
REMARK    2  A    between atoms: C2_2  and  N2_12
REMARK       I    between atoms: C3_3  and  N1_5
REMARK    3  A    between atoms: N1_5  and  C4_7
REMARK    4  A    between atoms: C9_16  and  C10_17
ROOT
HETATM    1  N2  UNL     1      -3.938   3.571  13.314  1.00  0.00     0.104 N
HETATM    2  C7  UNL     1      -4.986   2.601  13.208  1.00  0.00     0.293 C
HETATM    3  C8  UNL     1      -5.878   2.796  14.446  1.00  0.00     0.152 C
HETATM    4  N3  UNL     1      -5.218   2.278  15.529  1.00  0.00    -0.389 N
HETATM    5  C9  UNL     1      -5.641   1.275  16.350  1.00  0.00     0.066 C
HETATM    6  C14 UNL     1      -3.769   2.296  15.426  1.00  0.00     0.152 C
HETATM    7  C15 UNL     1      -3.272   3.444  14.586  1.00  0.00     0.293 C
ENDROOT
BRANCH   1   8
HETATM    8  C2  UNL     1      -3.018   3.528  12.198  1.00  0.00     0.310 C
HETATM    9  C1  UNL     1      -1.614   3.414  12.790  1.00  0.00     0.053 C
BRANCH   8  10
HETATM   10  C3  UNL     1      -3.233   2.254  11.434  1.00  0.00     0.251 C
HETATM   11  O1  UNL     1      -3.592   2.246  10.232  1.00  0.00    -0.271 OA
HETATM   12  N1  UNL     1      -3.029   1.007  12.077  1.00  0.00    -0.351 N
ATOM     13  H1  UNL     1      -2.737   0.980  13.055  1.00  0.00     0.163 HD
BRANCH  12  14
HETATM   14  C4  UNL     1      -3.232  -0.218  11.354  1.00  0.00     0.126 A
HETATM   15  C5  UNL     1      -4.652  -0.633  11.080  1.00  0.00     0.072 A
HETATM   16  C6  UNL     1      -3.860  -1.320  12.155  1.00  0.00     0.135 A
HETATM   17 CL1  UNL     1      -4.287  -0.991  13.860  1.00  0.00    -0.099 Cl
HETATM   18 CL2  UNL     1      -3.232  -2.944  11.825  1.00  0.00    -0.099 Cl
ENDBRANCH  12  14
ENDBRANCH   8  10
ENDBRANCH   1   8
BRANCH   5  19
HETATM   19  C10 UNL     1      -6.803   1.457  17.270  1.00  0.00    -0.019 C
HETATM   20  C11 UNL     1      -7.904   0.461  17.108  1.00  0.00     0.020 C
HETATM   21  C12 UNL     1      -7.266   2.884  17.377  1.00  0.00     0.020 C
HETATM   22  C13 UNL     1      -6.227   1.127  18.668  1.00  0.00     0.020 C
ENDBRANCH   5  19
TORSDOF 4
ENDMDL