MODEL 5
REMARK VINA RESULT: -6.361479637      5.163      7.909
REMARK  4 active torsions:
REMARK  status: ('A' for Active; 'I' for Inactive)
REMARK    1  A    between atoms: C7_8  and  N2_9
REMARK       I    between atoms: N2_9  and  C8_11
REMARK       I    between atoms: C8_11  and  N3_13
REMARK    2  A    between atoms: N3_13  and  C9_15
REMARK    3  A    between atoms: N4_17  and  C11_18
REMARK    4  A    between atoms: C11_18  and  C12_19
ROOT
HETATM    1  N2  UNL     1      -1.692   2.189  11.176  1.00  0.00    -0.338 N
ATOM      2  H2  UNL     1      -1.816   2.551  12.122  1.00  0.00     0.164 HD
HETATM    3  C8  UNL     1      -0.563   2.609  10.443  1.00  0.00     0.316 C
HETATM    4  O1  UNL     1      -0.390   2.174   9.277  1.00  0.00    -0.247 OA
HETATM    5  N3  UNL     1       0.367   3.513  11.017  1.00  0.00    -0.334 N
ATOM      6  H3  UNL     1       0.222   3.864  11.963  1.00  0.00     0.164 HD
ENDROOT
BRANCH   1   7
HETATM    7  C7  UNL     1      -2.686   1.268  10.659  1.00  0.00     0.090 C
HETATM    8  C6  UNL     1      -4.030   1.774  11.025  1.00  0.00     0.061 C
HETATM    9  C5  UNL     1      -4.821   0.854  11.924  1.00  0.00     0.225 C
HETATM   10  N1  UNL     1      -3.907   0.375  12.930  1.00  0.00     0.093 N
HETATM   11  C4  UNL     1      -5.238  -0.339  11.093  1.00  0.00     0.038 C
HETATM   12  C1  UNL     1      -4.541  -0.160  14.092  1.00  0.00     0.310 C
HETATM   13  C2  UNL     1      -3.188  -0.651  12.208  1.00  0.00     0.225 C
HETATM   14  C3  UNL     1      -4.345  -1.445  11.591  1.00  0.00     0.038 C
HETATM   15  C16 UNL     1      -2.354  -0.105  11.114  1.00  0.00     0.061 C
ENDBRANCH   1   7
BRANCH   5  16
HETATM   16  C9  UNL     1       1.516   3.935  10.258  1.00  0.00     0.137 C
HETATM   17  C10 UNL     1       1.199   5.111   9.354  1.00  0.00     0.145 C
HETATM   18  N4  UNL     1       2.387   5.466   8.650  1.00  0.00    -0.408 N
HETATM   19  C13 UNL     1       3.393   5.910   9.549  1.00  0.00     0.119 C
HETATM   20  C14 UNL     1       3.842   4.729  10.388  1.00  0.00     0.058 C
HETATM   21  C15 UNL     1       2.648   4.278  11.205  1.00  0.00     0.196 C
HETATM   22  F2  UNL     1       2.283   5.214  12.127  1.00  0.00    -0.247 F
BRANCH  18  23
HETATM   23  C11 UNL     1       2.772   4.613   7.592  1.00  0.00     0.148 C
BRANCH  23  24
HETATM   24  C12 UNL     1       1.613   4.452   6.632  1.00  0.00     0.241 C
HETATM   25  F1  UNL     1       1.241   3.118   6.674  1.00  0.00    -0.254 F
ENDBRANCH  23  24
ENDBRANCH  18  23
ENDBRANCH   5  16
TORSDOF 4
ENDMDL