MODEL 1
REMARK VINA RESULT: -8.709864959      0.000      0.000
REMARK  5 active torsions:
REMARK  status: ('A' for Active; 'I' for Inactive)
REMARK       I    between atoms: C1_2  and  N1_3
REMARK    1  A    between atoms: C1_2  and  C16_22
REMARK    2  A    between atoms: N1_3  and  C2_5
REMARK    3  A    between atoms: C5_8  and  C6_9
REMARK    4  A    between atoms: C6_9  and  N2_10
REMARK    5  A    between atoms: C11_15  and  O2_16
ROOT
HETATM    1  C2  UNL     1      -6.352   3.098  14.915  1.00  0.00     0.085 C
HETATM    2  C3  UNL     1      -6.054   4.574  15.062  1.00  0.00     0.026 C
HETATM    3  C4  UNL     1      -5.396   4.905  13.743  1.00  0.00     0.012 C
HETATM    4  C5  UNL     1      -4.455   3.706  13.551  1.00  0.00     0.026 C
HETATM    5  C15 UNL     1      -5.064   2.565  14.258  1.00  0.00     0.035 C
ENDROOT
BRANCH   4   6
HETATM    6  C6  UNL     1      -4.054   3.553  12.124  1.00  0.00     0.063 C
BRANCH   6   7
HETATM    7  N2  UNL     1      -3.177   2.502  11.886  1.00  0.00    -0.388 N
HETATM    8  C7  UNL     1      -2.246   2.475  10.868  1.00  0.00     0.123 C
HETATM    9  C8  UNL     1      -1.919   0.985  10.660  1.00  0.00     0.026 C
HETATM   10  C9  UNL     1      -2.484   0.346  11.914  1.00  0.00     0.012 C
HETATM   11  C10 UNL     1      -2.743  -1.110  11.770  1.00  0.00     0.038 C
HETATM   12  C14 UNL     1      -3.725   1.182  12.086  1.00  0.00     0.087 C
HETATM   13  C11 UNL     1      -4.205  -1.463  11.838  1.00  0.00     0.118 C
HETATM   14  C12 UNL     1      -4.934  -0.630  10.826  1.00  0.00     0.034 C
HETATM   15  C13 UNL     1      -4.838   0.815  11.180  1.00  0.00     0.028 C
BRANCH  13  16
HETATM   16  O2  UNL     1      -4.646  -1.283  13.134  1.00  0.00    -0.396 OA
ATOM     17  H2  UNL     1      -4.908  -0.377  13.245  1.00  0.00     0.210 HD
ENDBRANCH  13  16
ENDBRANCH   6   7
ENDBRANCH   4   6
BRANCH   1  18
HETATM   18  N1  UNL     1      -6.620   2.460  16.164  1.00  0.00    -0.349 N
HETATM   19  C1  UNL     1      -6.324   1.125  16.498  1.00  0.00     0.325 C
HETATM   20  O1  UNL     1      -5.770   0.391  15.647  1.00  0.00    -0.263 OA
ATOM     21  H1  UNL     1      -7.070   3.026  16.884  1.00  0.00     0.163 HD
BRANCH  19  22
HETATM   22  C16 UNL     1      -6.648   0.558  17.831  1.00  0.00     0.472 C
HETATM   23  F1  UNL     1      -6.520   1.539  18.823  1.00  0.00    -0.162 F
HETATM   24  F2  UNL     1      -5.771  -0.456  18.188  1.00  0.00    -0.162 F
HETATM   25  F3  UNL     1      -7.922   0.018  17.841  1.00  0.00    -0.162 F
ENDBRANCH  19  22
ENDBRANCH   1  18
TORSDOF 5
ENDMDL