MODEL 5
REMARK VINA RESULT: -6.713872687      3.365      4.791
REMARK  6 active torsions:
REMARK  status: ('A' for Active; 'I' for Inactive)
REMARK    1  A    between atoms: C2_2  and  C3_3
REMARK    2  A    between atoms: C3_3  and  O1_4
REMARK    3  A    between atoms: C5_7  and  C6_8
REMARK       I    between atoms: C6_8  and  N1_10
REMARK    4  A    between atoms: N1_10  and  C7_12
REMARK       I    between atoms: N2_15  and  C10_16
REMARK    5  A    between atoms: C10_16  and  C11_18
REMARK    6  A    between atoms: C11_18  and  C12_19
ROOT
HETATM    1  C1  UNL     1      -2.413  -0.424  11.542  1.00  0.00     0.019 C
HETATM    2  C2  UNL     1      -3.714   0.289  11.393  1.00  0.00    -0.004 C
HETATM    3  C4  UNL     1      -3.592   1.778  11.226  1.00  0.00     0.048 C
HETATM    4  C5  UNL     1      -3.435   2.285  12.618  1.00  0.00     0.180 C
HETATM    5  N2  UNL     1      -4.077   1.333  13.458  1.00  0.00    -0.338 N
HETATM    6  C10 UNL     1      -4.209   1.384  14.857  1.00  0.00     0.223 C
HETATM    7  O3  UNL     1      -3.718   2.346  15.484  1.00  0.00    -0.273 OA
HETATM    8  C13 UNL     1      -4.578   0.244  12.643  1.00  0.00     0.138 C
ENDROOT
BRANCH   4   9
HETATM    9  C6  UNL     1      -3.999   3.665  12.763  1.00  0.00     0.241 C
HETATM   10  O2  UNL     1      -5.077   4.024  12.247  1.00  0.00    -0.271 OA
HETATM   11  N1  UNL     1      -3.228   4.574  13.537  1.00  0.00    -0.355 N
ATOM     12  H1  UNL     1      -2.347   4.285  13.961  1.00  0.00     0.162 HD
BRANCH  11  13
HETATM   13  C7  UNL     1      -3.730   5.921  13.707  1.00  0.00     0.084 A
HETATM   14  C8  UNL     1      -2.892   6.754  14.669  1.00  0.00     0.027 A
HETATM   15  C9  UNL     1      -4.307   6.352  15.002  1.00  0.00     0.027 A
ENDBRANCH  11  13
ENDBRANCH   4   9
BRANCH   2  16
HETATM   16  C3  UNL     1      -4.443  -0.276  10.197  1.00  0.00     0.175 C
BRANCH  16  17
HETATM   17  O1  UNL     1      -3.515  -0.769   9.309  1.00  0.00    -0.400 OA
ATOM     18  H1  UNL     1      -3.973  -1.121   8.556  1.00  0.00     0.209 HD
ENDBRANCH  16  17
ENDBRANCH   2  16
BRANCH   6  19
HETATM   19  C11 UNL     1      -4.916   0.335  15.630  1.00  0.00     0.139 C
BRANCH  19  20
HETATM   20  C12 UNL     1      -5.477   0.884  16.916  1.00  0.00     0.187 C
HETATM   21 CL1  UNL     1      -6.106  -0.403  17.964  1.00  0.00    -0.108 Cl
HETATM   22 CL2  UNL     1      -6.869   1.921  16.472  1.00  0.00    -0.108 Cl
ENDBRANCH  19  20
ENDBRANCH   6  19
TORSDOF 6
ENDMDL