MODEL 4
REMARK VINA RESULT: -6.748694486      3.320      6.607
REMARK  6 active torsions:
REMARK  status: ('A' for Active; 'I' for Inactive)
REMARK    1  A    between atoms: N1_1  and  C1_4
REMARK    2  A    between atoms: C2_5  and  C3_6
REMARK    3  A    between atoms: N2_10  and  C6_11
REMARK    4  A    between atoms: C6_11  and  C7_12
REMARK    5  A    between atoms: C7_12  and  C8_13
REMARK       I    between atoms: C8_13  and  N3_15
REMARK    6  A    between atoms: N3_15  and  C9_17
ROOT
HETATM    1  C3  UNL     1      -5.216   2.614  14.990  1.00  0.00     0.190 C
HETATM    2  F1  UNL     1      -6.294   3.482  15.070  1.00  0.00    -0.227 F
HETATM    3  C4  UNL     1      -3.985   3.383  15.337  1.00  0.00     0.079 C
HETATM    4  C5  UNL     1      -3.692   4.356  14.245  1.00  0.00     0.126 C
HETATM    5  N2  UNL     1      -3.437   3.621  13.027  1.00  0.00    -0.391 N
HETATM    6  C15 UNL     1      -4.516   2.837  12.585  1.00  0.00     0.082 C
HETATM    7  C16 UNL     1      -5.199   2.006  13.617  1.00  0.00     0.172 C
HETATM    8 CL1  UNL     1      -4.493   0.381  13.747  1.00  0.00    -0.115 Cl
ENDROOT
BRANCH   5   9
HETATM    9  C6  UNL     1      -2.129   3.083  12.958  1.00  0.00     0.131 C
BRANCH   9  10
HETATM   10  C7  UNL     1      -1.473   3.108  11.605  1.00  0.00     0.122 C
BRANCH  10  11
HETATM   11  C8  UNL     1      -1.542   1.803  10.920  1.00  0.00     0.219 C
HETATM   12  O1  UNL     1      -1.031   1.629   9.792  1.00  0.00    -0.274 OA
HETATM   13  N3  UNL     1      -2.199   0.723  11.551  1.00  0.00    -0.356 N
ATOM     14  H3  UNL     1      -2.617   0.861  12.471  1.00  0.00     0.162 HD
BRANCH  13  15
HETATM   15  C9  UNL     1      -2.290  -0.568  10.919  1.00  0.00     0.084 C
HETATM   16  C10 UNL     1      -3.590  -0.618  10.152  1.00  0.00     0.025 C
HETATM   17  C11 UNL     1      -4.731  -1.061  11.038  1.00  0.00     0.002 C
HETATM   18  C12 UNL     1      -4.522  -2.450  11.584  1.00  0.00     0.000 C
HETATM   19  C13 UNL     1      -3.071  -2.858  11.578  1.00  0.00     0.002 C
HETATM   20  C14 UNL     1      -2.153  -1.700  11.887  1.00  0.00     0.025 C
ENDBRANCH  13  15
ENDBRANCH  10  11
ENDBRANCH   9  10
ENDBRANCH   5   9
BRANCH   1  21
HETATM   21  C2  UNL     1      -5.456   1.553  15.972  1.00  0.00    -0.038 C
HETATM   22  C1  UNL     1      -5.657   0.693  16.797  1.00  0.00     0.006 C
BRANCH  22  23
HETATM   23  N1  UNL     1      -5.888  -0.287  17.769  1.00  0.00    -0.359 N
ATOM     24  H12 UNL     1      -6.138   0.686  17.591  1.00  0.00     0.166 HD
ATOM     25  H11 UNL     1      -6.047  -1.013  18.468  1.00  0.00     0.166 HD
ENDBRANCH  22  23
ENDBRANCH   1  21
TORSDOF 6
ENDMDL