MODEL 5
REMARK VINA RESULT: -6.580547698      2.904      5.822
REMARK  6 active torsions:
REMARK  status: ('A' for Active; 'I' for Inactive)
REMARK    1  A    between atoms: C2_2  and  O1_4
REMARK    2  A    between atoms: C2_2  and  C4_6
REMARK    3  A    between atoms: C4_6  and  O2_7
REMARK    4  A    between atoms: C4_6  and  C5_9
REMARK    5  A    between atoms: C4_6  and  C11_16
REMARK    6  A    between atoms: C5_9  and  N1_10
ROOT
HETATM    1  C4  UNL     1      -4.286   2.683  13.313  1.00  0.00     0.124 C
ENDROOT
BRANCH   1   2
HETATM    2  C2  UNL     1      -4.355   4.043  12.770  1.00  0.00     0.084 C
HETATM    3  C1  UNL     1      -4.144   4.172  11.282  1.00  0.00     0.049 C
HETATM    4  C3  UNL     1      -3.571   5.116  13.446  1.00  0.00     0.049 C
BRANCH   2   5
HETATM    5  O1  UNL     1      -5.719   4.427  12.981  1.00  0.00    -0.387 OA
ATOM      6  H1  UNL     1      -5.699   4.982  13.752  1.00  0.00     0.210 HD
ENDBRANCH   2   5
ENDBRANCH   1   2
BRANCH   1   7
HETATM    7  O2  UNL     1      -3.356   2.765  14.401  1.00  0.00    -0.384 OA
ATOM      8  H2  UNL     1      -3.399   1.916  14.824  1.00  0.00     0.210 HD
ENDBRANCH   1   7
BRANCH   1   9
HETATM    9  C5  UNL     1      -5.608   2.439  14.056  1.00  0.00     0.314 C
BRANCH   9  10
HETATM   10  N1  UNL     1      -5.431   2.281  15.460  1.00  0.00     0.093 N
HETATM   11  C6  UNL     1      -5.509   0.872  15.811  1.00  0.00     0.283 C
HETATM   12  C7  UNL     1      -6.426   1.235  16.908  1.00  0.00     0.013 A
HETATM   13  C8  UNL     1      -6.282   0.934  18.303  1.00  0.00     0.014 A
HETATM   14  C9  UNL     1      -7.465   0.380  17.464  1.00  0.00     0.014 A
HETATM   15  C10 UNL     1      -6.622   2.546  16.276  1.00  0.00     0.283 C
ENDBRANCH   9  10
ENDBRANCH   1   9
BRANCH   1  16
HETATM   16  C11 UNL     1      -3.897   1.528  12.510  1.00  0.00     0.097 C
HETATM   17  C12 UNL     1      -2.454   1.611  12.046  1.00  0.00     0.053 C
HETATM   18  C13 UNL     1      -1.983   0.359  11.337  1.00  0.00     0.175 C
HETATM   19  F1  UNL     1      -1.333   0.662  10.156  1.00  0.00    -0.249 F
HETATM   20  C14 UNL     1      -3.131  -0.492  11.062  1.00  0.00     0.032 A
HETATM   21  C15 UNL     1      -3.857  -0.844   9.900  1.00  0.00     0.020 A
HETATM   22  C16 UNL     1      -4.086   0.494  10.298  1.00  0.00     0.063 A
HETATM   23  C17 UNL     1      -4.798   1.093  11.418  1.00  0.00     0.138 C
HETATM   24  O3  UNL     1      -5.978   1.178  11.370  1.00  0.00    -0.297 OA
ENDBRANCH   1  16
TORSDOF 6
ENDMDL