MODEL 5
REMARK VINA RESULT: -6.871671395      1.729      2.367
REMARK  3 active torsions:
REMARK  status: ('A' for Active; 'I' for Inactive)
REMARK    1  A    between atoms: C1_2  and  C2_3
REMARK       I    between atoms: C1_2  and  N3_14
REMARK    2  A    between atoms: C2_3  and  N1_4
REMARK    3  A    between atoms: N3_14  and  C7_16
ROOT
HETATM    1  O1  UNL     1      -5.280   4.147  10.685  1.00  0.00    -0.272 OA
HETATM    2  C1  UNL     1      -4.182   4.257  11.251  1.00  0.00     0.235 C
HETATM    3  N3  UNL     1      -4.046   5.170  12.304  1.00  0.00    -0.354 N
ATOM      4  H3  UNL     1      -3.132   5.237  12.750  1.00  0.00     0.162 HD
ENDROOT
BRANCH   2   5
HETATM    5  C2  UNL     1      -3.061   3.425  10.801  1.00  0.00     0.220 C
BRANCH   5   6
HETATM    6  N1  UNL     1      -2.610   2.504  11.798  1.00  0.00    -0.396 N
HETATM    7  C3  UNL     1      -1.484   1.730  11.411  1.00  0.00     0.145 C
HETATM    8  C4  UNL     1      -1.777   0.271  11.496  1.00  0.00     0.257 C
HETATM    9  N2  UNL     1      -3.128  -0.098  11.199  1.00  0.00    -0.021 N
HETATM   10  C5  UNL     1      -4.103   0.557  12.025  1.00  0.00     0.356 C
ATOM     11  H22 UNL     1      -3.334   0.055  10.211  1.00  0.00     0.282 HD
ATOM     12  H21 UNL     1      -3.243  -1.110  11.242  1.00  0.00     0.282 HD
HETATM   13  F1  UNL     1      -4.381  -0.276  13.094  1.00  0.00    -0.191 F
HETATM   14 CL1  UNL     1      -5.647   0.794  11.167  1.00  0.00    -0.051 Cl
HETATM   15  C6  UNL     1      -3.601   1.867  12.584  1.00  0.00     0.209 C
ENDBRANCH   5   6
ENDBRANCH   2   5
BRANCH   3  16
HETATM   16  C7  UNL     1      -5.092   6.024  12.809  1.00  0.00     0.092 C
HETATM   17  C8  UNL     1      -6.067   5.352  13.727  1.00  0.00     0.009 C
HETATM   18  C9  UNL     1      -7.342   6.213  13.670  1.00  0.00     0.011 C
HETATM   19  C13 UNL     1      -5.656   5.345  15.168  1.00  0.00     0.011 C
HETATM   20  C10 UNL     1      -7.001   7.601  14.144  1.00  0.00    -0.013 C
HETATM   21  C11 UNL     1      -6.561   7.559  15.598  1.00  0.00     0.009 C
HETATM   22  C16 UNL     1      -5.867   8.239  13.372  1.00  0.00     0.011 C
HETATM   23  C12 UNL     1      -5.306   6.742  15.673  1.00  0.00    -0.013 C
HETATM   24  C14 UNL     1      -4.189   7.247  14.817  1.00  0.00     0.011 C
HETATM   25  C15 UNL     1      -4.634   7.322  13.384  1.00  0.00     0.009 C
ENDBRANCH   3  16
TORSDOF 3
ENDMDL