MODEL 4
REMARK VINA RESULT: -7.047747890      3.028      4.614
REMARK  6 active torsions:
REMARK  status: ('A' for Active; 'I' for Inactive)
REMARK    1  A    between atoms: C4_6  and  N2_7
REMARK    2  A    between atoms: N2_7  and  C5_9
REMARK    3  A    between atoms: C11_18  and  N5_19
REMARK    4  A    between atoms: N5_19  and  C12_21
REMARK    5  A    between atoms: C12_21  and  C14_23
REMARK    6  A    between atoms: C14_23  and  C15_24
ROOT
HETATM    1  C1  UNL     1      -4.281  -1.301  12.324  1.00  0.00     0.054 C
HETATM    2  C2  UNL     1      -4.368   0.180  12.239  1.00  0.00    -0.002 A
HETATM    3  C3  UNL     1      -4.302   0.880  11.056  1.00  0.00     0.116 A
HETATM    4  N1  UNL     1      -4.388   2.243  11.041  1.00  0.00    -0.201 N
ATOM      5  H1  UNL     1      -4.335   2.730  10.147  1.00  0.00     0.183 HD
HETATM    6  C4  UNL     1      -4.540   2.964  12.159  1.00  0.00     0.679 A
HETATM    7  N4  UNL     1      -4.605   2.253  13.328  1.00  0.00    -0.176 N
ATOM      8  H4  UNL     1      -4.720   2.769  14.200  1.00  0.00     0.186 HD
HETATM    9  C11 UNL     1      -4.525   0.920  13.390  1.00  0.00     0.124 A
ENDROOT
BRANCH   6  10
HETATM   10  N2  UNL     1      -4.623   4.224  12.170  1.00  0.00    -0.221 N
ATOM     11  H2  UNL     1      -4.563   4.638  11.240  1.00  0.00     0.178 HD
BRANCH  10  12
HETATM   12  C5  UNL     1      -4.780   5.176  13.189  1.00  0.00     0.102 C
HETATM   13  C6  UNL     1      -6.131   5.201  13.841  1.00  0.00     0.056 C
HETATM   14  C7  UNL     1      -6.031   5.425  15.335  1.00  0.00     0.274 C
HETATM   15  N3  UNL     1      -5.169   6.543  15.555  1.00  0.00     0.084 N
HETATM   16  C8  UNL     1      -5.707   7.806  15.163  1.00  0.00     0.309 C
HETATM   17  C9  UNL     1      -3.815   6.325  15.152  1.00  0.00     0.274 C
HETATM   18  C10 UNL     1      -3.625   5.211  14.167  1.00  0.00     0.056 C
ENDBRANCH  10  12
ENDBRANCH   6  10
BRANCH   9  19
HETATM   19  N5  UNL     1      -4.590   0.299  14.519  1.00  0.00    -0.371 N
ATOM     20  H5  UNL     1      -4.498  -0.716  14.519  1.00  0.00     0.161 HD
BRANCH  19  21
HETATM   21  C12 UNL     1      -4.788   0.968  15.783  1.00  0.00     0.084 C
HETATM   22  C13 UNL     1      -3.523   1.421  16.432  1.00  0.00     0.032 C
BRANCH  21  23
HETATM   23  C14 UNL     1      -5.549   0.102  16.763  1.00  0.00     0.103 C
BRANCH  23  24
HETATM   24  C15 UNL     1      -6.698   0.851  17.397  1.00  0.00     0.241 C
HETATM   25  C16 UNL     1      -7.026   2.124  16.681  1.00  0.00     0.090 C
HETATM   26  F1  UNL     1      -6.300   1.183  18.680  1.00  0.00    -0.207 F
HETATM   27  F2  UNL     1      -7.833   0.093  17.495  1.00  0.00    -0.207 F
ENDBRANCH  23  24
ENDBRANCH  21  23
ENDBRANCH  19  21
ENDBRANCH   9  19
TORSDOF 6
ENDMDL