MODEL 5
REMARK VINA RESULT: -7.005337456      3.857      4.752
REMARK  6 active torsions:
REMARK  status: ('A' for Active; 'I' for Inactive)
REMARK    1  A    between atoms: N1_2  and  C3_4
REMARK    2  A    between atoms: C3_4  and  C4_5
REMARK    3  A    between atoms: C7_8  and  C8_9
REMARK       I    between atoms: C8_9  and  N2_11
REMARK    4  A    between atoms: N2_11  and  C9_13
REMARK    5  A    between atoms: C12_16  and  O2_17
REMARK    6  A    between atoms: C13_19  and  C14_20
ROOT
HETATM    1  C8  UNL     1      -5.885   5.116  14.433  1.00  0.00     0.222 C
HETATM    2  O1  UNL     1      -6.925   5.068  13.733  1.00  0.00    -0.273 OA
HETATM    3  N2  UNL     1      -4.783   4.303  14.051  1.00  0.00    -0.356 N
ATOM      4  H2  UNL     1      -3.937   4.340  14.618  1.00  0.00     0.162 HD
ENDROOT
BRANCH   3   5
HETATM    5  C9  UNL     1      -4.799   3.434  12.908  1.00  0.00     0.085 C
HETATM    6  C10 UNL     1      -3.702   3.813  11.904  1.00  0.00     0.028 C
HETATM    7  C11 UNL     1      -4.024   3.006  10.649  1.00  0.00     0.034 C
HETATM    8  C12 UNL     1      -3.810   1.561  10.954  1.00  0.00     0.131 C
HETATM    9  C13 UNL     1      -3.753   1.215  12.401  1.00  0.00     0.124 C
HETATM   10  C15 UNL     1      -4.715   1.982  13.266  1.00  0.00     0.041 C
BRANCH   8  11
HETATM   11  O2  UNL     1      -2.586   1.180  10.359  1.00  0.00    -0.395 OA
ATOM     12  H2  UNL     1      -2.317   0.362  10.762  1.00  0.00     0.210 HD
ENDBRANCH   8  11
BRANCH   9  13
HETATM   13  C14 UNL     1      -4.113  -0.268  12.566  1.00  0.00     0.393 C
HETATM   14  F1  UNL     1      -3.053  -1.074  12.240  1.00  0.00    -0.171 F
HETATM   15  F2  UNL     1      -5.150  -0.580  11.696  1.00  0.00    -0.171 F
HETATM   16  F3  UNL     1      -4.465  -0.549  13.875  1.00  0.00    -0.171 F
ENDBRANCH   9  13
ENDBRANCH   3   5
BRANCH   1  17
HETATM   17  C7  UNL     1      -5.829   5.990  15.605  1.00  0.00     0.078 C
HETATM   18  C6  UNL     1      -6.785   7.154  15.449  1.00  0.00     0.014 C
HETATM   19  C5  UNL     1      -6.060   8.086  14.535  1.00  0.00     0.007 C
HETATM   20  C4  UNL     1      -4.588   7.625  14.501  1.00  0.00     0.015 C
HETATM   21  C16 UNL     1      -4.496   6.753  15.704  1.00  0.00     0.020 C
BRANCH  20  22
HETATM   22  C3  UNL     1      -3.767   8.883  14.548  1.00  0.00     0.275 C
BRANCH  22  23
HETATM   23  N1  UNL     1      -4.253   9.986  13.797  1.00  0.00     0.080 N
HETATM   24  C1  UNL     1      -3.897  11.209  14.537  1.00  0.00     0.309 C
HETATM   25  C2  UNL     1      -3.704  10.151  12.484  1.00  0.00     0.309 C
ENDBRANCH  22  23
ENDBRANCH  20  22
ENDBRANCH   1  17
TORSDOF 6
ENDMDL