MODEL 3
REMARK VINA RESULT: -6.785664598      2.047      2.593
REMARK  5 active torsions:
REMARK  status: ('A' for Active; 'I' for Inactive)
REMARK    1  A    between atoms: N1_5  and  C5_6
REMARK    2  A    between atoms: C14_18  and  C15_19
REMARK    3  A    between atoms: C15_19  and  N3_20
REMARK    4  A    between atoms: N3_20  and  C16_22
REMARK    5  A    between atoms: C16_22  and  C17_23
ROOT
HETATM    1  C1  UNL     1      -3.007   2.046  14.903  1.00  0.00     0.017 C
HETATM    2  C2  UNL     1      -3.841   2.715  13.834  1.00  0.00    -0.022 C
HETATM    3  C3  UNL     1      -3.530   4.203  13.761  1.00  0.00     0.017 C
HETATM    4  C4  UNL     1      -3.467   2.095  12.508  1.00  0.00     0.132 C
HETATM    5  N1  UNL     1      -4.513   1.190  12.212  1.00  0.00    -0.385 N
HETATM    6  C13 UNL     1      -5.569   1.251  13.111  1.00  0.00     0.066 C
HETATM    7  C14 UNL     1      -5.306   2.490  13.955  1.00  0.00     0.050 C
ENDROOT
BRANCH   5   8
HETATM    8  C5  UNL     1      -4.082  -0.053  11.690  1.00  0.00     0.111 C
HETATM    9  C6  UNL     1      -4.944  -1.251  12.145  1.00  0.00     0.107 C
HETATM   10  C7  UNL     1      -4.159  -2.100  13.154  1.00  0.00     0.028 C
HETATM   11  N2  UNL     1      -4.978  -2.088  10.957  1.00  0.00    -0.354 N
HETATM   12  C8  UNL     1      -2.943  -2.753  12.480  1.00  0.00     0.022 C
HETATM   13  C9  UNL     1      -2.601  -1.905  11.339  1.00  0.00     0.047 A
HETATM   14  C10 UNL     1      -1.646  -0.906  11.069  1.00  0.00     0.027 A
HETATM   15  C11 UNL     1      -2.699  -0.456  11.945  1.00  0.00     0.029 A
HETATM   16  C12 UNL     1      -3.707  -2.121  10.326  1.00  0.00     0.227 C
HETATM   17  O1  UNL     1      -3.483  -2.297   9.116  1.00  0.00    -0.273 OA
ATOM     18  H2  UNL     1      -5.803  -2.583  10.622  1.00  0.00     0.163 HD
ENDBRANCH   5   8
BRANCH   7  19
HETATM   19  C15 UNL     1      -5.721   2.219  15.399  1.00  0.00     0.124 C
BRANCH  19  20
HETATM   20  N3  UNL     1      -6.298   0.913  15.528  1.00  0.00    -0.413 N
ATOM     21  H3  UNL     1      -7.117   0.644  14.983  1.00  0.00     0.153 HD
BRANCH  20  22
HETATM   22  C16 UNL     1      -5.697   0.010  16.434  1.00  0.00     0.231 C
BRANCH  22  23
HETATM   23  C17 UNL     1      -6.555  -0.491  17.552  1.00  0.00     0.402 C
HETATM   24  F1  UNL     1      -6.168  -1.790  17.863  1.00  0.00    -0.169 F
HETATM   25  F2  UNL     1      -7.890  -0.637  17.125  1.00  0.00    -0.169 F
HETATM   26  F3  UNL     1      -6.622   0.332  18.646  1.00  0.00    -0.169 F
ENDBRANCH  22  23
ENDBRANCH  20  22
ENDBRANCH  19  20
ENDBRANCH   7  19
TORSDOF 5
ENDMDL