MODEL 1
REMARK VINA RESULT: -7.317404429      0.000      0.000
REMARK  7 active torsions:
REMARK  status: ('A' for Active; 'I' for Inactive)
REMARK    1  A    between atoms: C3_3  and  C4_4
REMARK    2  A    between atoms: C5_10  and  N2_11
REMARK    3  A    between atoms: N2_11  and  C6_13
REMARK    4  A    between atoms: C9_18  and  N4_19
REMARK    5  A    between atoms: N4_19  and  C10_21
REMARK    6  A    between atoms: C10_21  and  C11_22
REMARK    7  A    between atoms: C11_22  and  N5_23
ROOT
HETATM    1  C1  UNL     1      -7.391   1.885  16.995  1.00  0.00     0.054 C
HETATM    2  C2  UNL     1      -6.474   1.098  16.126  1.00  0.00     0.014 A
HETATM    3  C3  UNL     1      -5.965  -0.127  16.496  1.00  0.00     0.142 A
HETATM    4  N1  UNL     1      -5.122  -0.807  15.667  1.00  0.00    -0.186 N
ATOM      5  H1  UNL     1      -4.761  -1.712  15.967  1.00  0.00     0.184 HD
HETATM    6  C5  UNL     1      -4.750  -0.327  14.470  1.00  0.00     0.680 A
HETATM    7  N3  UNL     1      -5.246   0.874  14.103  1.00  0.00    -0.176 N
ATOM      8  H3  UNL     1      -4.977   1.257  13.197  1.00  0.00     0.186 HD
HETATM    9  C9  UNL     1      -6.077   1.583  14.877  1.00  0.00     0.125 A
ENDROOT
BRANCH   9  10
HETATM   10  N4  UNL     1      -6.545   2.715  14.533  1.00  0.00    -0.374 N
ATOM     11  H4  UNL     1      -7.542   2.834  14.711  1.00  0.00     0.161 HD
BRANCH  10  12
HETATM   12  C10 UNL     1      -5.916   3.837  13.946  1.00  0.00     0.151 C
BRANCH  12  13
HETATM   13  C11 UNL     1      -5.616   4.949  14.920  1.00  0.00     0.292 C
BRANCH  13  14
HETATM   14  N5  UNL     1      -4.221   4.989  15.307  1.00  0.00     0.090 N
HETATM   15  C12 UNL     1      -3.827   6.287  15.720  1.00  0.00     0.272 C
HETATM   16  C13 UNL     1      -2.397   6.648  15.549  1.00  0.00     0.030 C
HETATM   17  C14 UNL     1      -1.808   6.137  14.247  1.00  0.00     0.003 C
HETATM   18  C15 UNL     1      -1.981   4.614  14.323  1.00  0.00     0.030 C
HETATM   19  C16 UNL     1      -3.463   4.375  14.269  1.00  0.00     0.272 C
ENDBRANCH  13  14
ENDBRANCH  12  13
ENDBRANCH  10  12
ENDBRANCH   9  10
BRANCH   3  20
HETATM   20  C4  UNL     1      -6.358  -0.695  17.816  1.00  0.00     0.433 C
HETATM   21  F1  UNL     1      -5.724  -1.938  17.947  1.00  0.00    -0.165 F
HETATM   22  F2  UNL     1      -6.078   0.144  18.864  1.00  0.00    -0.165 F
HETATM   23  F3  UNL     1      -7.720  -0.986  17.726  1.00  0.00    -0.165 F
ENDBRANCH   3  20
BRANCH   6  24
HETATM   24  N2  UNL     1      -3.952  -1.037  13.755  1.00  0.00    -0.222 N
ATOM     25  H2  UNL     1      -3.188  -1.499  14.249  1.00  0.00     0.178 HD
BRANCH  24  26
HETATM   26  C6  UNL     1      -4.017  -1.250  12.347  1.00  0.00     0.091 C
HETATM   27  C7  UNL     1      -4.204  -2.756  12.116  1.00  0.00     0.032 C
HETATM   28  C8  UNL     1      -2.687  -0.908  11.663  1.00  0.00     0.032 C
ENDBRANCH  24  26
ENDBRANCH   6  24
TORSDOF 7
ENDMDL