MODEL 2
REMARK VINA RESULT: -6.989886313      0.840      1.197
REMARK  5 active torsions:
REMARK  status: ('A' for Active; 'I' for Inactive)
REMARK       I    between atoms: C2_4  and  N2_5
REMARK       I    between atoms: C2_4  and  N4_14
REMARK    1  A    between atoms: N2_5  and  C3_7
REMARK    2  A    between atoms: C13_19  and  C14_20
REMARK    3  A    between atoms: C14_20  and  N5_21
REMARK    4  A    between atoms: N5_21  and  C15_24
REMARK    5  A    between atoms: C15_24  and  C16_25
ROOT
HETATM    1  C1  UNL     1      -1.630   2.792  14.577  1.00  0.00     0.165 C
HETATM    2  N1  UNL     1      -2.429   1.981  13.759  1.00  0.00    -0.230 N
ATOM      3  H1  UNL     1      -2.154   1.000  13.811  1.00  0.00     0.177 HD
HETATM    4  C2  UNL     1      -3.372   2.152  12.999  1.00  0.00     0.676 C
HETATM    5  N2  UNL     1      -4.027   3.346  12.666  1.00  0.00    -0.199 N
ATOM      6  H2  UNL     1      -4.146   3.502  11.666  1.00  0.00     0.183 HD
HETATM    7  N4  UNL     1      -3.901   0.967  12.342  1.00  0.00    -0.212 N
HETATM    8  C9  UNL     1      -3.462   0.706  10.998  1.00  0.00     0.141 C
HETATM    9  C10 UNL     1      -2.748  -0.609  10.842  1.00  0.00     0.020 C
HETATM   10  C11 UNL     1      -3.175  -1.524  11.951  1.00  0.00     0.004 C
HETATM   11  C12 UNL     1      -4.644  -1.286  12.231  1.00  0.00     0.027 C
HETATM   12  C13 UNL     1      -4.822   0.056  12.954  1.00  0.00     0.127 C
ENDROOT
BRANCH  12  13
HETATM   13  C14 UNL     1      -4.515  -0.212  14.410  1.00  0.00     0.258 C
BRANCH  13  14
HETATM   14  N5  UNL     1      -5.565   0.377  15.218  1.00  0.00    -0.065 N
ATOM     15  H52 UNL     1      -5.452   1.388  15.284  1.00  0.00     0.277 HD
ATOM     16  H51 UNL     1      -6.463   0.341  14.735  1.00  0.00     0.277 HD
BRANCH  14  17
HETATM   17  C15 UNL     1      -5.660  -0.216  16.522  1.00  0.00     0.349 C
BRANCH  17  18
HETATM   18  C16 UNL     1      -6.925   0.300  17.175  1.00  0.00     0.411 C
HETATM   19  F1  UNL     1      -7.935  -0.598  16.891  1.00  0.00    -0.169 F
HETATM   20  F2  UNL     1      -6.731   0.247  18.561  1.00  0.00    -0.169 F
HETATM   21  F3  UNL     1      -7.224   1.576  16.774  1.00  0.00    -0.169 F
ENDBRANCH  17  18
ENDBRANCH  14  17
ENDBRANCH  13  14
ENDBRANCH  12  13
BRANCH   5  22
HETATM   22  C3  UNL     1      -4.549   4.371  13.490  1.00  0.00     0.007 C
HETATM   23  C4  UNL     1      -5.559   5.281  12.815  1.00  0.00     0.083 C
HETATM   24  C5  UNL     1      -5.791   6.441  13.755  1.00  0.00     0.277 C
HETATM   25  N3  UNL     1      -6.304   6.046  15.030  1.00  0.00     0.084 N
HETATM   26  C6  UNL     1      -7.681   6.472  15.228  1.00  0.00     0.309 C
HETATM   27  C7  UNL     1      -6.261   4.625  15.287  1.00  0.00     0.277 C
HETATM   28  C8  UNL     1      -4.943   4.000  14.862  1.00  0.00     0.083 C
ENDBRANCH   5  22
TORSDOF 5
ENDMDL