MODEL 3
REMARK VINA RESULT: -6.817742317      2.129      2.852
REMARK  4 active torsions:
REMARK  status: ('A' for Active; 'I' for Inactive)
REMARK    1  A    between atoms: C2_2  and  O1_3
REMARK    2  A    between atoms: O1_3  and  C3_4
REMARK    3  A    between atoms: C7_8  and  N1_9
REMARK       I    between atoms: N1_9  and  C8_11
REMARK       I    between atoms: C8_11  and  N2_13
REMARK    4  A    between atoms: N2_13  and  C9_15
REMARK       I    between atoms: N3_18  and  C12_19
ROOT
HETATM    1  N1  UNL     1      -3.864   0.833  13.767  1.00  0.00    -0.336 N
ATOM      2  H1  UNL     1      -3.442   0.511  14.639  1.00  0.00     0.164 HD
HETATM    3  C8  UNL     1      -3.939   2.226  13.519  1.00  0.00     0.316 C
HETATM    4  O2  UNL     1      -4.470   2.567  12.423  1.00  0.00    -0.247 OA
HETATM    5  N2  UNL     1      -3.440   3.157  14.457  1.00  0.00    -0.338 N
ATOM      6  H2  UNL     1      -3.029   2.781  15.311  1.00  0.00     0.164 HD
ENDROOT
BRANCH   5   7
HETATM    7  C9  UNL     1      -3.461   4.578  14.313  1.00  0.00     0.095 C
HETATM    8  C10 UNL     1      -2.191   5.285  14.556  1.00  0.00     0.045 C
HETATM    9  C11 UNL     1      -2.398   6.434  15.534  1.00  0.00     0.134 C
HETATM   10  N3  UNL     1      -3.481   7.238  14.996  1.00  0.00    -0.290 N
HETATM   11  C12 UNL     1      -3.292   8.547  14.512  1.00  0.00     0.220 C
HETATM   12  C14 UNL     1      -4.789   6.591  14.991  1.00  0.00     0.328 C
HETATM   13  C13 UNL     1      -1.970   9.223  14.509  1.00  0.00     0.117 C
HETATM   14  O3  UNL     1      -4.278   9.183  14.061  1.00  0.00    -0.274 OA
HETATM   15  F1  UNL     1      -5.507   7.039  16.088  1.00  0.00    -0.182 F
HETATM   16  F2  UNL     1      -5.455   6.884  13.841  1.00  0.00    -0.182 F
HETATM   17  C15 UNL     1      -4.624   5.094  15.167  1.00  0.00     0.129 C
ENDBRANCH   5   7
BRANCH   1  18
HETATM   18  C7  UNL     1      -4.357  -0.133  12.842  1.00  0.00     0.115 C
HETATM   19  C3  UNL     1      -3.502  -0.334  11.612  1.00  0.00     0.144 C
HETATM   20  C4  UNL     1      -4.199  -1.578  11.020  1.00  0.00     0.034 C
HETATM   21  C5  UNL     1      -4.284  -2.469  12.234  1.00  0.00     0.005 C
HETATM   22  C6  UNL     1      -4.318  -1.549  13.433  1.00  0.00     0.028 C
BRANCH  19  23
HETATM   23  O1  UNL     1      -2.227  -0.644  11.988  1.00  0.00    -0.384 OA
BRANCH  23  24
HETATM   24  C2  UNL     1      -1.224   0.088  11.412  1.00  0.00     0.163 C
HETATM   25  C1  UNL     1      -1.687   1.213  10.522  1.00  0.00     0.033 C
ENDBRANCH  23  24
ENDBRANCH  19  23
ENDBRANCH   1  18
TORSDOF 4
ENDMDL