MODEL 1
REMARK VINA RESULT: -6.211888475      0.000      0.000
REMARK  6 active torsions:
REMARK  status: ('A' for Active; 'I' for Inactive)
REMARK    1  A    between atoms: C2_2  and  N1_3
REMARK    2  A    between atoms: C2_2  and  C3_7
REMARK    3  A    between atoms: C3_7  and  C4_8
REMARK       I    between atoms: C4_8  and  N2_10
REMARK    4  A    between atoms: C8_14  and  C9_15
REMARK       I    between atoms: C9_15  and  N3_17
REMARK    5  A    between atoms: N3_17  and  C10_19
REMARK    6  A    between atoms: C10_19  and  C12_21
ROOT
HETATM    1  C4  UNL     1      -5.862   1.777  14.271  1.00  0.00     0.222 C
HETATM    2  O1  UNL     1      -6.280   0.927  13.441  1.00  0.00    -0.273 OA
HETATM    3  N2  UNL     1      -4.761   2.612  13.983  1.00  0.00    -0.339 N
HETATM    4  C5  UNL     1      -4.254   3.621  14.929  1.00  0.00     0.127 C
HETATM    5  C6  UNL     1      -3.764   4.706  13.987  1.00  0.00     0.022 C
HETATM    6  C7  UNL     1      -3.063   3.886  12.937  1.00  0.00     0.037 C
HETATM    7  C8  UNL     1      -3.946   2.678  12.798  1.00  0.00     0.179 C
ENDROOT
BRANCH   7   8
HETATM    8  C9  UNL     1      -3.128   1.458  12.583  1.00  0.00     0.241 C
HETATM    9  O2  UNL     1      -1.957   1.484  13.056  1.00  0.00    -0.271 OA
HETATM   10  N3  UNL     1      -3.538   0.301  11.913  1.00  0.00    -0.351 N
ATOM     11  H3  UNL     1      -4.485   0.282  11.534  1.00  0.00     0.163 HD
BRANCH  10  12
HETATM   12  C10 UNL     1      -2.715  -0.869  11.721  1.00  0.00     0.134 C
HETATM   13  C11 UNL     1      -1.917  -0.845  10.467  1.00  0.00     0.036 C
BRANCH  12  14
HETATM   14  C12 UNL     1      -3.595  -2.109  11.829  1.00  0.00     0.208 C
HETATM   15 CL1  UNL     1      -2.673  -3.593  11.528  1.00  0.00    -0.082 Cl
HETATM   16 CL2  UNL     1      -4.328  -2.213  13.447  1.00  0.00    -0.082 Cl
HETATM   17 CL3  UNL     1      -4.925  -2.039  10.651  1.00  0.00    -0.082 Cl
ENDBRANCH  12  14
ENDBRANCH  10  12
ENDBRANCH   7   8
BRANCH   1  18
HETATM   18  C3  UNL     1      -6.603   1.839  15.558  1.00  0.00     0.135 C
BRANCH  18  19
HETATM   19  C2  UNL     1      -6.248   0.743  16.501  1.00  0.00     0.188 C
HETATM   20  C1  UNL     1      -7.464  -0.056  16.904  1.00  0.00     0.040 C
BRANCH  19  21
HETATM   21  N1  UNL     1      -5.194  -0.121  16.003  1.00  0.00    -0.075 N
ATOM     22  H13 UNL     1      -4.583   0.370  15.352  1.00  0.00     0.274 HD
ATOM     23  H12 UNL     1      -4.510  -0.334  16.729  1.00  0.00     0.274 HD
ATOM     24  H11 UNL     1      -5.580  -0.970  15.589  1.00  0.00     0.274 HD
ENDBRANCH  19  21
ENDBRANCH  18  19
ENDBRANCH   1  18
TORSDOF 6
ENDMDL