MODEL 2
REMARK VINA RESULT: -7.276215303      0.060      1.546
REMARK  4 active torsions:
REMARK  status: ('A' for Active; 'I' for Inactive)
REMARK       I    between atoms: C1_2  and  N1_3
REMARK    1  A    between atoms: C1_2  and  C8_16
REMARK    2  A    between atoms: N1_3  and  C2_5
REMARK    3  A    between atoms: C2_5  and  C3_6
REMARK    4  A    between atoms: C3_6  and  N2_7
ROOT
HETATM    1  O1  UNL     1      -5.920   2.377  13.507  1.00  0.00    -0.273 OA
HETATM    2  C1  UNL     1      -5.036   3.267  13.670  1.00  0.00     0.226 C
HETATM    3  N1  UNL     1      -3.657   2.971  13.619  1.00  0.00    -0.356 N
ATOM      4  H1  UNL     1      -2.978   3.718  13.760  1.00  0.00     0.162 HD
ENDROOT
BRANCH   3   5
HETATM    5  C2  UNL     1      -3.196   1.634  13.371  1.00  0.00     0.167 C
BRANCH   5   6
HETATM    6  C3  UNL     1      -2.465   1.451  12.064  1.00  0.00     0.088 C
BRANCH   6   7
HETATM    7  N2  UNL     1      -3.062   0.401  11.346  1.00  0.00    -0.307 N
HETATM    8  C4  UNL     1      -4.351   0.604  10.827  1.00  0.00     0.088 C
HETATM    9  C5  UNL     1      -5.250  -0.530  11.250  1.00  0.00     0.159 C
HETATM   10  N3  UNL     1      -4.713  -1.382  12.256  1.00  0.00    -0.410 N
HETATM   11  C6  UNL     1      -3.379  -1.836  12.076  1.00  0.00     0.219 C
ATOM     12  H3  UNL     1      -5.263  -1.653  13.072  1.00  0.00     0.153 HD
HETATM   13  C7  UNL     1      -2.489  -0.868  11.295  1.00  0.00     0.342 C
HETATM   14  F1  UNL     1      -1.206  -0.847  11.758  1.00  0.00    -0.180 F
HETATM   15  F2  UNL     1      -2.431  -1.373   9.987  1.00  0.00    -0.180 F
ENDBRANCH   6   7
ENDBRANCH   5   6
ENDBRANCH   3   5
BRANCH   2  16
HETATM   16  C8  UNL     1      -5.519   4.654  13.920  1.00  0.00     0.042 C
HETATM   17  C9  UNL     1      -4.662   5.614  13.120  1.00  0.00     0.024 C
HETATM   18  C10 UNL     1      -5.171   7.002  13.309  1.00  0.00    -0.013 C
HETATM   19  C11 UNL     1      -5.051   7.381  14.776  1.00  0.00     0.009 C
HETATM   20  C15 UNL     1      -6.607   7.098  12.913  1.00  0.00     0.009 C
HETATM   21  C12 UNL     1      -5.855   6.403  15.594  1.00  0.00    -0.013 C
HETATM   22  C13 UNL     1      -7.317   6.486  15.224  1.00  0.00     0.009 C
HETATM   23  C17 UNL     1      -5.318   5.023  15.386  1.00  0.00     0.024 C
HETATM   24  C14 UNL     1      -7.448   6.165  13.763  1.00  0.00    -0.013 C
HETATM   25  C16 UNL     1      -6.949   4.752  13.515  1.00  0.00     0.024 C
ENDBRANCH   2  16
TORSDOF 4
ENDMDL