MODEL 2
REMARK VINA RESULT: -6.519238855      0.866      1.059
REMARK  6 active torsions:
REMARK  status: ('A' for Active; 'I' for Inactive)
REMARK    1  A    between atoms: C3_3  and  C4_4
REMARK    2  A    between atoms: C3_3  and  N1_9
REMARK    3  A    between atoms: C4_4  and  C5_5
REMARK       I    between atoms: N1_9  and  C6_11
REMARK       I    between atoms: C6_11  and  N2_13
REMARK    4  A    between atoms: C11_19  and  C12_20
REMARK    5  A    between atoms: C12_20  and  N3_21
REMARK    6  A    between atoms: N3_21  and  C13_24
ROOT
HETATM    1  C1  UNL     1      -2.358   6.487  15.441  1.00  0.00     0.014 C
HETATM    2  C2  UNL     1      -3.262   5.713  15.254  1.00  0.00    -0.092 C
HETATM    3  C3  UNL     1      -4.379   4.770  15.000  1.00  0.00     0.173 C
ENDROOT
BRANCH   3   4
HETATM    4  C4  UNL     1      -5.476   5.456  14.236  1.00  0.00     0.155 C
BRANCH   4   5
HETATM    5  C5  UNL     1      -6.544   5.924  15.180  1.00  0.00     0.390 C
HETATM    6  F1  UNL     1      -7.659   6.289  14.459  1.00  0.00    -0.171 F
HETATM    7  F2  UNL     1      -6.848   4.873  16.038  1.00  0.00    -0.171 F
HETATM    8  F3  UNL     1      -6.132   7.029  15.911  1.00  0.00    -0.171 F
ENDBRANCH   4   5
ENDBRANCH   3   4
BRANCH   3   9
HETATM    9  N1  UNL     1      -3.868   3.606  14.273  1.00  0.00    -0.328 N
HETATM   10  C6  UNL     1      -4.552   2.377  14.345  1.00  0.00     0.319 C
HETATM   11  O1  UNL     1      -5.596   2.284  15.031  1.00  0.00    -0.247 OA
HETATM   12  N2  UNL     1      -4.022   1.255  13.620  1.00  0.00    -0.333 N
HETATM   13  C7  UNL     1      -4.581  -0.087  13.591  1.00  0.00     0.135 C
HETATM   14  C16 UNL     1      -2.845   1.231  12.787  1.00  0.00     0.141 C
HETATM   15  C8  UNL     1      -3.950  -0.785  12.430  1.00  0.00     0.041 C
HETATM   16  C9  UNL     1      -5.005  -1.158  11.408  1.00  0.00     0.174 C
HETATM   17  C11 UNL     1      -3.226   0.316  11.672  1.00  0.00     0.028 C
HETATM   18  O2  UNL     1      -5.422   0.084  10.956  1.00  0.00    -0.390 OA
HETATM   19  C10 UNL     1      -4.295   0.895  10.817  1.00  0.00     0.181 C
ATOM     20  H1  UNL     1      -3.017   3.685  13.715  1.00  0.00     0.165 HD
BRANCH  17  21
HETATM   21  C12 UNL     1      -2.083  -0.275  10.919  1.00  0.00     0.246 C
BRANCH  21  22
HETATM   22  N3  UNL     1      -1.678   0.514   9.781  1.00  0.00    -0.070 N
ATOM     23  H32 UNL     1      -1.566  -0.062   8.947  1.00  0.00     0.277 HD
ATOM     24  H31 UNL     1      -2.435   1.116   9.455  1.00  0.00     0.277 HD
BRANCH  22  25
HETATM   25  C13 UNL     1      -0.485   1.272  10.065  1.00  0.00     0.186 A
HETATM   26  C14 UNL     1       0.022   2.156   8.917  1.00  0.00     0.035 A
HETATM   27  C15 UNL     1      -0.529   2.757  10.136  1.00  0.00     0.035 A
ENDBRANCH  22  25
ENDBRANCH  21  22
ENDBRANCH  17  21
ENDBRANCH   3   9
TORSDOF 6
ENDMDL