MODEL 2
REMARK VINA RESULT: -7.486941331      2.173      5.277
REMARK  4 active torsions:
REMARK  status: ('A' for Active; 'I' for Inactive)
REMARK    1  A    between atoms: C2_2  and  N1_3
REMARK    2  A    between atoms: C2_2  and  C10_15
REMARK    3  A    between atoms: N1_3  and  C3_5
REMARK    4  A    between atoms: N3_17  and  C12_18
ROOT
HETATM    1  C1  UNL     1      -4.600   3.558   9.994  1.00  0.00     0.032 C
HETATM    2  C2  UNL     1      -4.295   2.575  11.043  1.00  0.00     0.079 C
ENDROOT
BRANCH   2   3
HETATM    3  N1  UNL     1      -3.200   1.733  11.006  1.00  0.00    -0.405 N
ATOM      4  H1  UNL     1      -2.276   2.159  10.936  1.00  0.00     0.154 HD
BRANCH   3   5
HETATM    5  C3  UNL     1      -3.270   0.343  11.058  1.00  0.00     0.173 C
HETATM    6  C4  UNL     1      -2.120  -0.411  11.586  1.00  0.00     0.240 C
HETATM    7  O1  UNL     1      -1.177   0.145  12.188  1.00  0.00    -0.271 OA
HETATM    8  N2  UNL     1      -1.972  -1.844  11.474  1.00  0.00    -0.359 N
HETATM    9  C5  UNL     1      -2.998  -2.862  11.197  1.00  0.00     0.127 C
ATOM     10  H2  UNL     1      -1.025  -2.199  11.604  1.00  0.00     0.162 HD
HETATM   11  C6  UNL     1      -4.283  -2.377  11.826  1.00  0.00     0.004 C
HETATM   12  C7  UNL     1      -4.143  -1.249  12.786  1.00  0.00     0.013 C
HETATM   13  C9  UNL     1      -5.054  -1.427  10.923  1.00  0.00     0.013 C
HETATM   14  C8  UNL     1      -4.520  -0.239  11.730  1.00  0.00     0.018 C
ENDBRANCH   3   5
ENDBRANCH   2   3
BRANCH   2  15
HETATM   15  C10 UNL     1      -4.375   3.225  12.461  1.00  0.00     0.042 C
HETATM   16  C11 UNL     1      -5.393   2.560  13.279  1.00  0.00     0.280 C
HETATM   17  N3  UNL     1      -5.135   2.351  14.680  1.00  0.00     0.099 N
HETATM   18  C16 UNL     1      -3.776   1.954  14.842  1.00  0.00     0.351 C
HETATM   19  C17 UNL     1      -2.868   3.075  14.457  1.00  0.00     0.270 C
HETATM   20  F1  UNL     1      -1.570   2.680  14.718  1.00  0.00    -0.204 F
HETATM   21  F2  UNL     1      -3.117   4.138  15.304  1.00  0.00    -0.204 F
HETATM   22  C18 UNL     1      -3.031   3.477  13.015  1.00  0.00     0.089 C
BRANCH  17  23
HETATM   23  C12 UNL     1      -6.044   1.297  15.149  1.00  0.00     0.223 C
HETATM   24  C13 UNL     1      -6.833   1.703  16.369  1.00  0.00     0.036 C
HETATM   25  C14 UNL     1      -6.701   0.246  16.826  1.00  0.00     0.004 C
HETATM   26  C15 UNL     1      -5.447   0.189  15.933  1.00  0.00     0.036 C
ENDBRANCH  17  23
ENDBRANCH   2  15
TORSDOF 4
ENDMDL