MODEL 4
REMARK VINA RESULT: -7.092596369      1.964      5.475
REMARK  6 active torsions:
REMARK  status: ('A' for Active; 'I' for Inactive)
REMARK    1  A    between atoms: C1_2  and  C2_3
REMARK       I    between atoms: C1_2  and  N3_19
REMARK    2  A    between atoms: C2_3  and  C3_4
REMARK    3  A    between atoms: C2_3  and  N1_10
REMARK    4  A    between atoms: C3_4  and  C4_5
REMARK    5  A    between atoms: C4_5  and  C5_6
REMARK    6  A    between atoms: C14_22  and  O2_23
ROOT
HETATM    1  C2  UNL     1      -4.600   1.281  14.676  1.00  0.00     0.317 C
ENDROOT
BRANCH   1   2
HETATM    2  C1  UNL     1      -5.260   0.825  13.478  1.00  0.00     0.253 C
HETATM    3  O1  UNL     1      -6.531   0.965  13.384  1.00  0.00    -0.271 OA
HETATM    4  N3  UNL     1      -4.624   0.229  12.384  1.00  0.00    -0.350 N
HETATM    5  C12 UNL     1      -3.205   0.031  12.362  1.00  0.00     0.128 C
HETATM    6  C16 UNL     1      -5.357  -0.222  11.197  1.00  0.00     0.128 C
HETATM    7  C13 UNL     1      -2.777  -1.347  11.893  1.00  0.00     0.051 C
HETATM    8  C14 UNL     1      -3.471  -1.629  10.592  1.00  0.00     0.121 C
HETATM    9  C15 UNL     1      -4.957  -1.637  10.879  1.00  0.00     0.051 C
BRANCH   8  10
HETATM   10  O2  UNL     1      -2.997  -2.802  10.057  1.00  0.00    -0.395 OA
ATOM     11  H2  UNL     1      -2.110  -2.677   9.744  1.00  0.00     0.210 HD
ENDBRANCH   8  10
ENDBRANCH   1   2
BRANCH   1  12
HETATM   12  C3  UNL     1      -5.559   0.945  15.842  1.00  0.00     0.055 C
BRANCH  12  13
HETATM   13  C4  UNL     1      -5.111  -0.254  16.611  1.00  0.00     0.120 C
BRANCH  13  14
HETATM   14  C5  UNL     1      -6.209  -0.631  17.596  1.00  0.00     0.388 C
HETATM   15  F1  UNL     1      -7.452  -0.586  17.001  1.00  0.00    -0.171 F
HETATM   16  F2  UNL     1      -6.171   0.150  18.726  1.00  0.00    -0.171 F
HETATM   17  F3  UNL     1      -6.013  -1.958  17.976  1.00  0.00    -0.171 F
ENDBRANCH  13  14
ENDBRANCH  12  13
ENDBRANCH   1  12
BRANCH   1  18
HETATM   18  N1  UNL     1      -4.339   2.662  14.790  1.00  0.00     0.125 N
HETATM   19  C6  UNL     1      -3.483   3.247  13.796  1.00  0.00     0.281 C
HETATM   20  C7  UNL     1      -3.593   4.737  14.150  1.00  0.00     0.022 C
HETATM   21  C8  UNL     1      -4.356   5.376  13.006  1.00  0.00     0.050 C
HETATM   22  C11 UNL     1      -4.584   4.812  15.321  1.00  0.00     0.064 C
HETATM   23  C9  UNL     1      -5.724   4.845  12.884  1.00  0.00     0.058 C
HETATM   24  N2  UNL     1      -6.177   3.908  13.806  1.00  0.00    -0.373 N
HETATM   25  C10 UNL     1      -5.428   3.571  14.952  1.00  0.00     0.322 C
ATOM     26  H2  UNL     1      -7.076   3.452  13.650  1.00  0.00     0.160 HD
ENDBRANCH   1  18
TORSDOF 6
ENDMDL