MODEL 2
REMARK VINA RESULT: -10.913766451      2.488      6.543
REMARK  6 active torsions:
REMARK  status: ('A' for Active; 'I' for Inactive)
REMARK    1  A    between atoms: C1_4  and  C2_6
REMARK    2  A    between atoms: C6_12  and  C7_13
REMARK    3  A    between atoms: C12_18  and  O1_19
REMARK    4  A    between atoms: O1_19  and  C13_20
REMARK    5  A    between atoms: C13_20  and  C14_21
REMARK    6  A    between atoms: C17_24  and  C18_25
ROOT
HETATM    1  C7  UNL     1      11.816  24.331  35.072  1.00  0.00     0.041 A
HETATM    2  C8  UNL     1      11.397  24.341  36.417  1.00  0.00     0.018 A
HETATM    3  C9  UNL     1      10.719  25.404  36.959  1.00  0.00     0.001 A
HETATM    4  C10 UNL     1      10.436  26.492  36.174  1.00  0.00     0.003 A
HETATM    5  C11 UNL     1      10.848  26.481  34.859  1.00  0.00     0.038 A
HETATM    6  C12 UNL     1      11.541  25.404  34.289  1.00  0.00     0.083 A
ENDROOT
BRANCH   1   7
HETATM    7  C6  UNL     1      12.530  23.164  34.587  1.00  0.00     0.119 A
HETATM    8  N3  UNL     1      13.417  23.054  33.604  1.00  0.00    -0.340 N
HETATM    9  C5  UNL     1      13.857  21.759  33.469  1.00  0.00     0.060 A
ATOM     10  H3  UNL     1      13.731  23.831  33.024  1.00  0.00     0.167 HD
HETATM   11  C4  UNL     1      14.752  21.136  32.625  1.00  0.00     0.033 A
HETATM   12  C26 UNL     1      13.195  21.037  34.432  1.00  0.00     0.061 A
HETATM   13  C3  UNL     1      15.021  19.788  32.702  1.00  0.00     0.017 A
HETATM   14  C2  UNL     1      14.353  19.056  33.675  1.00  0.00     0.007 A
HETATM   15  C27 UNL     1      13.461  19.687  34.513  1.00  0.00     0.046 A
HETATM   16  N4  UNL     1      12.406  21.895  35.089  1.00  0.00    -0.340 N
ATOM     17  H4  UNL     1      11.793  21.638  35.863  1.00  0.00     0.167 HD
BRANCH  14  18
HETATM   18  C1  UNL     1      14.631  17.622  33.768  1.00  0.00     0.120 C
HETATM   19  N1  UNL     1      15.656  17.068  33.237  1.00  0.00    -0.387 N
ATOM     20  H12 UNL     1      15.849  16.069  33.302  1.00  0.00     0.157 HD
ATOM     21  H11 UNL     1      16.293  17.683  32.732  1.00  0.00     0.157 HD
HETATM   22  N2  UNL     1      13.740  16.762  34.473  1.00  0.00    -0.082 NA
ENDBRANCH  14  18
ENDBRANCH   1   7
BRANCH   6  23
HETATM   23  O1  UNL     1      11.922  25.452  32.986  1.00  0.00    -0.346 OA
BRANCH  23  24
HETATM   24  C13 UNL     1      11.238  25.184  31.822  1.00  0.00     0.214 C
BRANCH  24  25
HETATM   25  C14 UNL     1       9.783  25.080  32.110  1.00  0.00    -0.034 A
HETATM   26  C15 UNL     1       9.222  23.911  32.609  1.00  0.00     0.010 A
HETATM   27  C16 UNL     1       7.885  23.776  32.889  1.00  0.00     0.013 A
HETATM   28  C17 UNL     1       7.030  24.842  32.673  1.00  0.00    -0.026 A
HETATM   29  C24 UNL     1       7.569  26.012  32.177  1.00  0.00     0.013 A
HETATM   30  C25 UNL     1       8.908  26.133  31.901  1.00  0.00     0.010 A
BRANCH  28  31
HETATM   31  C18 UNL     1       5.624  24.685  32.974  1.00  0.00    -0.026 A
HETATM   32  C19 UNL     1       4.815  25.788  33.095  1.00  0.00     0.012 A
HETATM   33  C20 UNL     1       3.462  25.653  33.383  1.00  0.00     0.001 A
HETATM   34  C21 UNL     1       2.943  24.399  33.544  1.00  0.00     0.000 A
HETATM   35  C22 UNL     1       3.751  23.285  33.423  1.00  0.00     0.001 A
HETATM   36  C23 UNL     1       5.091  23.437  33.137  1.00  0.00     0.012 A
ENDBRANCH  28  31
ENDBRANCH  24  25
ENDBRANCH  23  24
ENDBRANCH   6  23
TORSDOF 6
ENDMDL