MODEL 5
REMARK VINA RESULT: -11.166369324      2.451      9.375
REMARK  6 active torsions:
REMARK  status: ('A' for Active; 'I' for Inactive)
REMARK       I    between atoms: C1_2  and  N1_3
REMARK    1  A    between atoms: C1_2  and  C9_12
REMARK    2  A    between atoms: N1_3  and  C2_5
REMARK    3  A    between atoms: C2_5  and  C3_6
REMARK    4  A    between atoms: C13_16  and  N2_17
REMARK    5  A    between atoms: N2_17  and  C14_19
REMARK    6  A    between atoms: C19_24  and  C20_25
ROOT
HETATM    1  N2  UNL     1      11.000  22.971  34.360  1.00  0.00    -0.355 N
ATOM      2  H2  UNL     1      10.156  22.399  34.361  1.00  0.00     0.166 HD
ENDROOT
BRANCH   1   3
HETATM    3  C13 UNL     1      12.036  22.584  33.486  1.00  0.00     0.033 A
HETATM    4  C12 UNL     1      12.224  23.232  32.296  1.00  0.00     0.029 A
HETATM    5  C11 UNL     1      13.254  22.881  31.416  1.00  0.00     0.003 A
HETATM    6  C10 UNL     1      14.102  21.828  31.798  1.00  0.00     0.017 A
HETATM    7  C9  UNL     1      13.931  21.169  32.982  1.00  0.00     0.034 A
HETATM    8  C27 UNL     1      12.911  21.535  33.826  1.00  0.00     0.046 A
BRANCH   7   9
HETATM    9  C1  UNL     1      14.809  20.085  33.372  1.00  0.00     0.252 C
HETATM   10  O1  UNL     1      16.020  20.048  32.931  1.00  0.00    -0.268 OA
HETATM   11  N1  UNL     1      14.468  19.010  34.224  1.00  0.00    -0.353 N
ATOM     12  H1  UNL     1      13.522  18.980  34.606  1.00  0.00     0.163 HD
BRANCH  11  13
HETATM   13  C2  UNL     1      15.380  17.953  34.584  1.00  0.00     0.161 C
BRANCH  13  14
HETATM   14  C3  UNL     1      14.782  16.605  34.477  1.00  0.00    -0.041 A
HETATM   15  C4  UNL     1      13.421  16.421  34.493  1.00  0.00     0.009 A
HETATM   16  C5  UNL     1      12.933  15.131  34.390  1.00  0.00     0.001 A
HETATM   17  C6  UNL     1      13.763  14.028  34.269  1.00  0.00     0.000 A
HETATM   18  C7  UNL     1      15.131  14.218  34.252  1.00  0.00     0.001 A
HETATM   19  C8  UNL     1      15.604  15.509  34.356  1.00  0.00     0.009 A
ENDBRANCH  13  14
ENDBRANCH  11  13
ENDBRANCH   7   9
ENDBRANCH   1   3
BRANCH   1  20
HETATM   20  C14 UNL     1      11.024  24.075  35.230  1.00  0.00     0.046 A
HETATM   21  C15 UNL     1      12.192  24.412  35.941  1.00  0.00     0.030 A
HETATM   22  C16 UNL     1      12.210  25.390  36.919  1.00  0.00     0.002 A
HETATM   23  C17 UNL     1      11.041  26.048  37.198  1.00  0.00     0.001 A
HETATM   24  C18 UNL     1       9.885  25.760  36.537  1.00  0.00     0.017 A
HETATM   25  C19 UNL     1       9.884  24.759  35.538  1.00  0.00     0.035 A
BRANCH  25  26
HETATM   26  C20 UNL     1       8.649  24.631  34.799  1.00  0.00     0.118 A
HETATM   27  N3  UNL     1       7.428  24.478  35.420  1.00  0.00    -0.340 N
HETATM   28  C21 UNL     1       6.448  24.335  34.529  1.00  0.00     0.060 A
ATOM     29  H3  UNL     1       7.293  24.475  36.431  1.00  0.00     0.167 HD
HETATM   30  C22 UNL     1       5.079  24.155  34.636  1.00  0.00     0.032 A
HETATM   31  C26 UNL     1       7.030  24.395  33.285  1.00  0.00     0.060 A
HETATM   32  C23 UNL     1       4.271  24.031  33.527  1.00  0.00     0.002 A
HETATM   33  C24 UNL     1       4.878  24.093  32.277  1.00  0.00     0.002 A
HETATM   34  C25 UNL     1       6.240  24.274  32.168  1.00  0.00     0.032 A
HETATM   35  N4  UNL     1       8.367  24.576  33.508  1.00  0.00    -0.340 N
ATOM     36  H4  UNL     1       9.064  24.658  32.768  1.00  0.00     0.167 HD
ENDBRANCH  25  26
ENDBRANCH   1  20
TORSDOF 6
ENDMDL