MODEL 5
REMARK VINA RESULT: -10.143200944      1.924      8.750
REMARK  6 active torsions:
REMARK  status: ('A' for Active; 'I' for Inactive)
REMARK    1  A    between atoms: C3_3  and  C4_4
REMARK    2  A    between atoms: C7_11  and  O1_12
REMARK    3  A    between atoms: O1_12  and  C8_13
REMARK    4  A    between atoms: C11_16  and  C12_17
REMARK    5  A    between atoms: C15_20  and  C16_21
REMARK    6  A    between atoms: C21_28  and  C22_29
ROOT
HETATM    1  C1  UNL     1      13.747  20.263  35.640  1.00  0.00     0.050 C
HETATM    2  C2  UNL     1      14.002  20.788  34.270  1.00  0.00    -0.035 A
HETATM    3  C3  UNL     1      14.676  20.005  33.370  1.00  0.00     0.011 A
HETATM    4  C5  UNL     1      14.851  20.570  32.101  1.00  0.00     0.018 A
HETATM    5  C6  UNL     1      14.389  21.819  31.753  1.00  0.00     0.039 A
HETATM    6  C7  UNL     1      13.714  22.597  32.664  1.00  0.00     0.087 A
HETATM    7  C21 UNL     1      13.530  22.065  33.918  1.00  0.00     0.015 A
ENDROOT
BRANCH   6   8
HETATM    8  O1  UNL     1      13.225  23.863  32.371  1.00  0.00    -0.310 OA
BRANCH   8   9
HETATM    9  C8  UNL     1      11.879  24.181  32.514  1.00  0.00     0.076 A
HETATM   10  C9  UNL     1      10.888  23.287  32.161  1.00  0.00     0.038 A
HETATM   11  C10 UNL     1       9.548  23.578  32.295  1.00  0.00     0.015 A
HETATM   12  C11 UNL     1       9.111  24.791  32.797  1.00  0.00    -0.026 A
HETATM   13  C19 UNL     1      10.097  25.687  33.151  1.00  0.00     0.015 A
HETATM   14  C20 UNL     1      11.450  25.392  33.015  1.00  0.00     0.038 A
BRANCH  12  15
HETATM   15  C12 UNL     1       7.691  25.093  32.940  1.00  0.00    -0.026 A
HETATM   16  C13 UNL     1       7.079  24.866  34.132  1.00  0.00     0.013 A
HETATM   17  C14 UNL     1       5.749  25.117  34.364  1.00  0.00     0.017 A
HETATM   18  C15 UNL     1       4.974  25.626  33.345  1.00  0.00     0.029 A
HETATM   19  C17 UNL     1       5.559  25.870  32.120  1.00  0.00     0.017 A
HETATM   20  C18 UNL     1       6.893  25.604  31.937  1.00  0.00     0.013 A
BRANCH  18  21
HETATM   21  C16 UNL     1       3.549  25.890  33.536  1.00  0.00     0.264 C
HETATM   22  N3  UNL     1       3.151  27.020  34.287  1.00  0.00    -0.057 NA
HETATM   23  O2  UNL     1       2.722  25.105  33.029  1.00  0.00    -0.271 OA
ENDBRANCH  18  21
ENDBRANCH  12  15
ENDBRANCH   8   9
ENDBRANCH   6   8
BRANCH   7  24
HETATM   24  C22 UNL     1      12.829  22.857  34.902  1.00  0.00    -0.023 A
HETATM   25  C23 UNL     1      11.499  22.597  35.123  1.00  0.00     0.012 A
HETATM   26  C24 UNL     1      10.789  23.331  36.044  1.00  0.00     0.001 A
HETATM   27  C25 UNL     1      11.400  24.355  36.777  1.00  0.00     0.000 A
HETATM   28  C26 UNL     1      12.734  24.577  36.522  1.00  0.00     0.001 A
HETATM   29  C27 UNL     1      13.458  23.852  35.603  1.00  0.00     0.012 A
ENDBRANCH   7  24
BRANCH   3  30
HETATM   30  C4  UNL     1      15.217  18.671  33.639  1.00  0.00     0.120 C
HETATM   31  N1  UNL     1      16.266  18.333  34.141  1.00  0.00    -0.387 N
ATOM     32  H12 UNL     1      16.875  19.104  34.416  1.00  0.00     0.157 HD
ATOM     33  H11 UNL     1      16.643  17.404  34.329  1.00  0.00     0.157 HD
HETATM   34  N2  UNL     1      14.345  17.566  33.245  1.00  0.00    -0.082 NA
ENDBRANCH   3  30
TORSDOF 6
ENDMDL