MODEL 4
REMARK VINA RESULT: -1.360529910      1.278      1.829
REMARK  5 active torsions:
REMARK  status: ('A' for Active; 'I' for Inactive)
REMARK    1  A    between atoms: C1_4  and  C2_6
REMARK    2  A    between atoms: C5_9  and  N3_10
REMARK    3  A    between atoms: C6_11  and  C7_12
REMARK    4  A    between atoms: C7_12  and  C8_13
REMARK    5  A    between atoms: C12_21  and  C13_22
ROOT
HETATM    1  N3  UNL     1      12.627  22.202  33.235  1.00  0.00    -0.314 N
HETATM    2  C6  UNL     1      13.508  22.678  32.343  1.00  0.00     0.024 A
HETATM    3  C11 UNL     1      14.472  21.690  32.149  1.00  0.00     0.040 A
HETATM    4  C12 UNL     1      14.158  20.609  32.938  1.00  0.00     0.004 A
HETATM    5  C19 UNL     1      13.007  20.957  33.601  1.00  0.00     0.061 A
HETATM    6  C20 UNL     1      12.299  20.128  34.549  1.00  0.00    -0.008 A
HETATM    7  C21 UNL     1      12.903  19.752  35.732  1.00  0.00     0.014 A
HETATM    8  C22 UNL     1      12.228  18.961  36.636  1.00  0.00     0.001 A
HETATM    9  C23 UNL     1      10.929  18.517  36.393  1.00  0.00     0.000 A
HETATM   10  C24 UNL     1      10.343  18.904  35.206  1.00  0.00     0.001 A
HETATM   11  C25 UNL     1      11.013  19.699  34.292  1.00  0.00     0.014 A
ENDROOT
BRANCH   1  12
HETATM   12  C5  UNL     1      11.468  22.919  33.707  1.00  0.00     0.040 A
HETATM   13  C4  UNL     1      10.459  23.248  32.830  1.00  0.00     0.031 A
HETATM   14  C3  UNL     1       9.341  23.933  33.239  1.00  0.00     0.017 A
HETATM   15  C2  UNL     1       9.178  24.331  34.574  1.00  0.00     0.005 A
HETATM   16  C27 UNL     1      10.187  24.002  35.454  1.00  0.00     0.017 A
HETATM   17  C26 UNL     1      11.309  23.307  35.015  1.00  0.00     0.031 A
BRANCH  15  18
HETATM   18  C1  UNL     1       7.986  25.055  34.985  1.00  0.00     0.120 C
HETATM   19  N1  UNL     1       7.009  24.508  35.548  1.00  0.00    -0.387 N
ATOM     20  H12 UNL     1       6.173  25.016  35.836  1.00  0.00     0.157 HD
ATOM     21  H11 UNL     1       7.051  23.504  35.726  1.00  0.00     0.157 HD
HETATM   22  N2  UNL     1       7.927  26.459  34.735  1.00  0.00    -0.082 NA
ENDBRANCH  15  18
ENDBRANCH   1  12
BRANCH   2  23
HETATM   23  C7  UNL     1      13.482  24.021  31.671  1.00  0.00     0.116 C
BRANCH  23  24
HETATM   24  C8  UNL     1      13.113  25.015  32.712  1.00  0.00     0.031 A
HETATM   25  C9  UNL     1      13.622  25.216  33.966  1.00  0.00     0.114 A
HETATM   26  N4  UNL     1      12.951  26.242  34.518  1.00  0.00    -0.360 N
HETATM   27  C10 UNL     1      12.039  26.696  33.661  1.00  0.00     0.180 A
ATOM     28  H4  UNL     1      13.116  26.616  35.452  1.00  0.00     0.166 HD
HETATM   29  N5  UNL     1      12.131  25.949  32.548  1.00  0.00    -0.354 N
ATOM     30  H5  UNL     1      11.557  26.061  31.712  1.00  0.00     0.166 HD
ENDBRANCH  23  24
ENDBRANCH   2  23
BRANCH   4  31
HETATM   31  C13 UNL     1      14.928  19.372  33.014  1.00  0.00    -0.024 A
HETATM   32  C14 UNL     1      15.114  18.519  31.961  1.00  0.00     0.012 A
HETATM   33  C15 UNL     1      15.859  17.376  32.135  1.00  0.00     0.001 A
HETATM   34  C16 UNL     1      16.445  17.030  33.336  1.00  0.00     0.000 A
HETATM   35  C17 UNL     1      16.252  17.895  34.393  1.00  0.00     0.001 A
HETATM   36  C18 UNL     1      15.504  19.044  34.222  1.00  0.00     0.012 A
ENDBRANCH   4  31
TORSDOF 5
ENDMDL