MODEL 5
REMARK VINA RESULT: -11.213953946      2.119      3.389
REMARK  6 active torsions:
REMARK  status: ('A' for Active; 'I' for Inactive)
REMARK    1  A    between atoms: C1_2  and  C2_3
REMARK       I    between atoms: C1_2  and  N3_22
REMARK    2  A    between atoms: C2_3  and  S1_4
REMARK    3  A    between atoms: S1_4  and  C3_5
REMARK    4  A    between atoms: C7_9  and  C8_10
REMARK    5  A    between atoms: N3_22  and  C16_24
REMARK    6  A    between atoms: C19_29  and  C20_30
ROOT
HETATM    1  S1  UNL     1      12.737  21.538  34.868  1.00  0.00    -0.121 SA
ENDROOT
BRANCH   1   2
HETATM    2  C2  UNL     1      11.232  21.894  33.927  1.00  0.00     0.182 C
BRANCH   2   3
HETATM    3  C1  UNL     1      10.886  23.348  34.052  1.00  0.00     0.231 C
HETATM    4  O1  UNL     1      11.390  24.151  33.247  1.00  0.00    -0.272 OA
HETATM    5  N3  UNL     1      10.003  23.775  35.069  1.00  0.00    -0.325 N
ATOM      6  H3  UNL     1       9.626  23.063  35.695  1.00  0.00     0.169 HD
BRANCH   5   7
HETATM    7  C16 UNL     1       9.605  25.105  35.285  1.00  0.00     0.062 A
HETATM    8  C17 UNL     1      10.348  26.137  35.823  1.00  0.00     0.118 A
HETATM    9  N4  UNL     1       9.552  27.215  35.851  1.00  0.00    -0.372 N
HETATM   10  C18 UNL     1       8.344  26.900  35.354  1.00  0.00     0.102 A
ATOM     11  H4  UNL     1       9.822  28.136  36.198  1.00  0.00     0.164 HD
HETATM   12  C19 UNL     1       8.330  25.573  34.980  1.00  0.00     0.018 A
BRANCH  12  13
HETATM   13  C20 UNL     1       7.197  24.880  34.388  1.00  0.00    -0.022 A
HETATM   14  C21 UNL     1       7.133  24.669  33.003  1.00  0.00     0.012 A
HETATM   15  C22 UNL     1       6.070  24.005  32.458  1.00  0.00     0.001 A
HETATM   16  C23 UNL     1       5.036  23.523  33.222  1.00  0.00     0.000 A
HETATM   17  C24 UNL     1       5.103  23.732  34.587  1.00  0.00     0.001 A
HETATM   18  C25 UNL     1       6.169  24.401  35.152  1.00  0.00     0.012 A
ENDBRANCH  12  13
ENDBRANCH   5   7
ENDBRANCH   2   3
ENDBRANCH   1   2
BRANCH   1  19
HETATM   19  C3  UNL     1      13.774  20.382  33.994  1.00  0.00     0.002 A
HETATM   20  C4  UNL     1      14.616  20.863  33.018  1.00  0.00     0.018 A
HETATM   21  C5  UNL     1      15.413  19.937  32.352  1.00  0.00     0.002 A
HETATM   22  C6  UNL     1      15.350  18.604  32.668  1.00  0.00     0.015 A
HETATM   23  C7  UNL     1      14.501  18.138  33.649  1.00  0.00     0.009 A
HETATM   24  C15 UNL     1      13.704  19.052  34.316  1.00  0.00     0.033 A
BRANCH  23  25
HETATM   25  C8  UNL     1      14.438  16.713  33.979  1.00  0.00     0.116 A
HETATM   26  N1  UNL     1      15.461  15.849  33.857  1.00  0.00    -0.340 N
HETATM   27  C9  UNL     1      15.073  14.617  34.244  1.00  0.00     0.060 A
ATOM     28  H1  UNL     1      16.395  16.091  33.522  1.00  0.00     0.167 HD
HETATM   29  C10 UNL     1      15.706  13.395  34.319  1.00  0.00     0.032 A
HETATM   30  C14 UNL     1      13.755  14.703  34.624  1.00  0.00     0.060 A
HETATM   31  C11 UNL     1      15.025  12.262  34.772  1.00  0.00     0.002 A
HETATM   32  C12 UNL     1      13.703  12.346  35.154  1.00  0.00     0.002 A
HETATM   33  C13 UNL     1      13.086  13.574  35.074  1.00  0.00     0.032 A
HETATM   34  N2  UNL     1      13.405  16.004  34.446  1.00  0.00    -0.340 N
ATOM     35  H2  UNL     1      12.480  16.387  34.642  1.00  0.00     0.167 HD
ENDBRANCH  23  25
ENDBRANCH   1  19
TORSDOF 6
ENDMDL