MODEL 3
REMARK VINA RESULT: -9.970738777      1.099      1.400
REMARK  6 active torsions:
REMARK  status: ('A' for Active; 'I' for Inactive)
REMARK    1  A    between atoms: C1_2  and  C2_4
REMARK    2  A    between atoms: C5_7  and  C6_8
REMARK    3  A    between atoms: C11_13  and  N2_14
REMARK       I    between atoms: N2_14  and  C12_16
REMARK       I    between atoms: C12_16  and  N3_18
REMARK    4  A    between atoms: N3_18  and  C13_20
REMARK    5  A    between atoms: C16_23  and  O3_24
REMARK    6  A    between atoms: O3_24  and  C17_25
ROOT
HETATM    1  N2  UNL     1      10.613  23.643  34.899  1.00  0.00    -0.308 N
ATOM      2  H2  UNL     1       9.820  23.345  34.331  1.00  0.00     0.170 HD
HETATM    3  C12 UNL     1      11.695  22.730  34.962  1.00  0.00     0.325 C
HETATM    4  O2  UNL     1      12.703  23.013  35.626  1.00  0.00    -0.247 OA
HETATM    5  N3  UNL     1      11.665  21.495  34.287  1.00  0.00    -0.309 N
ATOM      6  H3  UNL     1      10.818  21.307  33.751  1.00  0.00     0.170 HD
ENDROOT
BRANCH   1   7
HETATM    7  C11 UNL     1      10.482  24.898  35.508  1.00  0.00     0.047 A
HETATM    8  C6  UNL     1       9.285  25.612  35.396  1.00  0.00     0.001 A
HETATM    9  C7  UNL     1       9.122  26.834  36.033  1.00  0.00     0.014 A
HETATM   10  C8  UNL     1      10.113  27.403  36.795  1.00  0.00     0.001 A
HETATM   11  C9  UNL     1      11.287  26.724  36.914  1.00  0.00     0.002 A
HETATM   12  C10 UNL     1      11.447  25.496  36.275  1.00  0.00     0.030 A
BRANCH   8  13
HETATM   13  C5  UNL     1       8.175  25.140  34.583  1.00  0.00    -0.024 A
HETATM   14  C4  UNL     1       7.043  24.694  35.247  1.00  0.00     0.013 A
HETATM   15  C3  UNL     1       5.946  24.270  34.565  1.00  0.00     0.017 A
HETATM   16  C2  UNL     1       5.940  24.275  33.184  1.00  0.00     0.029 A
HETATM   17  C26 UNL     1       7.069  24.721  32.526  1.00  0.00     0.017 A
HETATM   18  C25 UNL     1       8.165  25.145  33.218  1.00  0.00     0.013 A
BRANCH  16  19
HETATM   19  C1  UNL     1       4.773  23.825  32.445  1.00  0.00     0.264 C
HETATM   20  N1  UNL     1       3.626  23.416  33.174  1.00  0.00    -0.057 NA
HETATM   21  O1  UNL     1       4.819  23.813  31.190  1.00  0.00    -0.271 OA
ENDBRANCH  16  19
ENDBRANCH   8  13
ENDBRANCH   1   7
BRANCH   5  22
HETATM   22  C13 UNL     1      12.643  20.488  34.253  1.00  0.00     0.036 A
HETATM   23  C14 UNL     1      13.794  20.517  33.511  1.00  0.00     0.032 A
HETATM   24  C15 UNL     1      14.717  19.455  33.510  1.00  0.00     0.039 A
HETATM   25  C16 UNL     1      14.491  18.334  34.265  1.00  0.00     0.076 A
HETATM   26  C23 UNL     1      13.342  18.276  35.021  1.00  0.00     0.039 A
HETATM   27  C24 UNL     1      12.456  19.313  35.012  1.00  0.00     0.032 A
BRANCH  25  28
HETATM   28  O3  UNL     1      15.341  17.255  34.319  1.00  0.00    -0.311 OA
BRANCH  28  29
HETATM   29  C17 UNL     1      14.911  15.936  34.322  1.00  0.00     0.076 A
HETATM   30  C18 UNL     1      13.561  15.658  34.299  1.00  0.00     0.037 A
HETATM   31  C19 UNL     1      13.088  14.353  34.302  1.00  0.00     0.003 A
HETATM   32  C20 UNL     1      13.952  13.278  34.327  1.00  0.00     0.000 A
HETATM   33  C21 UNL     1      15.303  13.558  34.350  1.00  0.00     0.003 A
HETATM   34  C22 UNL     1      15.781  14.864  34.348  1.00  0.00     0.037 A
ENDBRANCH  28  29
ENDBRANCH  25  28
ENDBRANCH   5  22
TORSDOF 6
ENDMDL