MODEL 2
REMARK VINA RESULT: -10.832663248      0.649      1.092
REMARK  6 active torsions:
REMARK  status: ('A' for Active; 'I' for Inactive)
REMARK       I    between atoms: C1_2  and  N1_3
REMARK    1  A    between atoms: C1_2  and  C15_20
REMARK    2  A    between atoms: N1_3  and  C2_5
REMARK    3  A    between atoms: C5_8  and  N2_9
REMARK    4  A    between atoms: N2_9  and  C6_11
REMARK    5  A    between atoms: C6_11  and  C7_12
REMARK    6  A    between atoms: C19_26  and  C20_27
ROOT
HETATM    1  O1  UNL     1      13.900  22.164  34.482  1.00  0.00    -0.266 OA
HETATM    2  C1  UNL     1      13.104  21.227  34.301  1.00  0.00     0.272 C
HETATM    3  N1  UNL     1      11.738  21.413  34.152  1.00  0.00    -0.322 N
ATOM      4  H1  UNL     1      11.171  20.579  34.001  1.00  0.00     0.169 HD
ENDROOT
BRANCH   2   5
HETATM    5  C15 UNL     1      13.658  19.851  34.243  1.00  0.00     0.103 A
HETATM    6  C16 UNL     1      14.945  19.504  33.893  1.00  0.00     0.067 A
HETATM    7  C17 UNL     1      15.050  18.139  33.967  1.00  0.00     0.061 A
HETATM    8  N3  UNL     1      16.071  17.282  33.734  1.00  0.00    -0.363 N
HETATM    9  C27 UNL     1      13.825  17.654  34.361  1.00  0.00     0.060 A
HETATM   10  C18 UNL     1      15.945  15.951  33.873  1.00  0.00     0.100 A
ATOM     11  H3  UNL     1      16.972  17.662  33.442  1.00  0.00     0.165 HD
HETATM   12  C19 UNL     1      14.738  15.413  34.266  1.00  0.00    -0.008 A
HETATM   13  C26 UNL     1      13.694  16.284  34.504  1.00  0.00     0.045 A
HETATM   14  N4  UNL     1      13.016  18.712  34.517  1.00  0.00    -0.350 N
ATOM     15  H4  UNL     1      12.040  18.655  34.806  1.00  0.00     0.166 HD
BRANCH  12  16
HETATM   16  C20 UNL     1      14.601  13.967  34.417  1.00  0.00    -0.025 A
HETATM   17  C21 UNL     1      13.919  13.383  35.472  1.00  0.00     0.012 A
HETATM   18  C22 UNL     1      13.810  12.019  35.581  1.00  0.00     0.001 A
HETATM   19  C23 UNL     1      14.378  11.201  34.640  1.00  0.00     0.000 A
HETATM   20  C24 UNL     1      15.059  11.745  33.585  1.00  0.00     0.001 A
HETATM   21  C25 UNL     1      15.165  13.109  33.483  1.00  0.00     0.012 A
ENDBRANCH  12  16
ENDBRANCH   2   5
BRANCH   3  22
HETATM   22  C2  UNL     1      11.060  22.656  34.190  1.00  0.00     0.035 A
HETATM   23  C3  UNL     1      10.662  23.237  32.967  1.00  0.00     0.032 A
HETATM   24  C4  UNL     1       9.986  24.428  32.922  1.00  0.00     0.031 A
HETATM   25  C5  UNL     1       9.654  25.129  34.058  1.00  0.00     0.028 A
HETATM   26  C13 UNL     1      10.037  24.569  35.252  1.00  0.00     0.031 A
HETATM   27  C14 UNL     1      10.727  23.354  35.318  1.00  0.00     0.032 A
BRANCH  25  28
HETATM   28  N2  UNL     1       8.953  26.365  34.018  1.00  0.00    -0.386 N
ATOM     29  H2  UNL     1       9.400  27.174  33.586  1.00  0.00     0.160 HD
BRANCH  28  30
HETATM   30  C6  UNL     1       7.623  26.509  34.569  1.00  0.00     0.158 C
BRANCH  30  31
HETATM   31  C7  UNL     1       6.714  25.501  33.978  1.00  0.00    -0.041 A
HETATM   32  C8  UNL     1       6.093  24.624  34.821  1.00  0.00     0.009 A
HETATM   33  C9  UNL     1       5.247  23.683  34.294  1.00  0.00     0.001 A
HETATM   34  C10 UNL     1       5.040  23.638  32.930  1.00  0.00     0.000 A
HETATM   35  C11 UNL     1       5.680  24.537  32.093  1.00  0.00     0.001 A
HETATM   36  C12 UNL     1       6.543  25.501  32.610  1.00  0.00     0.009 A
ENDBRANCH  30  31
ENDBRANCH  28  30
ENDBRANCH  25  28
ENDBRANCH   3  22
TORSDOF 6
ENDMDL