MODEL 5
REMARK VINA RESULT: -10.132036545      1.208      1.722
REMARK  6 active torsions:
REMARK  status: ('A' for Active; 'I' for Inactive)
REMARK    1  A    between atoms: C1_2  and  C2_4
REMARK    2  A    between atoms: C5_7  and  N2_8
REMARK       I    between atoms: N2_8  and  C6_10
REMARK       I    between atoms: C6_10  and  N3_12
REMARK    3  A    between atoms: N3_12  and  C7_14
REMARK    4  A    between atoms: C14_21  and  O3_22
REMARK    5  A    between atoms: O3_22  and  C15_23
REMARK    6  A    between atoms: C18_26  and  C19_27
ROOT
HETATM    1  C2  UNL     1      12.957  24.256  34.002  1.00  0.00     0.063 A
HETATM    2  C3  UNL     1      13.833  23.594  34.888  1.00  0.00     0.022 A
HETATM    3  C4  UNL     1      14.320  22.357  34.592  1.00  0.00     0.030 A
HETATM    4  C5  UNL     1      13.981  21.678  33.400  1.00  0.00     0.039 A
HETATM    5  C13 UNL     1      13.135  22.319  32.543  1.00  0.00     0.067 A
HETATM    6  C14 UNL     1      12.629  23.613  32.852  1.00  0.00     0.093 A
ENDROOT
BRANCH   6   7
HETATM    7  O3  UNL     1      11.786  24.168  31.902  1.00  0.00    -0.310 OA
BRANCH   7   8
HETATM    8  C15 UNL     1      10.439  24.379  32.156  1.00  0.00     0.076 A
HETATM    9  C16 UNL     1       9.957  25.689  32.030  1.00  0.00     0.038 A
HETATM   10  C17 UNL     1       8.621  25.957  32.276  1.00  0.00     0.015 A
HETATM   11  C18 UNL     1       7.759  24.947  32.646  1.00  0.00    -0.026 A
HETATM   12  C25 UNL     1       8.220  23.658  32.774  1.00  0.00     0.015 A
HETATM   13  C26 UNL     1       9.547  23.387  32.530  1.00  0.00     0.038 A
BRANCH  11  14
HETATM   14  C19 UNL     1       6.357  25.246  32.902  1.00  0.00    -0.026 A
HETATM   15  C20 UNL     1       5.795  24.818  34.075  1.00  0.00     0.012 A
HETATM   16  C21 UNL     1       4.462  25.113  34.300  1.00  0.00     0.001 A
HETATM   17  C22 UNL     1       3.737  25.818  33.359  1.00  0.00     0.000 A
HETATM   18  C23 UNL     1       4.310  26.245  32.178  1.00  0.00     0.001 A
HETATM   19  C24 UNL     1       5.637  25.959  31.939  1.00  0.00     0.012 A
ENDBRANCH  11  14
ENDBRANCH   7   8
ENDBRANCH   6   7
BRANCH   1  20
HETATM   20  C1  UNL     1      12.437  25.529  34.407  1.00  0.00     0.267 C
HETATM   21  N1  UNL     1      11.478  25.801  35.403  1.00  0.00    -0.057 NA
HETATM   22  O1  UNL     1      12.912  26.565  33.788  1.00  0.00    -0.271 OA
ENDBRANCH   1  20
BRANCH   4  23
HETATM   23  N2  UNL     1      14.520  20.394  33.171  1.00  0.00    -0.309 N
HETATM   24  C6  UNL     1      14.110  19.166  33.694  1.00  0.00     0.325 C
HETATM   25  O2  UNL     1      13.139  19.114  34.480  1.00  0.00    -0.247 OA
HETATM   26  N3  UNL     1      14.828  17.998  33.305  1.00  0.00    -0.309 N
ATOM     27  H3  UNL     1      15.609  18.135  32.664  1.00  0.00     0.170 HD
ATOM     28  H2  UNL     1      15.319  20.359  32.537  1.00  0.00     0.170 HD
BRANCH  26  29
HETATM   29  C7  UNL     1      14.575  16.687  33.709  1.00  0.00     0.036 A
HETATM   30  C8  UNL     1      13.317  16.170  33.824  1.00  0.00     0.029 A
HETATM   31  C9  UNL     1      13.136  14.855  34.258  1.00  0.00     0.002 A
HETATM   32  C10 UNL     1      14.227  14.078  34.569  1.00  0.00     0.000 A
HETATM   33  C11 UNL     1      15.502  14.601  34.450  1.00  0.00     0.002 A
HETATM   34  C12 UNL     1      15.683  15.892  34.025  1.00  0.00     0.029 A
ENDBRANCH  26  29
ENDBRANCH   4  23
TORSDOF 6
ENDMDL