MODEL 1
REMARK VINA RESULT: -10.260819641      0.000      0.000
REMARK  6 active torsions:
REMARK  status: ('A' for Active; 'I' for Inactive)
REMARK    1  A    between atoms: C1_2  and  C2_4
REMARK    2  A    between atoms: C5_7  and  O2_8
REMARK    3  A    between atoms: O2_8  and  C6_9
REMARK    4  A    between atoms: C11_14  and  N2_15
REMARK       I    between atoms: N2_15  and  C12_17
REMARK       I    between atoms: C12_17  and  N3_19
REMARK    5  A    between atoms: N3_19  and  C13_21
REMARK    6  A    between atoms: C16_24  and  C17_25
ROOT
HETATM    1  N2  UNL     1      11.929  25.405  33.309  1.00  0.00    -0.306 N
ATOM      2  H2  UNL     1      12.392  25.707  32.452  1.00  0.00     0.171 HD
HETATM    3  C12 UNL     1      12.218  24.078  33.725  1.00  0.00     0.325 C
HETATM    4  O3  UNL     1      11.733  23.557  34.746  1.00  0.00    -0.247 OA
HETATM    5  N3  UNL     1      13.098  23.305  32.945  1.00  0.00    -0.309 N
ATOM      6  H3  UNL     1      13.478  23.770  32.120  1.00  0.00     0.170 HD
ENDROOT
BRANCH   1   7
HETATM    7  C11 UNL     1      11.103  26.349  33.909  1.00  0.00     0.070 A
HETATM    8  C6  UNL     1       9.731  26.240  33.791  1.00  0.00     0.102 A
HETATM    9  C7  UNL     1       8.878  27.208  34.310  1.00  0.00     0.039 A
HETATM   10  C8  UNL     1       9.366  28.310  34.964  1.00  0.00     0.003 A
HETATM   11  C9  UNL     1      10.728  28.451  35.103  1.00  0.00     0.002 A
HETATM   12  C10 UNL     1      11.554  27.466  34.571  1.00  0.00     0.032 A
BRANCH   8  13
HETATM   13  O2  UNL     1       9.162  25.161  33.151  1.00  0.00    -0.309 OA
BRANCH  13  14
HETATM   14  C5  UNL     1       7.809  24.954  33.131  1.00  0.00     0.076 A
HETATM   15  C4  UNL     1       7.057  25.080  31.984  1.00  0.00     0.038 A
HETATM   16  C3  UNL     1       5.688  24.853  32.050  1.00  0.00     0.019 A
HETATM   17  C2  UNL     1       5.066  24.508  33.233  1.00  0.00     0.029 A
HETATM   18  C26 UNL     1       5.850  24.393  34.360  1.00  0.00     0.019 A
HETATM   19  C25 UNL     1       7.194  24.607  34.333  1.00  0.00     0.038 A
BRANCH  17  20
HETATM   20  C1  UNL     1       3.619  24.273  33.289  1.00  0.00     0.264 C
HETATM   21  N1  UNL     1       2.753  25.376  33.443  1.00  0.00    -0.057 NA
HETATM   22  O1  UNL     1       3.133  23.127  33.205  1.00  0.00    -0.271 OA
ENDBRANCH  17  20
ENDBRANCH  13  14
ENDBRANCH   8  13
ENDBRANCH   1   7
BRANCH   5  23
HETATM   23  C13 UNL     1      13.528  21.976  33.148  1.00  0.00     0.036 A
HETATM   24  C14 UNL     1      14.604  21.369  32.556  1.00  0.00     0.030 A
HETATM   25  C15 UNL     1      14.954  20.031  32.796  1.00  0.00     0.014 A
HETATM   26  C16 UNL     1      14.221  19.252  33.654  1.00  0.00    -0.026 A
HETATM   27  C23 UNL     1      13.138  19.851  34.256  1.00  0.00     0.014 A
HETATM   28  C24 UNL     1      12.788  21.158  34.027  1.00  0.00     0.030 A
BRANCH  26  29
HETATM   29  C17 UNL     1      14.570  17.861  33.916  1.00  0.00    -0.026 A
HETATM   30  C18 UNL     1      15.785  17.337  33.492  1.00  0.00     0.012 A
HETATM   31  C19 UNL     1      16.087  16.005  33.755  1.00  0.00     0.001 A
HETATM   32  C20 UNL     1      15.207  15.189  34.431  1.00  0.00     0.000 A
HETATM   33  C21 UNL     1      13.998  15.692  34.858  1.00  0.00     0.001 A
HETATM   34  C22 UNL     1      13.707  17.023  34.588  1.00  0.00     0.012 A
ENDBRANCH  26  29
ENDBRANCH   5  23
TORSDOF 6
ENDMDL