MODEL 2
REMARK VINA RESULT: -11.552027748      0.091      1.221
REMARK  6 active torsions:
REMARK  status: ('A' for Active; 'I' for Inactive)
REMARK       I    between atoms: C1_2  and  N1_3
REMARK       I    between atoms: C1_2  and  N2_13
REMARK    1  A    between atoms: N1_3  and  C2_5
REMARK    2  A    between atoms: C2_5  and  C3_7
REMARK    3  A    between atoms: N2_13  and  C9_15
REMARK    4  A    between atoms: C12_18  and  O2_19
REMARK    5  A    between atoms: O2_19  and  C13_20
REMARK    6  A    between atoms: C15_22  and  C16_23
ROOT
HETATM    1  C9  UNL     1      12.376  22.580  33.761  1.00  0.00     0.036 A
HETATM    2  C10 UNL     1      12.473  21.377  34.416  1.00  0.00     0.032 A
HETATM    3  C11 UNL     1      13.447  20.426  34.082  1.00  0.00     0.039 A
HETATM    4  C12 UNL     1      14.353  20.654  33.082  1.00  0.00     0.078 A
HETATM    5  C22 UNL     1      14.257  21.859  32.425  1.00  0.00     0.039 A
HETATM    6  C23 UNL     1      13.313  22.795  32.739  1.00  0.00     0.032 A
ENDROOT
BRANCH   1   7
HETATM    7  N2  UNL     1      11.413  23.571  34.040  1.00  0.00    -0.309 N
HETATM    8  C1  UNL     1      10.244  23.883  33.328  1.00  0.00     0.325 C
HETATM    9  O1  UNL     1       9.870  23.300  32.284  1.00  0.00    -0.247 OA
HETATM   10  N1  UNL     1       9.410  24.926  33.803  1.00  0.00    -0.299 N
ATOM     11  H1  UNL     1       9.679  25.427  34.651  1.00  0.00     0.171 HD
ATOM     12  H2  UNL     1      11.588  24.136  34.870  1.00  0.00     0.170 HD
BRANCH  10  13
HETATM   13  C2  UNL     1       8.230  25.292  33.146  1.00  0.00     0.114 C
HETATM   14  S1  UNL     1       8.219  26.429  31.994  1.00  0.00    -0.059 SA
BRANCH  13  15
HETATM   15  C3  UNL     1       6.969  24.625  33.513  1.00  0.00     0.002 A
HETATM   16  C4  UNL     1       6.615  24.582  34.851  1.00  0.00     0.014 A
HETATM   17  C5  UNL     1       5.451  23.975  35.264  1.00  0.00     0.001 A
HETATM   18  C6  UNL     1       4.607  23.392  34.332  1.00  0.00     0.000 A
HETATM   19  C7  UNL     1       4.953  23.431  32.994  1.00  0.00     0.001 A
HETATM   20  C8  UNL     1       6.136  24.051  32.597  1.00  0.00     0.014 A
ENDBRANCH  13  15
ENDBRANCH  10  13
ENDBRANCH   1   7
BRANCH   4  21
HETATM   21  O2  UNL     1      15.303  19.728  32.754  1.00  0.00    -0.293 OA
BRANCH  21  22
HETATM   22  C13 UNL     1      15.511  18.547  33.452  1.00  0.00     0.164 A
HETATM   23  C14 UNL     1      14.847  17.347  33.284  1.00  0.00     0.089 A
HETATM   24  C15 UNL     1      15.338  16.406  34.166  1.00  0.00     0.062 A
HETATM   25  N3  UNL     1      16.299  17.053  34.858  1.00  0.00    -0.298 N
HETATM   26  N4  UNL     1      16.404  18.305  34.445  1.00  0.00    -0.279 N
ATOM     27  H3  UNL     1      16.865  16.635  35.597  1.00  0.00     0.187 HD
ATOM     28  H4  UNL     1      17.061  18.990  34.819  1.00  0.00     0.189 HD
BRANCH  24  29
HETATM   29  C16 UNL     1      14.930  15.023  34.330  1.00  0.00    -0.008 A
HETATM   30  C17 UNL     1      13.629  14.691  34.624  1.00  0.00     0.014 A
HETATM   31  C18 UNL     1      13.234  13.362  34.781  1.00  0.00     0.001 A
HETATM   32  C19 UNL     1      14.145  12.342  34.647  1.00  0.00     0.000 A
HETATM   33  C20 UNL     1      15.449  12.664  34.353  1.00  0.00     0.001 A
HETATM   34  C21 UNL     1      15.821  13.987  34.201  1.00  0.00     0.014 A
ENDBRANCH  24  29
ENDBRANCH  21  22
ENDBRANCH   4  21
TORSDOF 6
ENDMDL