MODEL 3
REMARK VINA RESULT: -5.945108179      1.887      3.303
REMARK  6 active torsions:
REMARK  status: ('A' for Active; 'I' for Inactive)
REMARK    1  A    between atoms: N1_2  and  C2_5
REMARK    2  A    between atoms: C2_5  and  C3_6
REMARK    3  A    between atoms: C3_6  and  N2_7
REMARK    4  A    between atoms: C11_15  and  N3_16
REMARK       I    between atoms: N3_16  and  C12_17
REMARK    5  A    between atoms: N3_16  and  C15_22
REMARK    6  A    between atoms: C12_17  and  C13_19
ROOT
HETATM    1  C13 UNL     1      -2.068   4.131  10.424  1.00  0.00     0.226 C
HETATM    2  C14 UNL     1      -0.960   3.288  10.899  1.00  0.00     0.068 C
HETATM    3  N4  UNL     1      -0.082   2.643  11.276  1.00  0.00    -0.197 NA
ENDROOT
BRANCH   1   4
HETATM    4  C12 UNL     1      -2.120   5.415  11.165  1.00  0.00     0.233 C
HETATM    5  N3  UNL     1      -3.204   5.710  12.077  1.00  0.00    -0.336 N
HETATM    6  O1  UNL     1      -1.192   6.222  10.967  1.00  0.00    -0.272 OA
BRANCH   5   7
HETATM    7  C11 UNL     1      -4.254   4.733  12.254  1.00  0.00     0.097 C
HETATM    8  C6  UNL     1      -4.394   4.022  13.532  1.00  0.00    -0.014 C
HETATM    9  C5  UNL     1      -3.152   3.793  14.327  1.00  0.00     0.056 C
HETATM   10  C7  UNL     1      -5.445   4.571  14.461  1.00  0.00     0.012 C
HETATM   11  C20 UNL     1      -4.892   2.590  13.198  1.00  0.00     0.031 C
HETATM   12  C4  UNL     1      -3.276   2.814  15.438  1.00  0.00     0.059 C
HETATM   13  N2  UNL     1      -4.081   1.695  15.260  1.00  0.00    -0.392 N
HETATM   14  C21 UNL     1      -5.189   1.757  14.380  1.00  0.00     0.122 C
HETATM   15  C8  UNL     1      -6.729   4.933  13.766  1.00  0.00     0.001 C
HETATM   16  C9  UNL     1      -6.425   5.972  12.725  1.00  0.00     0.002 C
HETATM   17  C10 UNL     1      -5.582   5.257  11.711  1.00  0.00     0.026 C
BRANCH  13  18
HETATM   18  C3  UNL     1      -4.134   0.727  16.290  1.00  0.00     0.149 C
BRANCH  18  19
HETATM   19  C2  UNL     1      -4.866  -0.514  15.881  1.00  0.00     0.251 C
BRANCH  19  20
HETATM   20  N1  UNL     1      -5.514  -1.094  17.062  1.00  0.00    -0.077 N
HETATM   21  C1  UNL     1      -6.643  -0.252  17.399  1.00  0.00     0.267 C
ATOM     22  H12 UNL     1      -4.870  -1.227  17.842  1.00  0.00     0.276 HD
ATOM     23  H11 UNL     1      -5.772  -2.072  16.933  1.00  0.00     0.276 HD
ENDBRANCH  19  20
ENDBRANCH  18  19
ENDBRANCH  13  18
ENDBRANCH   5   7
BRANCH   5  24
HETATM   24  C15 UNL     1      -3.136   7.019  12.679  1.00  0.00     0.133 C
HETATM   25  C16 UNL     1      -3.203   8.093  11.565  1.00  0.00     0.032 C
HETATM   26  C17 UNL     1      -2.428   9.259  12.054  1.00  0.00     0.008 C
HETATM   27  C18 UNL     1      -1.696   8.876  13.305  1.00  0.00     0.054 C
HETATM   28  C19 UNL     1      -1.903   7.385  13.379  1.00  0.00     0.003 C
HETATM   29  N5  UNL     1      -1.023   6.699  14.002  1.00  0.00    -0.404 N
ATOM     30  H52 UNL     1      -1.162   5.689  14.052  1.00  0.00     0.155 HD
ATOM     31  H51 UNL     1      -0.164   6.955  14.490  1.00  0.00     0.155 HD
ENDBRANCH   5  24
ENDBRANCH   1   4
TORSDOF 6
ENDMDL