MODEL 4
REMARK VINA RESULT: -6.283881722      1.933      7.927
REMARK  7 active torsions:
REMARK  status: ('A' for Active; 'I' for Inactive)
REMARK    1  A    between atoms: C2_2  and  C4_4
REMARK    2  A    between atoms: N1_11  and  C11_12
REMARK    3  A    between atoms: C11_12  and  C12_13
REMARK    4  A    between atoms: C12_13  and  O1_14
REMARK    5  A    between atoms: C12_13  and  C13_16
REMARK    6  A    between atoms: C13_16  and  N2_17
REMARK    7  A    between atoms: N3_20  and  C16_21
ROOT
HETATM    1  C11 UNL     1      -2.466   3.307  12.367  1.00  0.00     0.096 C
ENDROOT
BRANCH   1   2
HETATM    2  N1  UNL     1      -3.280   3.307  13.499  1.00  0.00    -0.371 N
HETATM    3  C10 UNL     1      -4.662   2.989  13.282  1.00  0.00     0.128 C
HETATM    4  C9  UNL     1      -5.337   2.843  14.644  1.00  0.00     0.030 C
HETATM    5  C8  UNL     1      -4.735   1.654  15.299  1.00  0.00    -0.031 C
HETATM    6  C4  UNL     1      -5.389   1.175  16.536  1.00  0.00    -0.002 C
HETATM    7  C7  UNL     1      -4.694   0.432  14.402  1.00  0.00     0.010 C
HETATM    8  C22 UNL     1      -3.267   2.003  15.583  1.00  0.00     0.054 C
HETATM    9  C5  UNL     1      -4.831  -0.210  16.745  1.00  0.00     0.006 C
HETATM   10  C6  UNL     1      -4.430  -0.708  15.363  1.00  0.00     0.001 C
HETATM   11  C21 UNL     1      -2.802   3.202  14.795  1.00  0.00     0.064 C
BRANCH   6  12
HETATM   12  C2  UNL     1      -6.867   1.246  16.597  1.00  0.00    -0.018 C
HETATM   13  C1  UNL     1      -7.559   0.060  17.169  1.00  0.00     0.010 C
HETATM   14  C3  UNL     1      -7.226   2.457  17.472  1.00  0.00     0.010 C
ENDBRANCH   6  12
ENDBRANCH   1   2
BRANCH   1  15
HETATM   15  C12 UNL     1      -3.260   3.344  11.081  1.00  0.00     0.184 C
BRANCH  15  16
HETATM   16  O1  UNL     1      -2.535   2.625  10.140  1.00  0.00    -0.389 OA
ATOM     17  H1  UNL     1      -1.633   2.914  10.208  1.00  0.00     0.210 HD
ENDBRANCH  15  16
BRANCH  15  18
HETATM   18  C13 UNL     1      -3.369   4.781  10.591  1.00  0.00     0.309 C
BRANCH  18  19
HETATM   19  N2  UNL     1      -4.608   5.157  10.043  1.00  0.00     0.094 N
HETATM   20  C14 UNL     1      -5.504   5.923  10.837  1.00  0.00     0.302 C
HETATM   21  C15 UNL     1      -5.912   7.228  10.183  1.00  0.00     0.303 C
HETATM   22  N3  UNL     1      -6.538   6.997   8.892  1.00  0.00     0.095 N
HETATM   23  C19 UNL     1      -5.791   6.061   8.087  1.00  0.00     0.303 C
HETATM   24  C20 UNL     1      -4.458   5.680   8.698  1.00  0.00     0.302 C
BRANCH  22  25
HETATM   25  C16 UNL     1      -7.883   6.506   9.022  1.00  0.00     0.215 C
HETATM   26  C17 UNL     1      -8.899   7.450   8.408  1.00  0.00     0.042 C
HETATM   27  C18 UNL     1      -7.987   5.207   8.228  1.00  0.00     0.042 C
ENDBRANCH  22  25
ENDBRANCH  18  19
ENDBRANCH  15  18
ENDBRANCH   1  15
TORSDOF 7
ENDMDL