MODEL 1
REMARK VINA RESULT: -7.859645622      0.000      0.000
REMARK  6 active torsions:
REMARK  status: ('A' for Active; 'I' for Inactive)
REMARK    1  A    between atoms: C1_2  and  C2_3
REMARK       I    between atoms: C1_2  and  N3_22
REMARK    2  A    between atoms: C2_3  and  N1_4
REMARK    3  A    between atoms: C9_11  and  N2_12
REMARK       I    between atoms: N2_12  and  C10_14
REMARK    4  A    between atoms: C10_14  and  C11_16
REMARK    5  A    between atoms: C11_16  and  C12_18
REMARK    6  A    between atoms: N3_22  and  C16_24
ROOT
HETATM    1  N1  UNL     1      -2.872   3.809  13.646  1.00  0.00    -0.359 N
HETATM    2  C3  UNL     1      -2.880   4.937  12.812  1.00  0.00     0.086 C
HETATM    3  C4  UNL     1      -2.943   6.166  13.734  1.00  0.00     0.026 C
HETATM    4  C5  UNL     1      -3.842   5.766  14.892  1.00  0.00     0.010 C
HETATM    5  C6  UNL     1      -4.879   4.741  14.429  1.00  0.00     0.028 C
HETATM    6  C7  UNL     1      -5.352   5.222  13.072  1.00  0.00     0.010 C
HETATM    7  C8  UNL     1      -4.229   4.960  12.075  1.00  0.00     0.026 C
HETATM    8  C9  UNL     1      -4.119   3.424  14.165  1.00  0.00     0.191 C
ENDROOT
BRANCH   1   9
HETATM    9  C2  UNL     1      -1.726   3.070  13.846  1.00  0.00     0.162 C
BRANCH   9  10
HETATM   10  C1  UNL     1      -0.928   2.737  12.656  1.00  0.00     0.257 C
HETATM   11  O1  UNL     1      -1.114   1.635  12.095  1.00  0.00    -0.267 OA
HETATM   12  N3  UNL     1       0.052   3.617  12.110  1.00  0.00    -0.352 N
ATOM     13  H3  UNL     1       0.201   4.516  12.569  1.00  0.00     0.163 HD
BRANCH  12  14
HETATM   14  C16 UNL     1       0.838   3.311  10.955  1.00  0.00     0.084 C
HETATM   15  C17 UNL     1       0.235   3.823   9.659  1.00  0.00     0.025 C
HETATM   16  C18 UNL     1       0.958   3.069   8.534  1.00  0.00     0.002 C
HETATM   17  C19 UNL     1       2.418   3.377   8.567  1.00  0.00     0.000 C
HETATM   18  C20 UNL     1       3.064   3.278   9.908  1.00  0.00     0.002 C
HETATM   19  C21 UNL     1       2.251   3.786  11.052  1.00  0.00     0.025 C
ENDBRANCH  12  14
ENDBRANCH   9  10
ENDBRANCH   1   9
BRANCH   8  20
HETATM   20  N2  UNL     1      -4.098   2.608  15.334  1.00  0.00    -0.333 N
HETATM   21  C10 UNL     1      -4.592   1.278  15.267  1.00  0.00     0.289 C
HETATM   22  O2  UNL     1      -5.055   0.803  14.172  1.00  0.00    -0.264 OA
ATOM     23  H2  UNL     1      -3.731   2.976  16.211  1.00  0.00     0.165 HD
BRANCH  21  24
HETATM   24  C11 UNL     1      -4.608   0.381  16.411  1.00  0.00     0.220 C
HETATM   25  O3  UNL     1      -3.752  -0.552  16.413  1.00  0.00    -0.287 OA
BRANCH  24  26
HETATM   26  C12 UNL     1      -5.572   0.542  17.525  1.00  0.00     0.065 C
HETATM   27  C13 UNL     1      -6.323  -0.742  17.809  1.00  0.00     0.013 C
HETATM   28  C14 UNL     1      -7.567  -0.138  17.211  1.00  0.00     0.002 C
HETATM   29  C15 UNL     1      -6.851   1.193  17.087  1.00  0.00     0.013 C
ENDBRANCH  24  26
ENDBRANCH  21  24
ENDBRANCH   8  20
TORSDOF 6
ENDMDL