MODEL 4
REMARK VINA RESULT: -6.873484986      1.849      2.709
REMARK  7 active torsions:
REMARK  status: ('A' for Active; 'I' for Inactive)
REMARK    1  A    between atoms: C2_2  and  C3_3
REMARK    2  A    between atoms: N1_7  and  C7_8
REMARK    3  A    between atoms: N2_11  and  C10_12
REMARK    4  A    between atoms: C10_12  and  C11_13
REMARK    5  A    between atoms: C11_13  and  C12_14
REMARK    6  A    between atoms: C15_21  and  N5_22
REMARK    7  A    between atoms: N5_22  and  C16_24
ROOT
HETATM    1  C11 UNL     1      -3.295   4.205  13.765  1.00  0.00     0.061 C
ENDROOT
BRANCH   1   2
HETATM    2  C10 UNL     1      -4.525   5.052  13.819  1.00  0.00     0.130 C
BRANCH   2   3
HETATM    3  N2  UNL     1      -4.891   5.557  12.523  1.00  0.00    -0.350 N
HETATM    4  C9  UNL     1      -4.034   5.625  11.360  1.00  0.00     0.128 C
HETATM    5  C8  UNL     1      -4.385   7.013  10.842  1.00  0.00     0.055 C
HETATM    6  C7  UNL     1      -5.861   7.067  10.964  1.00  0.00     0.178 C
HETATM    7  C19 UNL     1      -6.144   6.118  12.074  1.00  0.00     0.242 C
HETATM    8  O1  UNL     1      -7.246   5.792  12.604  1.00  0.00    -0.271 OA
BRANCH   6   9
HETATM    9  N1  UNL     1      -6.644   6.803   9.869  1.00  0.00    -0.372 N
HETATM   10  C3  UNL     1      -6.508   5.704   9.041  1.00  0.00     0.107 C
HETATM   11  C4  UNL     1      -7.919   5.539   8.459  1.00  0.00     0.034 C
HETATM   12  C5  UNL     1      -8.366   6.955   8.301  1.00  0.00     0.046 C
HETATM   13  C6  UNL     1      -7.670   7.669   9.449  1.00  0.00     0.060 C
BRANCH  10  14
HETATM   14  C2  UNL     1      -5.618   6.003   7.854  1.00  0.00    -0.012 C
HETATM   15  C1  UNL     1      -5.212   5.038   7.050  1.00  0.00     0.009 C
ENDBRANCH  10  14
ENDBRANCH   6   9
ENDBRANCH   2   3
ENDBRANCH   1   2
BRANCH   1  16
HETATM   16  C12 UNL     1      -3.501   2.790  13.475  1.00  0.00    -0.020 A
HETATM   17  C13 UNL     1      -3.321   2.056  12.328  1.00  0.00     0.098 A
HETATM   18  N3  UNL     1      -3.657   0.783  12.558  1.00  0.00    -0.351 N
HETATM   19  C14 UNL     1      -4.071   0.611  13.853  1.00  0.00     0.125 A
ATOM     20  H3  UNL     1      -3.610   0.038  11.862  1.00  0.00     0.166 HD
HETATM   21  N4  UNL     1      -4.502  -0.374  14.616  1.00  0.00    -0.322 N
HETATM   22  C18 UNL     1      -3.973   1.849  14.410  1.00  0.00     0.060 A
HETATM   23  C15 UNL     1      -4.817  -0.105  15.882  1.00  0.00     0.146 A
ATOM     24  H4  UNL     1      -4.593  -1.320  14.246  1.00  0.00     0.169 HD
HETATM   25  S1  UNL     1      -4.502   1.567  16.011  1.00  0.00    -0.050 SA
BRANCH  23  26
HETATM   26  N5  UNL     1      -5.262  -0.944  16.795  1.00  0.00    -0.371 N
ATOM     27  H5  UNL     1      -4.999  -1.929  16.753  1.00  0.00     0.161 HD
BRANCH  26  28
HETATM   28  C16 UNL     1      -6.120  -0.474  17.854  1.00  0.00     0.117 C
HETATM   29  C17 UNL     1      -7.492  -0.119  17.376  1.00  0.00     0.026 C
ENDBRANCH  26  28
ENDBRANCH  23  26
ENDBRANCH   1  16
TORSDOF 7
ENDMDL