MODEL 3
REMARK VINA RESULT: -7.344652867      2.952      4.336
REMARK  7 active torsions:
REMARK  status: ('A' for Active; 'I' for Inactive)
REMARK    1  A    between atoms: C1_2  and  C2_3
REMARK       I    between atoms: C1_2  and  N1_16
REMARK    2  A    between atoms: C2_3  and  O2_4
REMARK    3  A    between atoms: O2_4  and  C3_5
REMARK    4  A    between atoms: C3_5  and  C4_7
REMARK    5  A    between atoms: C9_12  and  C10_13
REMARK    6  A    between atoms: N1_16  and  C11_18
REMARK    7  A    between atoms: C11_18  and  C12_19
ROOT
HETATM    1  O1  UNL     1      -2.683   2.693   9.562  1.00  0.00    -0.271 OA
HETATM    2  C1  UNL     1      -2.606   3.453  10.549  1.00  0.00     0.241 C
HETATM    3  N1  UNL     1      -3.396   4.620  10.599  1.00  0.00    -0.358 N
ATOM      4  H1  UNL     1      -3.335   5.242  11.405  1.00  0.00     0.162 HD
ENDROOT
BRANCH   2   5
HETATM    5  C2  UNL     1      -1.682   3.109  11.649  1.00  0.00     0.281 C
BRANCH   5   6
HETATM    6  O2  UNL     1      -2.312   2.247  12.578  1.00  0.00    -0.312 OA
BRANCH   6   7
HETATM    7  C3  UNL     1      -2.945   2.723  13.712  1.00  0.00     0.264 C
HETATM    8  O3  UNL     1      -2.249   2.836  14.752  1.00  0.00    -0.265 OA
BRANCH   7   9
HETATM    9  C4  UNL     1      -4.386   3.081  13.696  1.00  0.00     0.100 C
HETATM   10  C5  UNL     1      -4.594   4.334  14.513  1.00  0.00     0.015 C
HETATM   11  C6  UNL     1      -6.084   4.588  14.569  1.00  0.00     0.001 C
HETATM   12  C7  UNL     1      -6.679   3.547  15.481  1.00  0.00     0.001 C
HETATM   13  C8  UNL     1      -5.982   2.231  15.434  1.00  0.00     0.016 C
HETATM   14  C9  UNL     1      -5.254   1.943  14.171  1.00  0.00     0.100 C
BRANCH  14  15
HETATM   15  C10 UNL     1      -4.369   0.772  14.378  1.00  0.00     0.177 C
HETATM   16  O4  UNL     1      -4.057   0.048  13.402  1.00  0.00    -0.648 OA
HETATM   17  O5  UNL     1      -3.848   0.414  15.614  1.00  0.00    -0.648 OA
ENDBRANCH  14  15
ENDBRANCH   7   9
ENDBRANCH   6   7
ENDBRANCH   5   6
ENDBRANCH   2   5
BRANCH   3  18
HETATM   18  C11 UNL     1      -4.282   4.932   9.526  1.00  0.00     0.132 C
BRANCH  18  19
HETATM   19  C12 UNL     1      -5.304   5.978   9.877  1.00  0.00    -0.023 C
HETATM   20  C13 UNL     1      -5.188   6.252  11.359  1.00  0.00     0.015 C
HETATM   21  C14 UNL     1      -6.187   7.309  11.775  1.00  0.00    -0.013 C
HETATM   22  C15 UNL     1      -5.822   8.582  11.052  1.00  0.00     0.009 C
HETATM   23  C19 UNL     1      -7.556   6.807  11.415  1.00  0.00     0.009 C
HETATM   24  C16 UNL     1      -5.891   8.354   9.573  1.00  0.00    -0.013 C
HETATM   25  C17 UNL     1      -7.309   7.972   9.223  1.00  0.00     0.009 C
HETATM   26  C21 UNL     1      -4.913   7.271   9.166  1.00  0.00     0.015 C
HETATM   27  C18 UNL     1      -7.642   6.684   9.927  1.00  0.00    -0.013 C
HETATM   28  C20 UNL     1      -6.689   5.619   9.455  1.00  0.00     0.015 C
ENDBRANCH  18  19
ENDBRANCH   3  18
TORSDOF 7
ENDMDL