MODEL 4
REMARK VINA RESULT: -7.194304997      3.667      5.985
REMARK  8 active torsions:
REMARK  status: ('A' for Active; 'I' for Inactive)
REMARK    1  A    between atoms: C2_3  and  N2_4
REMARK    2  A    between atoms: N2_4  and  C3_6
REMARK    3  A    between atoms: C3_6  and  N3_7
REMARK    4  A    between atoms: C3_6  and  C17_26
REMARK    5  A    between atoms: N3_7  and  C4_9
REMARK    6  A    between atoms: N4_12  and  C7_13
REMARK    7  A    between atoms: C7_13  and  C8_14
REMARK       I    between atoms: C8_14  and  N5_16
REMARK    8  A    between atoms: N5_16  and  C9_18
ROOT
HETATM    1  N1  UNL     1      -5.337  -0.075  10.865  1.00  0.00    -0.191 NA
HETATM    2  C1  UNL     1      -4.821  -0.353  11.861  1.00  0.00     0.105 C
HETATM    3  C2  UNL     1      -4.164  -0.678  13.133  1.00  0.00     0.183 C
ENDROOT
BRANCH   3   4
HETATM    4  N2  UNL     1      -4.502   0.073  14.215  1.00  0.00    -0.347 N
ATOM      5  H2  UNL     1      -4.849  -0.622  14.875  1.00  0.00     0.167 HD
BRANCH   4   6
HETATM    6  C3  UNL     1      -4.619   1.103  14.825  1.00  0.00     0.082 C
BRANCH   6   7
HETATM    7  N3  UNL     1      -4.267   2.337  14.149  1.00  0.00    -0.373 N
ATOM      8  H3  UNL     1      -4.911   2.701  13.446  1.00  0.00     0.161 HD
BRANCH   7   9
HETATM    9  C4  UNL     1      -3.078   3.068  14.411  1.00  0.00     0.097 C
HETATM   10  C5  UNL     1      -3.333   4.542  14.608  1.00  0.00     0.041 C
HETATM   11  C6  UNL     1      -2.017   5.193  14.163  1.00  0.00     0.097 C
HETATM   12  N4  UNL     1      -1.358   4.239  13.365  1.00  0.00    -0.286 NA
HETATM   13  C16 UNL     1      -2.208   3.081  13.176  1.00  0.00     0.120 C
BRANCH  12  14
HETATM   14  C7  UNL     1      -0.683   4.647  12.198  1.00  0.00     0.134 C
BRANCH  14  15
HETATM   15  C8  UNL     1       0.620   4.079  11.905  1.00  0.00     0.252 C
HETATM   16  O1  UNL     1       0.614   3.002  11.197  1.00  0.00    -0.268 OA
HETATM   17  N5  UNL     1       1.888   4.534  12.283  1.00  0.00    -0.352 N
ATOM     18  H5  UNL     1       1.937   5.383  12.845  1.00  0.00     0.163 HD
BRANCH  17  19
HETATM   19  C9  UNL     1       3.129   3.890  11.936  1.00  0.00     0.084 C
HETATM   20  C10 UNL     1       4.130   3.968  13.034  1.00  0.00     0.025 C
HETATM   21  C11 UNL     1       4.294   5.299  13.680  1.00  0.00     0.002 C
HETATM   22  C12 UNL     1       5.095   6.301  12.930  1.00  0.00     0.000 C
HETATM   23  C13 UNL     1       5.408   5.931  11.502  1.00  0.00     0.000 C
HETATM   24  C14 UNL     1       4.106   5.863  10.745  1.00  0.00     0.002 C
HETATM   25  C15 UNL     1       3.722   4.407  10.657  1.00  0.00     0.025 C
ENDBRANCH  17  19
ENDBRANCH  14  15
ENDBRANCH  12  14
ENDBRANCH   7   9
ENDBRANCH   6   7
BRANCH   6  26
HETATM   26  C17 UNL     1      -5.084   1.290  16.201  1.00  0.00     0.053 C
HETATM   27  C18 UNL     1      -6.503   1.646  16.408  1.00  0.00     0.012 C
HETATM   28  C19 UNL     1      -7.234   0.411  16.890  1.00  0.00     0.001 C
HETATM   29  C20 UNL     1      -6.178  -0.635  17.156  1.00  0.00     0.001 C
HETATM   30  C21 UNL     1      -4.858   0.052  17.056  1.00  0.00     0.012 C
ENDBRANCH   6  26
ENDBRANCH   4   6
ENDBRANCH   3   4
TORSDOF 8
ENDMDL