MODEL 4
REMARK VINA RESULT: -7.069252239      1.499      1.919
REMARK  6 active torsions:
REMARK  status: ('A' for Active; 'I' for Inactive)
REMARK    1  A    between atoms: C5_9  and  C6_10
REMARK    2  A    between atoms: C6_10  and  N3_11
REMARK    3  A    between atoms: C9_14  and  C10_15
REMARK    4  A    between atoms: N4_18  and  C13_19
REMARK    5  A    between atoms: C13_19  and  C14_20
REMARK       I    between atoms: C14_20  and  N5_22
REMARK    6  A    between atoms: N5_22  and  C15_24
ROOT
HETATM    1  C1  UNL     1      -8.632   7.019   9.192  1.00  0.00     0.104 C
HETATM    2  C2  UNL     1      -7.853   6.321   8.548  1.00  0.00    -0.129 C
HETATM    3  C3  UNL     1      -6.866   5.520   7.776  1.00  0.00     0.101 A
HETATM    4  N1  UNL     1      -7.118   4.605   6.872  1.00  0.00    -0.293 N
ATOM      5  H1  UNL     1      -8.040   4.252   6.613  1.00  0.00     0.187 HD
HETATM    6  N2  UNL     1      -5.959   4.221   6.356  1.00  0.00    -0.310 N
ATOM      7  H2  UNL     1      -5.871   3.513   5.628  1.00  0.00     0.186 HD
HETATM    8  C4  UNL     1      -4.929   4.858   6.890  1.00  0.00     0.122 A
HETATM    9  C5  UNL     1      -5.523   5.704   7.829  1.00  0.00     0.033 A
ENDROOT
BRANCH   9  10
HETATM   10  C6  UNL     1      -4.887   6.700   8.758  1.00  0.00     0.111 C
BRANCH  10  11
HETATM   11  N3  UNL     1      -4.327   6.146   9.915  1.00  0.00    -0.350 N
HETATM   12  C7  UNL     1      -2.954   5.936   9.924  1.00  0.00     0.069 C
HETATM   13  C8  UNL     1      -2.746   4.448   9.800  1.00  0.00     0.052 C
HETATM   14  C9  UNL     1      -3.118   3.802  11.119  1.00  0.00     0.028 C
HETATM   15  C20 UNL     1      -4.389   4.413  11.634  1.00  0.00     0.052 C
HETATM   16  C21 UNL     1      -5.140   5.234  10.593  1.00  0.00     0.069 C
BRANCH  14  17
HETATM   17  C10 UNL     1      -2.092   4.143  12.169  1.00  0.00     0.230 C
HETATM   18  C11 UNL     1      -0.651   4.016  11.861  1.00  0.00     0.066 C
HETATM   19  C12 UNL     1      -0.800   2.576  12.202  1.00  0.00     0.275 C
HETATM   20  N4  UNL     1      -1.903   2.996  13.120  1.00  0.00     0.102 N
BRANCH  20  21
HETATM   21  C13 UNL     1      -2.966   2.056  13.158  1.00  0.00     0.375 C
BRANCH  21  22
HETATM   22  C14 UNL     1      -3.574   2.171  14.544  1.00  0.00     0.246 C
HETATM   23  O1  UNL     1      -3.375   3.173  15.266  1.00  0.00    -0.272 OA
HETATM   24  N5  UNL     1      -4.392   1.065  14.972  1.00  0.00    -0.355 N
ATOM     25  H5  UNL     1      -4.503   0.230  14.398  1.00  0.00     0.162 HD
BRANCH  24  26
HETATM   26  C15 UNL     1      -5.051   1.197  16.262  1.00  0.00     0.084 C
HETATM   27  C16 UNL     1      -6.464   1.656  16.119  1.00  0.00     0.025 C
HETATM   28  C17 UNL     1      -7.173   0.881  17.205  1.00  0.00     0.002 C
HETATM   29  C18 UNL     1      -6.462  -0.448  17.156  1.00  0.00     0.002 C
HETATM   30  C19 UNL     1      -5.012  -0.052  17.085  1.00  0.00     0.025 C
ENDBRANCH  24  26
ENDBRANCH  21  22
ENDBRANCH  20  21
ENDBRANCH  14  17
ENDBRANCH  10  11
ENDBRANCH   9  10
TORSDOF 6
ENDMDL