MODEL 5
REMARK VINA RESULT: -7.030035068      2.588      6.863
REMARK  7 active torsions:
REMARK  status: ('A' for Active; 'I' for Inactive)
REMARK    1  A    between atoms: C3_3  and  N1_5
REMARK    2  A    between atoms: C7_8  and  C8_9
REMARK    3  A    between atoms: C7_8  and  C14_20
REMARK       I    between atoms: C8_9  and  N2_11
REMARK    4  A    between atoms: N2_11  and  C9_13
REMARK    5  A    between atoms: C9_13  and  C10_14
REMARK    6  A    between atoms: C9_13  and  C11_17
REMARK    7  A    between atoms: C10_14  and  O2_15
ROOT
HETATM    1  C1  UNL     1      -4.977  -0.730  11.415  1.00  0.00     0.014 C
HETATM    2  C2  UNL     1      -4.496  -0.170  12.378  1.00  0.00    -0.082 C
HETATM    3  C3  UNL     1      -3.936   0.512  13.546  1.00  0.00     0.299 C
HETATM    4  C4  UNL     1      -4.665   0.173  14.803  1.00  0.00     0.057 C
ENDROOT
BRANCH   3   5
HETATM    5  N1  UNL     1      -3.842   1.916  13.268  1.00  0.00     0.132 N
HETATM    6  C5  UNL     1      -4.001   2.749  14.435  1.00  0.00     0.279 C
HETATM    7  C6  UNL     1      -4.723   4.024  14.367  1.00  0.00     0.052 C
HETATM    8  C7  UNL     1      -4.352   4.975  13.203  1.00  0.00     0.072 C
HETATM    9  C19 UNL     1      -3.809   4.101  12.246  1.00  0.00     0.142 C
HETATM   10  C20 UNL     1      -3.308   4.091  10.896  1.00  0.00     0.038 C
HETATM   11  O3  UNL     1      -2.612   3.633  12.817  1.00  0.00    -0.350 OA
HETATM   12  C21 UNL     1      -2.975   2.549  10.955  1.00  0.00     0.067 C
HETATM   13  C22 UNL     1      -2.737   2.279  12.426  1.00  0.00     0.360 C
BRANCH   8  14
HETATM   14  C8  UNL     1      -5.660   5.523  12.681  1.00  0.00     0.229 C
HETATM   15  O1  UNL     1      -6.734   5.339  13.307  1.00  0.00    -0.273 OA
HETATM   16  N2  UNL     1      -5.753   6.265  11.477  1.00  0.00    -0.353 N
ATOM     17  H2  UNL     1      -4.895   6.427  10.951  1.00  0.00     0.163 HD
BRANCH  16  18
HETATM   18  C9  UNL     1      -6.971   6.800  10.950  1.00  0.00     0.112 C
BRANCH  18  19
HETATM   19  C10 UNL     1      -7.297   6.263   9.571  1.00  0.00     0.189 C
BRANCH  19  20
HETATM   20  O2  UNL     1      -6.778   4.986   9.470  1.00  0.00    -0.399 OA
ATOM     21  H2  UNL     1      -5.830   5.050   9.463  1.00  0.00     0.209 HD
ENDBRANCH  19  20
ENDBRANCH  18  19
BRANCH  18  22
HETATM   22  C11 UNL     1      -6.954   8.309  10.816  1.00  0.00     0.010 A
HETATM   23  C12 UNL     1      -6.301   8.874   9.567  1.00  0.00     0.007 A
HETATM   24  C13 UNL     1      -5.743   9.115  10.958  1.00  0.00     0.007 A
ENDBRANCH  18  22
ENDBRANCH  16  18
ENDBRANCH   8  14
BRANCH   8  25
HETATM   25  C14 UNL     1      -3.604   6.118  13.751  1.00  0.00     0.006 C
HETATM   26  C15 UNL     1      -2.654   6.802  12.824  1.00  0.00     0.006 C
HETATM   27  C16 UNL     1      -2.113   7.909  13.743  1.00  0.00     0.000 C
HETATM   28  C17 UNL     1      -2.211   7.337  15.161  1.00  0.00     0.000 C
HETATM   29  C18 UNL     1      -2.794   5.922  14.979  1.00  0.00     0.006 C
ENDBRANCH   8  25
ENDBRANCH   3   5
TORSDOF 7
ENDMDL