MODEL 1
REMARK VINA RESULT: -6.895766445      0.000      0.000
REMARK  9 active torsions:
REMARK  status: ('A' for Active; 'I' for Inactive)
REMARK    1  A    between atoms: C3_3  and  C4_4
REMARK    2  A    between atoms: C3_3  and  C10_10
REMARK    3  A    between atoms: C4_4  and  C5_5
REMARK    4  A    between atoms: C10_10  and  N1_11
REMARK    5  A    between atoms: C10_10  and  C16_20
REMARK       I    between atoms: N1_11  and  C11_13
REMARK    6  A    between atoms: C11_13  and  O2_15
REMARK    7  A    between atoms: O2_15  and  C12_16
REMARK       I    between atoms: C16_20  and  N2_22
REMARK    8  A    between atoms: C20_26  and  C21_27
REMARK    9  A    between atoms: C21_27  and  O4_28
ROOT
HETATM    1  C1  UNL     1      -0.189   6.351  12.738  1.00  0.00     0.097 C
HETATM    2  C2  UNL     1      -1.149   5.831  13.308  1.00  0.00    -0.180 C
HETATM    3  C3  UNL     1      -2.261   5.176  13.974  1.00  0.00     0.084 C
ENDROOT
BRANCH   3   4
HETATM    4  C4  UNL     1      -3.490   5.981  13.902  1.00  0.00     0.023 C
BRANCH   4   5
HETATM    5  C5  UNL     1      -4.337   5.875  12.687  1.00  0.00    -0.013 C
HETATM    6  C6  UNL     1      -4.309   7.287  12.046  1.00  0.00     0.005 C
HETATM    7  C7  UNL     1      -5.463   7.278  11.074  1.00  0.00     0.000 C
HETATM    8  C8  UNL     1      -6.485   6.398  11.716  1.00  0.00     0.000 C
HETATM    9  C9  UNL     1      -5.808   5.710  12.901  1.00  0.00     0.005 C
ENDBRANCH   4   5
ENDBRANCH   3   4
BRANCH   3  10
HETATM   10  C10 UNL     1      -2.417   3.783  13.388  1.00  0.00     0.193 C
BRANCH  10  11
HETATM   11  N1  UNL     1      -1.123   3.299  12.921  1.00  0.00    -0.322 N
HETATM   12  C11 UNL     1      -0.910   2.776  11.637  1.00  0.00     0.362 C
HETATM   13  O1  UNL     1      -1.897   2.726  10.848  1.00  0.00    -0.238 OA
ATOM     14  H1  UNL     1      -0.331   3.342  13.562  1.00  0.00     0.165 HD
BRANCH  12  15
HETATM   15  O2  UNL     1       0.301   2.313  11.172  1.00  0.00    -0.294 OA
BRANCH  15  16
HETATM   16  C12 UNL     1       1.259   3.084  10.509  1.00  0.00     0.061 C
HETATM   17  C13 UNL     1       0.695   4.314   9.859  1.00  0.00     0.046 C
HETATM   18  C14 UNL     1       2.272   3.539  11.558  1.00  0.00     0.046 C
HETATM   19  C15 UNL     1       2.031   2.310   9.465  1.00  0.00     0.046 C
ENDBRANCH  15  16
ENDBRANCH  12  15
ENDBRANCH  10  11
BRANCH  10  20
HETATM   20  C16 UNL     1      -2.924   2.780  14.327  1.00  0.00     0.244 C
HETATM   21  O3  UNL     1      -2.358   2.796  15.481  1.00  0.00    -0.271 OA
HETATM   22  N2  UNL     1      -3.951   1.845  14.040  1.00  0.00    -0.344 N
HETATM   23  C17 UNL     1      -4.613   1.735  12.749  1.00  0.00     0.126 C
HETATM   24  C20 UNL     1      -4.602   0.825  14.793  1.00  0.00     0.111 C
HETATM   25  C18 UNL     1      -4.620   0.215  12.539  1.00  0.00     0.022 C
HETATM   26  C19 UNL     1      -4.342  -0.387  13.925  1.00  0.00     0.029 C
BRANCH  24  27
HETATM   27  C21 UNL     1      -4.302   0.680  16.216  1.00  0.00     0.189 C
BRANCH  27  28
HETATM   28  O4  UNL     1      -3.826  -0.592  16.485  1.00  0.00    -0.399 OA
ATOM     29  H4  UNL     1      -3.988  -0.824  17.392  1.00  0.00     0.209 HD
ENDBRANCH  27  28
ENDBRANCH  24  27
ENDBRANCH  10  20
ENDBRANCH   3  10
TORSDOF 9
ENDMDL