MODEL 3
REMARK VINA RESULT: -6.935518074      2.756      6.104
REMARK  6 active torsions:
REMARK  status: ('A' for Active; 'I' for Inactive)
REMARK    1  A    between atoms: N2_14  and  C9_15
REMARK    2  A    between atoms: C9_15  and  C10_16
REMARK    3  A    between atoms: C10_16  and  C11_17
REMARK    4  A    between atoms: C11_17  and  C12_18
REMARK    5  A    between atoms: C12_18  and  N3_19
REMARK    6  A    between atoms: N3_19  and  C13_22
ROOT
HETATM    1  C9  UNL     1      -2.634   4.832  14.091  1.00  0.00     0.127 C
ENDROOT
BRANCH   1   2
HETATM    2  N2  UNL     1      -2.542   4.374  12.734  1.00  0.00    -0.342 N
HETATM    3  C1  UNL     1      -2.986   5.084  11.598  1.00  0.00     0.225 C
HETATM    4  O1  UNL     1      -3.505   6.214  11.581  1.00  0.00    -0.273 OA
HETATM    5  C2  UNL     1      -2.728   4.243  10.404  1.00  0.00     0.085 C
HETATM    6  C3  UNL     1      -3.938   3.380  10.215  1.00  0.00     0.062 C
HETATM    7  C8  UNL     1      -1.536   3.396  10.878  1.00  0.00     0.046 C
HETATM    8  C4  UNL     1      -3.941   2.222  11.186  1.00  0.00     0.013 A
HETATM    9  S1  UNL     1      -4.971   0.859  11.361  1.00  0.00    -0.032 SA
HETATM   10  C6  UNL     1      -3.043   2.040  12.194  1.00  0.00     0.049 A
HETATM   11  C5  UNL     1      -4.205   0.143  12.695  1.00  0.00     0.288 A
HETATM   12  O2  UNL     1      -4.498  -0.940  13.331  1.00  0.00    -0.260 OA
HETATM   13  N1  UNL     1      -3.195   0.972  12.953  1.00  0.00    -0.318 N
ATOM     14  H1  UNL     1      -2.553   0.785  13.722  1.00  0.00     0.169 HD
HETATM   15  C7  UNL     1      -1.966   3.116  12.302  1.00  0.00     0.139 C
ENDBRANCH   1   2
BRANCH   1  16
HETATM   16  C10 UNL     1      -3.809   4.233  14.856  1.00  0.00     0.022 C
BRANCH  16  17
HETATM   17  C11 UNL     1      -5.125   4.454  14.204  1.00  0.00     0.029 C
BRANCH  17  18
HETATM   18  C12 UNL     1      -6.254   4.011  15.071  1.00  0.00     0.233 C
BRANCH  18  19
HETATM   19  N3  UNL     1      -6.444   2.601  15.007  1.00  0.00    -0.070 N
ATOM     20  H32 UNL     1      -7.406   2.360  14.768  1.00  0.00     0.277 HD
ATOM     21  H31 UNL     1      -5.978   2.194  14.195  1.00  0.00     0.277 HD
BRANCH  19  22
HETATM   22  C13 UNL     1      -6.014   1.956  16.265  1.00  0.00     0.190 C
HETATM   23  C14 UNL     1      -5.202   0.720  16.010  1.00  0.00     0.034 C
HETATM   24  C15 UNL     1      -5.084  -0.203  17.168  1.00  0.00     0.007 C
HETATM   25  C16 UNL     1      -6.071  -0.039  18.256  1.00  0.00    -0.014 C
HETATM   26  C17 UNL     1      -7.379  -0.689  17.775  1.00  0.00     0.005 C
HETATM   27  C20 UNL     1      -6.549   1.360  18.518  1.00  0.00     0.011 C
HETATM   28  C18 UNL     1      -7.860   0.336  16.778  1.00  0.00     0.007 C
HETATM   29  C19 UNL     1      -7.199   1.663  17.156  1.00  0.00     0.016 C
ENDBRANCH  19  22
ENDBRANCH  18  19
ENDBRANCH  17  18
ENDBRANCH  16  17
ENDBRANCH   1  16
TORSDOF 6
ENDMDL