MODEL 4
REMARK VINA RESULT: -7.539304535      2.425      6.264
REMARK  7 active torsions:
REMARK  status: ('A' for Active; 'I' for Inactive)
REMARK    1  A    between atoms: C1_2  and  C2_3
REMARK       I    between atoms: C1_2  and  N1_10
REMARK    2  A    between atoms: C2_3  and  C3_4
REMARK    3  A    between atoms: C3_4  and  C4_5
REMARK    4  A    between atoms: N1_10  and  C8_12
REMARK    5  A    between atoms: C8_12  and  C9_13
REMARK    6  A    between atoms: C8_12  and  C13_23
REMARK       I    between atoms: C9_13  and  N2_15
REMARK    7  A    between atoms: N2_15  and  C10_17
ROOT
HETATM    1  C8  UNL     1      -5.323   2.824  14.605  1.00  0.00     0.181 C
ENDROOT
BRANCH   1   2
HETATM    2  N1  UNL     1      -6.230   3.903  14.228  1.00  0.00    -0.347 N
HETATM    3  C1  UNL     1      -5.740   5.184  13.870  1.00  0.00     0.218 C
HETATM    4  O1  UNL     1      -4.515   5.378  13.880  1.00  0.00    -0.274 OA
ATOM      5  H1  UNL     1      -7.236   3.733  14.221  1.00  0.00     0.163 HD
BRANCH   3   6
HETATM    6  C2  UNL     1      -6.679   6.244  13.497  1.00  0.00     0.103 C
BRANCH   6   7
HETATM    7  C3  UNL     1      -6.264   6.925  12.248  1.00  0.00     0.016 C
BRANCH   7   8
HETATM    8  C4  UNL     1      -7.307   7.688  11.514  1.00  0.00     0.012 C
HETATM    9  C5  UNL     1      -6.840   9.099  11.224  1.00  0.00     0.033 C
HETATM   10  C6  UNL     1      -7.029   9.202   9.727  1.00  0.00     0.168 C
HETATM   11  O2  UNL     1      -6.666   7.933   9.278  1.00  0.00    -0.391 OA
HETATM   12  C7  UNL     1      -7.367   7.094  10.106  1.00  0.00     0.172 C
ENDBRANCH   7   8
ENDBRANCH   6   7
ENDBRANCH   3   6
ENDBRANCH   1   2
BRANCH   1  13
HETATM   13  C9  UNL     1      -4.903   2.100  13.415  1.00  0.00     0.246 C
HETATM   14  O3  UNL     1      -5.685   2.006  12.438  1.00  0.00    -0.271 OA
HETATM   15  N2  UNL     1      -3.634   1.474  13.271  1.00  0.00    -0.305 N
ATOM     16  H2  UNL     1      -2.782   1.910  13.623  1.00  0.00     0.171 HD
BRANCH  15  17
HETATM   17  C10 UNL     1      -3.609   0.304  12.659  1.00  0.00     0.150 A
HETATM   18  N3  UNL     1      -4.422  -0.732  12.861  1.00  0.00    -0.346 N
HETATM   19  C11 UNL     1      -4.240  -1.814  12.157  1.00  0.00     0.097 A
ATOM     20  H3  UNL     1      -5.171  -0.680  13.552  1.00  0.00     0.167 HD
HETATM   21  C12 UNL     1      -3.219  -1.822  11.245  1.00  0.00     0.070 A
HETATM   22  S1  UNL     1      -2.557  -0.262  11.441  1.00  0.00    -0.064 SA
ENDBRANCH  15  17
ENDBRANCH   1  13
BRANCH   1  23
HETATM   23  C13 UNL     1      -5.919   1.972  15.687  1.00  0.00     0.018 C
HETATM   24  C14 UNL     1      -4.759   1.453  16.539  1.00  0.00     0.007 C
HETATM   25  C15 UNL     1      -5.347   0.325  17.385  1.00  0.00     0.000 C
HETATM   26  C16 UNL     1      -6.321   1.001  18.350  1.00  0.00     0.000 C
HETATM   27  C17 UNL     1      -7.436   1.648  17.554  1.00  0.00     0.000 C
HETATM   28  C18 UNL     1      -6.861   2.683  16.590  1.00  0.00     0.007 C
ENDBRANCH   1  23
TORSDOF 7
ENDMDL