MODEL 4
REMARK VINA RESULT: -6.135323844      1.593      2.324
REMARK  8 active torsions:
REMARK  status: ('A' for Active; 'I' for Inactive)
REMARK    1  A    between atoms: N1_2  and  C2_4
REMARK    2  A    between atoms: C2_4  and  N2_6
REMARK    3  A    between atoms: C3_7  and  C4_8
REMARK       I    between atoms: C4_8  and  N3_10
REMARK    4  A    between atoms: N3_10  and  C5_12
REMARK    5  A    between atoms: C5_12  and  C6_13
REMARK    6  A    between atoms: C6_13  and  C7_14
REMARK    7  A    between atoms: C7_14  and  C8_15
REMARK    8  A    between atoms: C8_15  and  C9_16
ROOT
HETATM    1  N2  UNL     1      -2.846   4.329  11.404  1.00  0.00    -0.307 N
HETATM    2  C3  UNL     1      -2.334   2.993  11.261  1.00  0.00     0.152 C
HETATM    3  C13 UNL     1      -1.411   3.201  10.140  1.00  0.00     0.184 C
HETATM    4  O2  UNL     1      -1.177   2.661   9.104  1.00  0.00    -0.290 OA
HETATM    5  C14 UNL     1      -0.668   4.449  10.616  1.00  0.00     0.116 C
HETATM    6  C15 UNL     1      -1.629   5.074  11.673  1.00  0.00     0.040 C
HETATM    7  C16 UNL     1      -1.171   4.759  13.073  1.00  0.00     0.039 C
HETATM    8  C17 UNL     1      -1.695   6.553  11.424  1.00  0.00     0.039 C
ENDROOT
BRANCH   2   9
HETATM    9  C4  UNL     1      -3.141   1.832  11.358  1.00  0.00     0.272 C
HETATM   10  O1  UNL     1      -4.097   1.693  10.510  1.00  0.00    -0.266 OA
HETATM   11  N3  UNL     1      -3.004   0.776  12.302  1.00  0.00    -0.356 N
ATOM     12  H3  UNL     1      -2.264   0.820  13.003  1.00  0.00     0.162 HD
BRANCH  11  13
HETATM   13  C5  UNL     1      -3.887  -0.342  12.283  1.00  0.00     0.123 C
BRANCH  13  14
HETATM   14  C6  UNL     1      -4.401  -0.810  13.594  1.00  0.00     0.020 C
BRANCH  14  15
HETATM   15  C7  UNL     1      -4.513   0.411  14.518  1.00  0.00     0.003 C
BRANCH  15  16
HETATM   16  C8  UNL     1      -4.661  -0.050  15.960  1.00  0.00     0.015 C
BRANCH  16  17
HETATM   17  C9  UNL     1      -4.874   1.116  16.879  1.00  0.00     0.047 C
HETATM   18  C10 UNL     1      -5.808   0.729  18.005  1.00  0.00     0.016 C
HETATM   19  C11 UNL     1      -7.205   0.698  17.456  1.00  0.00     0.011 C
HETATM   20  C12 UNL     1      -7.487   2.082  16.883  1.00  0.00     0.074 C
HETATM   21  S2  UNL     1      -5.881   2.413  16.051  1.00  0.00    -0.164 SA
ENDBRANCH  16  17
ENDBRANCH  15  16
ENDBRANCH  14  15
ENDBRANCH  13  14
ENDBRANCH  11  13
ENDBRANCH   2   9
BRANCH   1  22
HETATM   22  C2  UNL     1      -4.113   4.853  11.214  1.00  0.00     0.175 C
HETATM   23  S1  UNL     1      -4.934   5.518  12.502  1.00  0.00    -0.041 SA
BRANCH  22  24
HETATM   24  N1  UNL     1      -4.847   4.858  10.008  1.00  0.00    -0.371 N
HETATM   25  C1  UNL     1      -4.222   5.040   8.694  1.00  0.00     0.148 C
ATOM     26  H1  UNL     1      -5.858   4.728  10.052  1.00  0.00     0.161 HD
ENDBRANCH  22  24
ENDBRANCH   1  22
TORSDOF 8
ENDMDL