MODEL 4
REMARK VINA RESULT: -6.979958144      2.208      5.178
REMARK  6 active torsions:
REMARK  status: ('A' for Active; 'I' for Inactive)
REMARK    1  A    between atoms: C6_10  and  S1_11
REMARK    2  A    between atoms: S1_11  and  C7_12
REMARK    3  A    between atoms: C7_12  and  C8_13
REMARK       I    between atoms: C8_13  and  N3_15
REMARK    4  A    between atoms: N3_15  and  C10_17
REMARK    5  A    between atoms: C10_17  and  C11_18
REMARK       I    between atoms: C11_18  and  N4_20
REMARK    6  A    between atoms: N4_20  and  C12_22
ROOT
HETATM    1  C8  UNL     1      -0.662   5.363  11.811  1.00  0.00     0.229 C
HETATM    2  O1  UNL     1       0.459   5.023  12.262  1.00  0.00    -0.273 OA
HETATM    3  N3  UNL     1      -1.385   4.453  11.008  1.00  0.00    -0.347 N
HETATM    4  C9  UNL     1      -2.668   4.828  10.487  1.00  0.00     0.153 C
ENDROOT
BRANCH   1   5
HETATM    5  C7  UNL     1      -1.163   6.717  12.156  1.00  0.00     0.183 C
BRANCH   5   6
HETATM    6  S1  UNL     1      -1.786   6.798  13.843  1.00  0.00    -0.101 SA
BRANCH   6   7
HETATM    7  C6  UNL     1      -2.408   5.242  14.401  1.00  0.00     0.093 A
HETATM    8  N2  UNL     1      -1.826   4.254  15.098  1.00  0.00    -0.293 N
HETATM    9  N1  UNL     1      -2.685   3.250  15.297  1.00  0.00    -0.303 N
ATOM     10  H2  UNL     1      -0.861   4.266  15.430  1.00  0.00     0.187 HD
HETATM   11  C5  UNL     1      -3.855   3.544  14.740  1.00  0.00     0.035 A
ATOM     12  H1  UNL     1      -2.475   2.389  15.801  1.00  0.00     0.186 HD
HETATM   13  C4  UNL     1      -5.193   2.922  14.581  1.00  0.00     0.059 C
HETATM   14  C18 UNL     1      -3.697   4.806  14.168  1.00  0.00     0.001 A
HETATM   15  C3  UNL     1      -6.268   3.901  14.992  1.00  0.00     0.010 C
HETATM   16  C2  UNL     1      -6.023   5.290  14.496  1.00  0.00    -0.014 C
HETATM   17  C1  UNL     1      -7.298   5.918  13.993  1.00  0.00     0.010 C
HETATM   18  C19 UNL     1      -4.902   5.347  13.475  1.00  0.00     0.047 C
ENDBRANCH   6   7
ENDBRANCH   5   6
ENDBRANCH   1   5
BRANCH   3  19
HETATM   19  C10 UNL     1      -0.855   3.145  10.697  1.00  0.00     0.227 C
BRANCH  19  20
HETATM   20  C11 UNL     1      -1.369   2.095  11.581  1.00  0.00     0.235 C
HETATM   21  O2  UNL     1      -1.157   2.207  12.816  1.00  0.00    -0.272 OA
HETATM   22  N4  UNL     1      -2.091   0.961  11.136  1.00  0.00    -0.355 N
ATOM     23  H4  UNL     1      -2.273   0.852  10.139  1.00  0.00     0.162 HD
BRANCH  22  24
HETATM   24  C12 UNL     1      -2.582  -0.055  12.058  1.00  0.00     0.084 C
HETATM   25  C13 UNL     1      -2.679  -1.380  11.390  1.00  0.00     0.025 C
HETATM   26  C14 UNL     1      -4.085  -1.891  11.477  1.00  0.00     0.002 C
HETATM   27  C15 UNL     1      -5.008  -0.835  10.897  1.00  0.00     0.000 C
HETATM   28  C16 UNL     1      -5.023   0.407  11.766  1.00  0.00     0.002 C
HETATM   29  C17 UNL     1      -3.858   0.404  12.735  1.00  0.00     0.025 C
ENDBRANCH  22  24
ENDBRANCH  19  20
ENDBRANCH   3  19
TORSDOF 6
ENDMDL