MODEL 2
REMARK VINA RESULT: -6.996594386      2.887      3.991
REMARK  8 active torsions:
REMARK  status: ('A' for Active; 'I' for Inactive)
REMARK    1  A    between atoms: C2_2  and  C4_4
REMARK    2  A    between atoms: C4_4  and  N1_5
REMARK    3  A    between atoms: C4_4  and  C12_17
REMARK       I    between atoms: N1_5  and  C5_7
REMARK       I    between atoms: C5_7  and  N2_9
REMARK    4  A    between atoms: N2_9  and  C6_11
REMARK    5  A    between atoms: C12_17  and  O3_19
REMARK    6  A    between atoms: O3_19  and  C13_20
REMARK    7  A    between atoms: C13_20  and  C14_22
REMARK    8  A    between atoms: C14_22  and  N3_24
ROOT
HETATM    1  C4  UNL     1      -3.587   1.126  12.435  1.00  0.00     0.190 C
ENDROOT
BRANCH   1   2
HETATM    2  C2  UNL     1      -3.935  -0.297  12.035  1.00  0.00     0.010 C
HETATM    3  C1  UNL     1      -2.722  -1.011  11.486  1.00  0.00     0.012 C
HETATM    4  C3  UNL     1      -4.390  -1.041  13.277  1.00  0.00     0.012 C
ENDBRANCH   1   2
BRANCH   1   5
HETATM    5  N1  UNL     1      -2.657   1.623  11.442  1.00  0.00    -0.329 N
HETATM    6  C5  UNL     1      -1.603   2.496  11.788  1.00  0.00     0.317 C
HETATM    7  O1  UNL     1      -1.466   2.855  12.985  1.00  0.00    -0.247 OA
HETATM    8  N2  UNL     1      -0.695   2.980  10.814  1.00  0.00    -0.339 N
ATOM      9  H2  UNL     1      -0.812   2.686   9.844  1.00  0.00     0.164 HD
ATOM     10  H1  UNL     1      -2.767   1.335  10.470  1.00  0.00     0.165 HD
BRANCH   8  11
HETATM   11  C6  UNL     1       0.384   3.870  11.144  1.00  0.00     0.086 C
HETATM   12  C7  UNL     1       1.625   3.596  10.354  1.00  0.00     0.025 C
HETATM   13  C8  UNL     1       1.804   4.473   9.160  1.00  0.00     0.002 C
HETATM   14  C9  UNL     1       0.529   5.017   8.598  1.00  0.00     0.000 C
HETATM   15  C10 UNL     1      -0.334   5.709   9.601  1.00  0.00     0.002 C
HETATM   16  C11 UNL     1       0.004   5.331  11.012  1.00  0.00     0.025 C
ENDBRANCH   8  11
ENDBRANCH   1   5
BRANCH   1  17
HETATM   17  C12 UNL     1      -4.802   1.974  12.520  1.00  0.00     0.289 C
HETATM   18  O2  UNL     1      -5.837   1.734  11.834  1.00  0.00    -0.262 OA
BRANCH  17  19
HETATM   19  O3  UNL     1      -4.822   3.053  13.361  1.00  0.00    -0.242 OA
BRANCH  19  20
HETATM   20  C13 UNL     1      -5.725   3.173  14.397  1.00  0.00     0.299 C
HETATM   21  O4  UNL     1      -6.851   3.657  14.157  1.00  0.00    -0.262 OA
BRANCH  20  22
HETATM   22  C14 UNL     1      -5.331   2.728  15.747  1.00  0.00     0.318 C
HETATM   23  C15 UNL     1      -3.859   2.493  15.802  1.00  0.00     0.054 C
BRANCH  22  24
HETATM   24  N3  UNL     1      -6.125   1.623  16.223  1.00  0.00     0.102 N
HETATM   25  C16 UNL     1      -7.018   1.968  17.278  1.00  0.00     0.273 C
HETATM   26  C17 UNL     1      -6.574   1.169  18.502  1.00  0.00     0.032 C
HETATM   27  C18 UNL     1      -6.061  -0.100  17.849  1.00  0.00     0.032 C
HETATM   28  C19 UNL     1      -5.362   0.478  16.611  1.00  0.00     0.273 C
ENDBRANCH  22  24
ENDBRANCH  20  22
ENDBRANCH  19  20
ENDBRANCH  17  19
ENDBRANCH   1  17
TORSDOF 8
ENDMDL