MODEL 3
REMARK VINA RESULT: -6.869302524      1.670      2.340
REMARK  6 active torsions:
REMARK  status: ('A' for Active; 'I' for Inactive)
REMARK    1  A    between atoms: N1_8  and  C8_9
REMARK    2  A    between atoms: C8_9  and  C9_10
REMARK    3  A    between atoms: C9_10  and  C10_11
REMARK    4  A    between atoms: C10_11  and  N2_12
REMARK       I    between atoms: N2_12  and  C11_14
REMARK    5  A    between atoms: C11_14  and  C12_16
REMARK    6  A    between atoms: C14_19  and  C15_20
ROOT
HETATM    1  N2  UNL     1      -2.120   2.803  11.225  1.00  0.00    -0.359 N
ATOM      2  H2  UNL     1      -2.649   3.668  11.115  1.00  0.00     0.162 HD
HETATM    3  C11 UNL     1      -2.712   1.716  11.933  1.00  0.00     0.242 C
HETATM    4  O1  UNL     1      -2.022   0.671  12.041  1.00  0.00    -0.271 OA
ENDROOT
BRANCH   3   5
HETATM    5  C12 UNL     1      -4.050   1.759  12.524  1.00  0.00     0.200 C
HETATM    6  C13 UNL     1      -4.348   0.569  13.404  1.00  0.00     0.203 C
HETATM    7  O2  UNL     1      -4.241   0.822  14.757  1.00  0.00    -0.373 OA
HETATM    8  C14 UNL     1      -5.235   1.777  15.097  1.00  0.00     0.217 C
HETATM    9  C20 UNL     1      -4.676   3.064  14.588  1.00  0.00     0.247 C
HETATM   10  O3  UNL     1      -4.568   4.107  15.270  1.00  0.00    -0.271 OA
HETATM   11  N3  UNL     1      -4.254   3.020  13.208  1.00  0.00    -0.344 N
ATOM     12  H3  UNL     1      -4.097   3.893  12.705  1.00  0.00     0.163 HD
BRANCH   8  13
HETATM   13  C15 UNL     1      -5.429   1.789  16.598  1.00  0.00     0.024 C
HETATM   14  C16 UNL     1      -5.174   0.444  17.200  1.00  0.00     0.007 C
HETATM   15  C17 UNL     1      -6.444   0.081  17.968  1.00  0.00     0.000 C
HETATM   16  C18 UNL     1      -7.518   0.816  17.214  1.00  0.00     0.000 C
HETATM   17  C19 UNL     1      -6.865   2.133  16.883  1.00  0.00     0.007 C
ENDBRANCH   8  13
ENDBRANCH   3   5
BRANCH   1  18
HETATM   18  C10 UNL     1      -0.797   2.715  10.659  1.00  0.00     0.124 C
BRANCH  18  19
HETATM   19  C9  UNL     1       0.184   3.295  11.644  1.00  0.00     0.050 C
BRANCH  19  20
HETATM   20  C8  UNL     1       1.262   4.005  10.910  1.00  0.00     0.275 C
BRANCH  20  21
HETATM   21  N1  UNL     1       1.389   5.405  11.263  1.00  0.00     0.097 N
HETATM   22  C2  UNL     1       0.115   6.022  11.581  1.00  0.00     0.219 C
HETATM   23  C1  UNL     1      -0.480   6.783  10.442  1.00  0.00     0.043 C
HETATM   24  C3  UNL     1       0.239   6.996  12.753  1.00  0.00     0.035 C
HETATM   25  C4  UNL     1       1.484   7.821  12.547  1.00  0.00     0.004 C
HETATM   26  C5  UNL     1       2.667   6.923  12.725  1.00  0.00     0.035 C
HETATM   27  C6  UNL     1       2.184   5.487  12.476  1.00  0.00     0.219 C
HETATM   28  C7  UNL     1       3.430   4.643  12.411  1.00  0.00     0.043 C
ENDBRANCH  20  21
ENDBRANCH  19  20
ENDBRANCH  18  19
ENDBRANCH   1  18
TORSDOF 6
ENDMDL