MODEL 4
REMARK VINA RESULT: -6.966079993      2.963      5.329
REMARK  10 active torsions:
REMARK  status: ('A' for Active; 'I' for Inactive)
REMARK    1  A    between atoms: C2_2  and  C5_5
REMARK    2  A    between atoms: C5_5  and  C6_6
REMARK       I    between atoms: C6_6  and  N1_8
REMARK    3  A    between atoms: N1_8  and  C7_10
REMARK    4  A    between atoms: C7_10  and  C8_11
REMARK    5  A    between atoms: C7_10  and  C17_26
REMARK    6  A    between atoms: C8_11  and  O2_12
REMARK    7  A    between atoms: C8_11  and  N2_14
REMARK    8  A    between atoms: N3_17  and  C11_18
REMARK    9  A    between atoms: C11_18  and  C12_19
REMARK   10  A    between atoms: C12_19  and  O3_20
ROOT
HETATM    1  C8  UNL     1      -3.991   4.128  12.163  1.00  0.00     0.137 C
ENDROOT
BRANCH   1   2
HETATM    2  C7  UNL     1      -4.607   3.446  13.253  1.00  0.00     0.166 C
BRANCH   2   3
HETATM    3  N1  UNL     1      -4.231   2.004  13.237  1.00  0.00    -0.348 N
HETATM    4  C6  UNL     1      -4.848   1.035  12.463  1.00  0.00     0.218 C
HETATM    5  O1  UNL     1      -5.795   1.335  11.706  1.00  0.00    -0.274 OA
ATOM      6  H1  UNL     1      -3.463   1.709  13.840  1.00  0.00     0.163 HD
BRANCH   4   7
HETATM    7  C5  UNL     1      -4.400  -0.370  12.520  1.00  0.00     0.111 C
BRANCH   7   8
HETATM    8  C2  UNL     1      -3.394  -0.702  11.445  1.00  0.00    -0.043 C
HETATM    9  C1  UNL     1      -2.207   0.236  11.476  1.00  0.00     0.015 C
HETATM   10  C3  UNL     1      -2.898  -2.108  11.717  1.00  0.00     0.015 C
HETATM   11  C4  UNL     1      -4.057  -0.715  10.086  1.00  0.00     0.015 C
ENDBRANCH   7   8
ENDBRANCH   4   7
ENDBRANCH   2   3
BRANCH   2  12
HETATM   12  C17 UNL     1      -4.610   3.918  14.656  1.00  0.00    -0.023 C
HETATM   13  C18 UNL     1      -3.381   3.615  15.456  1.00  0.00     0.017 C
HETATM   14  C19 UNL     1      -5.694   3.006  15.414  1.00  0.00     0.017 C
HETATM   15  C20 UNL     1      -5.175   5.288  14.877  1.00  0.00     0.017 C
ENDBRANCH   2  12
ENDBRANCH   1   2
BRANCH   1  16
HETATM   16  O2  UNL     1      -4.689   3.944  11.013  1.00  0.00    -0.348 OA
ATOM     17  H2  UNL     1      -4.281   4.402  10.288  1.00  0.00     0.219 HD
ENDBRANCH   1  16
BRANCH   1  18
HETATM   18  N2  UNL     1      -2.882   4.932  11.904  1.00  0.00    -0.361 N
HETATM   19  C9  UNL     1      -1.893   4.418  10.866  1.00  0.00     0.144 C
HETATM   20  C10 UNL     1      -0.658   5.254  10.897  1.00  0.00     0.136 C
HETATM   21  N3  UNL     1      -0.142   5.437  12.213  1.00  0.00    -0.406 N
HETATM   22  C15 UNL     1      -1.056   5.994  13.141  1.00  0.00     0.136 C
HETATM   23  C16 UNL     1      -2.438   6.168  12.442  1.00  0.00     0.144 C
BRANCH  21  24
HETATM   24  C11 UNL     1       1.217   5.812  12.317  1.00  0.00     0.154 C
BRANCH  24  25
HETATM   25  C12 UNL     1       2.223   4.699  12.162  1.00  0.00     0.074 A
HETATM   26  C13 UNL     1       3.530   4.945  12.915  1.00  0.00     0.042 A
HETATM   27  C14 UNL     1       3.526   5.013  11.451  1.00  0.00     0.042 A
BRANCH  25  28
HETATM   28  O3  UNL     1       1.797   3.383  12.282  1.00  0.00    -0.388 OA
ATOM     29  H3  UNL     1       2.442   2.685  12.273  1.00  0.00     0.210 HD
ENDBRANCH  25  28
ENDBRANCH  24  25
ENDBRANCH  21  24
ENDBRANCH   1  18
TORSDOF 10
ENDMDL