MODEL 3
REMARK VINA RESULT: -6.177842611      1.571      2.098
REMARK  9 active torsions:
REMARK  status: ('A' for Active; 'I' for Inactive)
REMARK    1  A    between atoms: O1_2  and  C2_3
REMARK    2  A    between atoms: C2_3  and  C3_5
REMARK    3  A    between atoms: C9_11  and  N1_12
REMARK    4  A    between atoms: N1_12  and  C10_14
REMARK    5  A    between atoms: C10_14  and  N2_16
REMARK    6  A    between atoms: C11_18  and  C12_19
REMARK    7  A    between atoms: C12_19  and  C13_20
REMARK    8  A    between atoms: C13_20  and  C14_21
REMARK    9  A    between atoms: C14_21  and  N3_22
ROOT
HETATM    1  C3  UNL     1      -3.661   1.962  11.846  1.00  0.00     0.215 C
HETATM    2  C4  UNL     1      -2.645   1.411  10.895  1.00  0.00     0.054 C
HETATM    3  C5  UNL     1      -1.600   2.503  10.700  1.00  0.00    -0.007 C
HETATM    4  C6  UNL     1      -0.941   2.691  12.049  1.00  0.00     0.037 C
HETATM    5  C7  UNL     1      -2.015   3.106  13.021  1.00  0.00     0.190 C
HETATM    6  C8  UNL     1      -2.496   4.487  12.570  1.00  0.00     0.064 C
HETATM    7  C9  UNL     1      -3.168   4.333  11.230  1.00  0.00     0.037 C
HETATM    8  C17 UNL     1      -2.205   3.774  10.204  1.00  0.00     0.036 C
HETATM    9  C18 UNL     1      -4.243   3.269  11.413  1.00  0.00     0.081 C
HETATM   10  N4  UNL     1      -3.063   2.149  13.153  1.00  0.00    -0.052 N
ATOM     11  H41 UNL     1      -2.749   1.274  13.573  1.00  0.00     0.279 HD
ATOM     12  H42 UNL     1      -3.745   2.406  13.867  1.00  0.00     0.279 HD
ENDROOT
BRANCH   7  13
HETATM   13  N1  UNL     1      -3.823   5.505  10.748  1.00  0.00    -0.358 N
ATOM     14  H1  UNL     1      -3.915   5.599   9.736  1.00  0.00     0.162 HD
BRANCH  13  15
HETATM   15  C10 UNL     1      -4.358   6.552  11.535  1.00  0.00     0.172 C
HETATM   16  S1  UNL     1      -3.340   7.781  12.018  1.00  0.00    -0.041 SA
BRANCH  15  17
HETATM   17  N2  UNL     1      -5.695   6.541  11.923  1.00  0.00    -0.347 N
HETATM   18  C11 UNL     1      -6.192   6.118  12.981  1.00  0.00     0.063 C
ATOM     19  H2  UNL     1      -6.354   6.932  11.251  1.00  0.00     0.167 HD
BRANCH  18  20
HETATM   20  C12 UNL     1      -5.430   5.515  14.095  1.00  0.00     0.046 C
BRANCH  20  21
HETATM   21  C13 UNL     1      -6.417   4.668  14.878  1.00  0.00     0.035 C
BRANCH  21  22
HETATM   22  C14 UNL     1      -6.103   3.210  14.838  1.00  0.00     0.271 C
BRANCH  22  23
HETATM   23  N3  UNL     1      -5.820   2.627  16.117  1.00  0.00     0.080 N
HETATM   24  C15 UNL     1      -6.983   2.346  16.899  1.00  0.00     0.309 C
HETATM   25  C16 UNL     1      -5.133   1.348  15.875  1.00  0.00     0.309 C
ENDBRANCH  22  23
ENDBRANCH  21  22
ENDBRANCH  20  21
ENDBRANCH  18  20
ENDBRANCH  15  17
ENDBRANCH  13  15
ENDBRANCH   7  13
BRANCH   1  26
HETATM   26  C2  UNL     1      -4.793   0.979  11.917  1.00  0.00     0.295 C
HETATM   27  O2  UNL     1      -5.850   1.149  11.257  1.00  0.00    -0.262 OA
BRANCH  26  28
HETATM   28  O1  UNL     1      -4.697  -0.136  12.712  1.00  0.00    -0.325 OA
HETATM   29  C1  UNL     1      -4.453  -1.449  12.244  1.00  0.00     0.213 C
ENDBRANCH  26  28
ENDBRANCH   1  26
TORSDOF 9
ENDMDL