MODEL 4
REMARK VINA RESULT: -7.194830370      3.438      4.912
REMARK  6 active torsions:
REMARK  status: ('A' for Active; 'I' for Inactive)
REMARK    1  A    between atoms: C2_2  and  C4_4
REMARK    2  A    between atoms: C4_4  and  C5_5
REMARK    3  A    between atoms: C6_9  and  C7_10
REMARK    4  A    between atoms: C7_10  and  C8_11
REMARK       I    between atoms: C8_11  and  N2_13
REMARK    5  A    between atoms: N2_13  and  C10_15
REMARK    6  A    between atoms: C17_22  and  N3_23
ROOT
HETATM    1  C5  UNL     1      -5.189   6.159  11.342  1.00  0.00     0.220 C
HETATM    2  N1  UNL     1      -4.545   5.506  12.500  1.00  0.00    -0.064 N
ATOM      3  H11 UNL     1      -5.146   5.376  13.314  1.00  0.00     0.278 HD
ATOM      4  H12 UNL     1      -3.850   6.072  12.987  1.00  0.00     0.278 HD
HETATM    5  C6  UNL     1      -4.050   4.312  11.918  1.00  0.00     0.197 C
HETATM    6  C16 UNL     1      -3.285   4.794  10.718  1.00  0.00     0.071 C
HETATM    7  C17 UNL     1      -4.193   5.928  10.262  1.00  0.00     0.255 C
ENDROOT
BRANCH   5   8
HETATM    8  C7  UNL     1      -3.344   3.378  12.810  1.00  0.00     0.136 C
BRANCH   8   9
HETATM    9  C8  UNL     1      -3.828   3.294  14.183  1.00  0.00     0.221 C
HETATM   10  O1  UNL     1      -3.721   4.208  15.043  1.00  0.00    -0.273 OA
HETATM   11  N2  UNL     1      -4.476   2.106  14.617  1.00  0.00    -0.352 N
HETATM   12  C9  UNL     1      -4.641   0.996  13.681  1.00  0.00     0.153 C
BRANCH  11  13
HETATM   13  C10 UNL     1      -4.991   1.930  15.965  1.00  0.00     0.086 C
HETATM   14  C11 UNL     1      -6.360   2.525  16.007  1.00  0.00     0.025 C
HETATM   15  C12 UNL     1      -7.041   2.197  17.325  1.00  0.00     0.002 C
HETATM   16  C13 UNL     1      -7.200   0.672  17.334  1.00  0.00     0.000 C
HETATM   17  C14 UNL     1      -5.809   0.111  17.501  1.00  0.00     0.002 C
HETATM   18  C15 UNL     1      -4.911   0.496  16.372  1.00  0.00     0.025 C
ENDBRANCH  11  13
ENDBRANCH   8   9
ENDBRANCH   5   8
BRANCH   1  19
HETATM   19  C4  UNL     1      -5.398   7.630  11.643  1.00  0.00     0.039 C
BRANCH  19  20
HETATM   20  C2  UNL     1      -6.758   8.070  11.151  1.00  0.00    -0.021 C
HETATM   21  C1  UNL     1      -6.734   9.599  11.001  1.00  0.00     0.009 C
HETATM   22  C3  UNL     1      -7.867   7.744  12.137  1.00  0.00     0.009 C
ENDBRANCH  19  20
ENDBRANCH   1  19
BRANCH   7  23
HETATM   23  N3  UNL     1      -4.696   5.746   8.949  1.00  0.00     0.098 N
HETATM   24  C18 UNL     1      -4.671   7.043   8.276  1.00  0.00     0.292 C
HETATM   25  C19 UNL     1      -5.478   6.922   7.015  1.00  0.00     0.144 C
HETATM   26  N4  UNL     1      -5.647   5.603   6.532  1.00  0.00    -0.418 N
HETATM   27  C20 UNL     1      -4.553   4.709   6.761  1.00  0.00     0.144 C
ATOM     28  H4  UNL     1      -6.495   5.307   6.050  1.00  0.00     0.153 HD
HETATM   29  C21 UNL     1      -3.931   4.844   8.122  1.00  0.00     0.292 C
ENDBRANCH   7  23
TORSDOF 6
ENDMDL