MODEL 1
REMARK VINA RESULT: -6.741087254      0.000      0.000
REMARK  10 active torsions:
REMARK  status: ('A' for Active; 'I' for Inactive)
REMARK    1  A    between atoms: C2_4  and  C3_5
REMARK    2  A    between atoms: C2_4  and  N4_24
REMARK    3  A    between atoms: C3_5  and  N2_6
REMARK    4  A    between atoms: N2_6  and  C4_7
REMARK    5  A    between atoms: N2_6  and  C10_18
REMARK    6  A    between atoms: C4_7  and  N3_9
REMARK    7  A    between atoms: N3_9  and  C5_11
REMARK    8  A    between atoms: C5_11  and  C8_14
REMARK    9  A    between atoms: C8_14  and  O2_16
REMARK   10  A    between atoms: N4_24  and  C16_26
ROOT
HETATM    1  N2  UNL     1      -4.517   2.655  14.662  1.00  0.00    -0.347 N
ENDROOT
BRANCH   1   2
HETATM    2  C3  UNL     1      -5.015   2.006  13.417  1.00  0.00     0.201 C
BRANCH   2   3
HETATM    3  C2  UNL     1      -3.917   1.075  12.876  1.00  0.00     0.091 C
HETATM    4  N1  UNL     1      -2.957   1.634  12.345  1.00  0.00    -0.383 N
HETATM    5  C1  UNL     1      -1.752   1.361  11.720  1.00  0.00     0.147 C
ATOM      6  H1  UNL     1      -3.099   2.644  12.377  1.00  0.00     0.160 HD
BRANCH   3   7
HETATM    7  N4  UNL     1      -4.206  -0.290  13.069  1.00  0.00    -0.375 N
ATOM      8  H4  UNL     1      -4.260  -0.585  14.043  1.00  0.00     0.161 HD
BRANCH   7   9
HETATM    9  C16 UNL     1      -4.435  -1.320  12.116  1.00  0.00     0.074 C
HETATM   10  C17 UNL     1      -3.289  -2.255  11.859  1.00  0.00     0.031 C
HETATM   11  C18 UNL     1      -4.989  -0.767  10.804  1.00  0.00     0.031 C
ENDBRANCH   7   9
ENDBRANCH   3   7
ENDBRANCH   2   3
ENDBRANCH   1   2
BRANCH   1  12
HETATM   12  C4  UNL     1      -3.540   3.624  14.487  1.00  0.00     0.171 C
HETATM   13  S1  UNL     1      -2.189   3.643  15.437  1.00  0.00    -0.041 SA
BRANCH  12  14
HETATM   14  N3  UNL     1      -3.653   4.639  13.467  1.00  0.00    -0.349 N
ATOM     15  H3  UNL     1      -3.253   4.495  12.540  1.00  0.00     0.163 HD
BRANCH  14  16
HETATM   16  C5  UNL     1      -4.343   5.855  13.789  1.00  0.00     0.113 C
HETATM   17  C6  UNL     1      -3.714   7.096  13.234  1.00  0.00     0.049 C
HETATM   18  C7  UNL     1      -4.550   5.911  15.297  1.00  0.00     0.049 C
BRANCH  16  19
HETATM   19  C8  UNL     1      -5.739   5.814  13.213  1.00  0.00     0.286 C
HETATM   20  O1  UNL     1      -6.674   5.370  13.923  1.00  0.00    -0.262 OA
BRANCH  19  21
HETATM   21  O2  UNL     1      -6.022   6.250  11.934  1.00  0.00    -0.325 OA
HETATM   22  C9  UNL     1      -7.005   7.238  11.659  1.00  0.00     0.213 C
ENDBRANCH  19  21
ENDBRANCH  16  19
ENDBRANCH  14  16
ENDBRANCH  12  14
ENDBRANCH   1  12
BRANCH   1  23
HETATM   23  C10 UNL     1      -5.101   2.174  15.835  1.00  0.00     0.087 C
HETATM   24  C11 UNL     1      -5.077   0.735  16.120  1.00  0.00     0.025 C
HETATM   25  C12 UNL     1      -5.557   0.428  17.549  1.00  0.00     0.002 C
HETATM   26  C13 UNL     1      -6.714   1.199  18.006  1.00  0.00     0.000 C
HETATM   27  C14 UNL     1      -7.018   2.474  17.301  1.00  0.00     0.002 C
HETATM   28  C15 UNL     1      -6.619   2.533  15.878  1.00  0.00     0.025 C
ENDBRANCH   1  23
TORSDOF 10
ENDMDL