MODEL 2
REMARK VINA RESULT: -7.217092274      2.682      5.397
REMARK  8 active torsions:
REMARK  status: ('A' for Active; 'I' for Inactive)
REMARK    1  A    between atoms: N1_2  and  C3_4
REMARK    2  A    between atoms: C3_4  and  C4_5
REMARK    3  A    between atoms: C4_5  and  C5_6
REMARK    4  A    between atoms: C5_6  and  C6_7
REMARK    5  A    between atoms: C10_11  and  O1_12
REMARK    6  A    between atoms: N2_19  and  C16_20
REMARK    7  A    between atoms: C16_20  and  C17_21
REMARK    8  A    between atoms: C21_26  and  O3_27
ROOT
HETATM    1  C6  UNL     1      -4.782   2.425  14.859  1.00  0.00     0.027 C
HETATM    2  C7  UNL     1      -4.244   1.875  13.601  1.00  0.00    -0.043 A
HETATM    3  C8  UNL     1      -4.051   0.696  12.831  1.00  0.00     0.011 A
HETATM    4  C9  UNL     1      -3.167   0.703  11.730  1.00  0.00     0.040 A
HETATM    5  C10 UNL     1      -2.442   1.864  11.353  1.00  0.00     0.099 A
HETATM    6  C11 UNL     1      -2.632   3.001  12.098  1.00  0.00     0.112 A
HETATM    7  C12 UNL     1      -3.501   2.815  13.080  1.00  0.00    -0.003 A
HETATM    8  C13 UNL     1      -4.008   4.100  13.708  1.00  0.00     0.035 A
HETATM    9  C14 UNL     1      -4.492   5.250  13.038  1.00  0.00     0.048 C
HETATM   10  C15 UNL     1      -3.830   6.562  13.507  1.00  0.00     0.277 C
HETATM   11  N2  UNL     1      -2.446   6.330  13.243  1.00  0.00     0.121 N
HETATM   12  C20 UNL     1      -2.043   4.956  13.451  1.00  0.00     0.401 C
HETATM   13  O2  UNL     1      -2.140   4.296  12.126  1.00  0.00    -0.310 OA
HETATM   14  C21 UNL     1      -2.745   4.273  14.561  1.00  0.00     0.130 A
HETATM   15  C22 UNL     1      -4.030   3.820  15.053  1.00  0.00     0.050 A
ENDROOT
BRANCH   1  16
HETATM   16  C5  UNL     1      -4.420   1.708  16.101  1.00  0.00     0.011 C
BRANCH  16  17
HETATM   17  C4  UNL     1      -4.785   0.279  16.234  1.00  0.00     0.031 C
BRANCH  17  18
HETATM   18  C3  UNL     1      -5.473   0.127  17.594  1.00  0.00     0.271 C
BRANCH  18  19
HETATM   19  N1  UNL     1      -6.384   1.160  17.883  1.00  0.00     0.080 N
HETATM   20  C1  UNL     1      -7.694   0.887  17.359  1.00  0.00     0.309 C
HETATM   21  C2  UNL     1      -6.455   1.707  19.174  1.00  0.00     0.309 C
ENDBRANCH  18  19
ENDBRANCH  17  18
ENDBRANCH  16  17
ENDBRANCH   1  16
BRANCH  14  22
HETATM   22  O3  UNL     1      -1.904   3.207  14.914  1.00  0.00    -0.384 OA
ATOM     23  H3  UNL     1      -1.168   2.927  14.382  1.00  0.00     0.210 HD
ENDBRANCH  14  22
BRANCH   5  24
HETATM   24  O1  UNL     1      -1.580   1.930  10.309  1.00  0.00    -0.358 OA
ATOM     25  H1  UNL     1      -1.809   2.227   9.436  1.00  0.00     0.217 HD
ENDBRANCH   5  24
BRANCH  11  26
HETATM   26  C16 UNL     1      -1.625   7.294  13.871  1.00  0.00     0.280 C
BRANCH  26  27
HETATM   27  C17 UNL     1      -2.312   8.070  14.945  1.00  0.00     0.014 A
HETATM   28  C18 UNL     1      -1.580   8.083  16.299  1.00  0.00     0.007 A
HETATM   29  C19 UNL     1      -1.610   9.327  15.484  1.00  0.00     0.007 A
ENDBRANCH  26  27
ENDBRANCH  11  26
TORSDOF 8
ENDMDL