MODEL 1
REMARK VINA RESULT: -9.436535525      0.000      0.000
REMARK  7 active torsions:
REMARK  status: ('A' for Active; 'I' for Inactive)
REMARK    1  A    between atoms: N2_5  and  C3_6
REMARK    2  A    between atoms: C6_9  and  C7_10
REMARK       I    between atoms: C7_10  and  N3_12
REMARK    3  A    between atoms: C10_16  and  C11_17
REMARK    4  A    between atoms: C19_28  and  C20_29
REMARK    5  A    between atoms: C23_35  and  C24_36
REMARK    6  A    between atoms: C25_37  and  C26_38
REMARK    7  A    between atoms: C27_41  and  N9_42
ROOT
HETATM    1  C1  UNL     1     -13.365  27.496  27.332  1.00  0.00     0.070 C
HETATM    2  C2  UNL     1     -12.575  27.939  28.500  1.00  0.00     0.035 A
HETATM    3  N1  UNL     1     -11.659  28.892  28.533  1.00  0.00    -0.298 N
ATOM      4  H1  UNL     1     -11.381  29.447  27.723  1.00  0.00     0.187 HD
HETATM    5  N2  UNL     1     -11.147  29.037  29.742  1.00  0.00    -0.267 N
HETATM    6  C18 UNL     1     -11.753  28.144  30.528  1.00  0.00     0.131 A
HETATM    7  C19 UNL     1     -12.681  27.412  29.780  1.00  0.00     0.020 A
ENDROOT
BRANCH   5   8
HETATM    8  C3  UNL     1     -10.122  29.952  30.110  1.00  0.00     0.056 A
HETATM    9  C4  UNL     1     -10.460  31.302  30.344  1.00  0.00     0.032 A
HETATM   10  C5  UNL     1      -9.489  32.197  30.720  1.00  0.00     0.019 A
HETATM   11  C6  UNL     1      -8.168  31.814  30.878  1.00  0.00     0.032 A
HETATM   12  C16 UNL     1      -7.815  30.526  30.660  1.00  0.00     0.019 A
HETATM   13  C17 UNL     1      -8.816  29.627  30.279  1.00  0.00     0.032 A
BRANCH  11  14
HETATM   14  C7  UNL     1      -7.168  32.811  31.284  1.00  0.00     0.257 C
HETATM   15  O1  UNL     1      -6.238  33.052  30.487  1.00  0.00    -0.267 OA
HETATM   16  N3  UNL     1      -7.269  33.471  32.541  1.00  0.00    -0.308 N
HETATM   17  C8  UNL     1      -6.299  33.591  33.365  1.00  0.00     0.126 A
ATOM     18  H3  UNL     1      -8.170  33.872  32.800  1.00  0.00     0.170 HD
HETATM   19  C9  UNL     1      -4.984  33.173  33.319  1.00  0.00     0.077 A
HETATM   20  N5  UNL     1      -6.439  34.211  34.569  1.00  0.00    -0.281 N
HETATM   21  C10 UNL     1      -4.353  33.554  34.514  1.00  0.00     0.037 A
HETATM   22  N4  UNL     1      -5.302  34.180  35.219  1.00  0.00    -0.301 N
ATOM     23  H4  UNL     1      -5.159  34.582  36.145  1.00  0.00     0.187 HD
HETATM   24  C15 UNL     1      -7.668  34.816  35.052  1.00  0.00     0.179 C
BRANCH  21  25
HETATM   25  C11 UNL     1      -2.936  33.300  34.878  1.00  0.00    -0.007 C
HETATM   26  C12 UNL     1      -2.671  31.839  34.572  1.00  0.00     0.021 C
HETATM   27  C13 UNL     1      -2.683  33.598  36.339  1.00  0.00     0.021 C
HETATM   28  C14 UNL     1      -1.991  34.162  34.067  1.00  0.00     0.021 C
ENDBRANCH  21  25
ENDBRANCH  11  14
ENDBRANCH   5   8
BRANCH   7  29
HETATM   29  C20 UNL     1     -13.529  26.325  30.240  1.00  0.00     0.031 A
HETATM   30  C21 UNL     1     -14.529  26.457  31.188  1.00  0.00     0.122 A
HETATM   31  N6  UNL     1     -15.054  25.226  31.303  1.00  0.00    -0.308 N
HETATM   32  N7  UNL     1     -14.433  24.369  30.489  1.00  0.00    -0.288 N
ATOM     33  H6  UNL     1     -15.822  24.980  31.928  1.00  0.00     0.186 HD
HETATM   34  C22 UNL     1     -14.764  22.970  30.387  1.00  0.00     0.178 C
HETATM   35  C23 UNL     1     -13.463  25.031  29.798  1.00  0.00     0.116 A
BRANCH  35  36
HETATM   36  C24 UNL     1     -12.596  24.411  28.850  1.00  0.00    -0.038 C
HETATM   37  C25 UNL     1     -11.876  23.862  28.060  1.00  0.00    -0.021 C
BRANCH  37  38
HETATM   38  C26 UNL     1     -11.021  23.168  27.118  1.00  0.00     0.191 A
HETATM   39  N8  UNL     1     -10.146  23.755  26.298  1.00  0.00    -0.166 N
HETATM   40  C27 UNL     1      -9.544  22.795  25.570  1.00  0.00     0.692 A
ATOM     41  H8  UNL     1      -9.964  24.756  26.235  1.00  0.00     0.186 HD
HETATM   42  N10 UNL     1     -10.040  21.590  25.930  1.00  0.00    -0.130 N
HETATM   43  N11 UNL     1     -10.942  21.844  26.877  1.00  0.00    -0.263 N
ATOM     44  H10 UNL     1      -9.779  20.678  25.554  1.00  0.00     0.205 HD
ATOM     45  H11 UNL     1     -11.496  21.134  27.354  1.00  0.00     0.189 HD
BRANCH  40  46
HETATM   46  N9  UNL     1      -8.645  23.014  24.670  1.00  0.00    -0.233 N
ATOM     47  H92 UNL     1      -7.697  23.350  24.834  1.00  0.00     0.174 HD
ATOM     48  H91 UNL     1      -8.779  22.866  23.670  1.00  0.00     0.174 HD
ENDBRANCH  40  46
ENDBRANCH  37  38
ENDBRANCH  35  36
ENDBRANCH   7  29
TORSDOF 7
ENDMDL