MODEL 3
REMARK VINA RESULT: -10.641063824      4.242      6.914
REMARK  4 active torsions:
REMARK  status: ('A' for Active; 'I' for Inactive)
REMARK    1  A    between atoms: C5_5  and  S1_6
REMARK    2  A    between atoms: S1_6  and  N1_9
REMARK    3  A    between atoms: N1_9  and  C6_11
REMARK    4  A    between atoms: C14_21  and  N3_22
ROOT
HETATM    1  C6  UNL     1     -10.427  26.379  27.390  1.00  0.00     0.043 A
HETATM    2  C7  UNL     1     -10.298  26.524  28.745  1.00  0.00     0.031 A
HETATM    3  C8  UNL     1     -10.178  27.809  29.270  1.00  0.00     0.017 A
HETATM    4  C9  UNL     1     -10.183  28.949  28.478  1.00  0.00     0.003 A
HETATM    5  C10 UNL     1     -10.309  28.817  27.118  1.00  0.00     0.007 A
HETATM    6  C11 UNL     1     -10.429  27.544  26.597  1.00  0.00     0.044 A
HETATM    7  C12 UNL     1     -10.300  29.920  26.133  1.00  0.00     0.059 A
HETATM    8  C13 UNL     1      -9.841  29.644  24.835  1.00  0.00     0.120 A
HETATM    9  N2  UNL     1      -9.821  30.654  23.948  1.00  0.00    -0.348 N
ATOM     10  H2  UNL     1      -9.490  30.457  23.004  1.00  0.00     0.167 HD
HETATM   11  C14 UNL     1     -10.209  31.896  24.229  1.00  0.00     0.131 A
HETATM   12  C15 UNL     1     -10.667  32.165  25.536  1.00  0.00     0.146 A
HETATM   13  N4  UNL     1     -10.671  31.158  26.360  1.00  0.00    -0.347 N
ATOM     14  H4  UNL     1     -11.005  31.356  27.304  1.00  0.00     0.166 HD
HETATM   15  C16 UNL     1     -11.077  33.529  25.892  1.00  0.00     0.285 C
HETATM   16  O3  UNL     1     -11.649  34.155  24.915  1.00  0.00    -0.265 OA
HETATM   17  N5  UNL     1     -10.936  34.217  27.100  1.00  0.00    -0.243 N
ATOM     18  H5  UNL     1     -10.396  35.080  27.041  1.00  0.00     0.182 HD
HETATM   19  S2  UNL     1     -11.527  33.841  28.667  1.00  0.00     0.281 S
HETATM   20  O4  UNL     1     -13.008  33.532  28.683  1.00  0.00    -0.199 OA
HETATM   21  O5  UNL     1     -11.370  34.996  29.633  1.00  0.00    -0.199 OA
HETATM   22  C17 UNL     1     -10.643  32.481  29.398  1.00  0.00     0.149 A
HETATM   23  C18 UNL     1      -9.877  32.630  30.524  1.00  0.00     0.044 A
HETATM   24  C19 UNL     1      -9.167  31.542  31.048  1.00  0.00     0.005 A
HETATM   25  C20 UNL     1      -9.287  30.346  30.371  1.00  0.00     0.030 A
HETATM   26  C21 UNL     1     -10.073  30.217  29.225  1.00  0.00     0.044 A
HETATM   27  N6  UNL     1     -10.686  31.308  28.841  1.00  0.00    -0.345 N
ATOM     28  H6  UNL     1     -11.266  31.228  28.006  1.00  0.00     0.167 HD
ENDROOT
BRANCH   1  29
HETATM   29  N1  UNL     1     -10.524  25.109  26.790  1.00  0.00    -0.281 N
ATOM     30  H1  UNL     1      -9.656  24.674  26.477  1.00  0.00     0.179 HD
BRANCH  29  31
HETATM   31  S1  UNL     1     -11.957  24.243  26.544  1.00  0.00     0.263 S
HETATM   32  O1  UNL     1     -11.586  22.858  26.058  1.00  0.00    -0.200 OA
HETATM   33  O2  UNL     1     -12.746  24.940  25.429  1.00  0.00    -0.200 OA
BRANCH  31  34
HETATM   34  C5  UNL     1     -12.992  24.081  27.898  1.00  0.00     0.079 A
HETATM   35  C4  UNL     1     -12.981  22.933  28.667  1.00  0.00     0.026 A
HETATM   36  C3  UNL     1     -13.857  22.844  29.721  1.00  0.00     0.008 A
HETATM   37  C2  UNL     1     -14.729  23.862  30.020  1.00  0.00    -0.062 A
HETATM   38  C1  UNL     1     -15.635  23.665  31.182  1.00  0.00     0.048 C
HETATM   39  C23 UNL     1     -14.755  25.014  29.266  1.00  0.00     0.008 A
HETATM   40  C22 UNL     1     -13.880  25.108  28.210  1.00  0.00     0.026 A
ENDBRANCH  31  34
ENDBRANCH  29  31
ENDBRANCH   1  29
BRANCH  11  41
HETATM   41  N3  UNL     1     -10.178  32.857  23.341  1.00  0.00    -0.383 N
ATOM     42  H32 UNL     1      -9.951  32.642  22.371  1.00  0.00     0.157 HD
ATOM     43  H31 UNL     1     -10.374  33.828  23.581  1.00  0.00     0.157 HD
ENDBRANCH  11  41
TORSDOF 4
ENDMDL