MODEL 5
REMARK VINA RESULT: -9.347304864      3.433     11.515
REMARK  6 active torsions:
REMARK  status: ('A' for Active; 'I' for Inactive)
REMARK    1  A    between atoms: C3_3  and  N1_4
REMARK    2  A    between atoms: C6_8  and  N2_9
REMARK    3  A    between atoms: N2_9  and  C7_11
REMARK    4  A    between atoms: N3_15  and  C11_16
REMARK    5  A    between atoms: C14_19  and  C15_20
REMARK       I    between atoms: C15_20  and  N4_22
REMARK    6  A    between atoms: N4_22  and  C16_24
ROOT
HETATM    1  C1  UNL     1      -8.666  21.463  25.779  1.00  0.00     0.113 C
HETATM    2  C2  UNL     1      -9.665  22.480  26.133  1.00  0.00    -0.087 C
HETATM    3  C3  UNL     1     -10.476  23.335  26.420  1.00  0.00     0.021 C
ENDROOT
BRANCH   3   4
HETATM    4  N1  UNL     1     -11.392  24.335  26.753  1.00  0.00    -0.218 N
HETATM    5  C4  UNL     1     -12.715  24.169  26.529  1.00  0.00     0.263 A
HETATM    6  O1  UNL     1     -13.140  23.086  26.006  1.00  0.00    -0.267 OA
HETATM    7  C5  UNL     1     -13.637  25.142  26.849  1.00  0.00     0.107 A
HETATM    8  C6  UNL     1     -13.180  26.310  27.412  1.00  0.00     0.070 A
HETATM    9  C25 UNL     1     -11.816  26.503  27.654  1.00  0.00     0.105 A
HETATM   10  N9  UNL     1     -11.393  27.652  28.206  1.00  0.00    -0.360 N
HETATM   11  C28 UNL     1     -10.942  25.474  27.303  1.00  0.00     0.152 A
HETATM   12  C26 UNL     1     -10.067  27.803  28.423  1.00  0.00     0.105 A
ATOM     13  H9  UNL     1     -12.052  28.389  28.454  1.00  0.00     0.165 HD
HETATM   14  C27 UNL     1      -9.172  26.831  28.100  1.00  0.00     0.107 A
HETATM   15  N10 UNL     1      -9.635  25.696  27.550  1.00  0.00    -0.348 N
ATOM     16  H10 UNL     1      -8.966  24.966  27.309  1.00  0.00     0.167 HD
BRANCH   8  17
HETATM   17  N2  UNL     1     -14.103  27.313  27.746  1.00  0.00    -0.339 N
ATOM     18  H2  UNL     1     -14.249  28.095  27.106  1.00  0.00     0.167 HD
BRANCH  17  19
HETATM   19  C7  UNL     1     -14.774  27.262  28.854  1.00  0.00     0.122 A
HETATM   20  C8  UNL     1     -15.270  28.356  29.543  1.00  0.00     0.076 A
HETATM   21  C9  UNL     1     -15.914  27.851  30.660  1.00  0.00     0.034 A
HETATM   22  C10 UNL     1     -16.607  28.641  31.708  1.00  0.00     0.070 C
HETATM   23  N3  UNL     1     -15.807  26.499  30.638  1.00  0.00    -0.259 N
HETATM   24  N8  UNL     1     -15.133  26.192  29.567  1.00  0.00    -0.278 N
ATOM     25  H8  UNL     1     -14.904  25.234  29.300  1.00  0.00     0.189 HD
BRANCH  23  26
HETATM   26  C11 UNL     1     -16.360  25.643  31.646  1.00  0.00     0.058 A
HETATM   27  C12 UNL     1     -15.525  24.990  32.549  1.00  0.00     0.032 A
HETATM   28  C13 UNL     1     -16.075  24.168  33.514  1.00  0.00     0.021 A
HETATM   29  C14 UNL     1     -17.438  23.964  33.622  1.00  0.00     0.056 A
HETATM   30  C23 UNL     1     -18.258  24.599  32.740  1.00  0.00     0.064 A
HETATM   31  N7  UNL     1     -19.689  24.455  32.764  1.00  0.00    -0.101 NA
HETATM   32  C24 UNL     1     -17.717  25.430  31.763  1.00  0.00     0.059 A
BRANCH  29  33
HETATM   33  C15 UNL     1     -17.994  23.095  34.643  1.00  0.00     0.259 C
HETATM   34  O2  UNL     1     -18.175  23.601  35.802  1.00  0.00    -0.267 OA
HETATM   35  N4  UNL     1     -18.344  21.770  34.470  1.00  0.00    -0.307 N
ATOM     36  H4  UNL     1     -17.570  21.117  34.592  1.00  0.00     0.170 HD
BRANCH  35  37
HETATM   37  C16 UNL     1     -19.449  21.214  34.188  1.00  0.00     0.135 A
HETATM   38  N5  UNL     1     -20.584  21.930  33.925  1.00  0.00    -0.284 N
HETATM   39  N6  UNL     1     -21.556  21.094  33.670  1.00  0.00    -0.298 N
ATOM     40  H5  UNL     1     -20.660  22.947  33.927  1.00  0.00     0.188 HD
HETATM   41  C17 UNL     1     -21.141  19.822  33.745  1.00  0.00     0.062 A
ATOM     42  H6  UNL     1     -22.510  21.376  33.443  1.00  0.00     0.187 HD
HETATM   43  C18 UNL     1     -21.796  18.599  33.560  1.00  0.00     0.032 A
HETATM   44  C22 UNL     1     -19.807  19.893  34.074  1.00  0.00     0.037 A
HETATM   45  C19 UNL     1     -21.074  17.421  33.712  1.00  0.00     0.002 A
HETATM   46  C20 UNL     1     -19.740  17.520  34.040  1.00  0.00     0.001 A
HETATM   47  C21 UNL     1     -19.077  18.716  34.228  1.00  0.00     0.017 A
ENDBRANCH  35  37
ENDBRANCH  29  33
ENDBRANCH  23  26
ENDBRANCH  17  19
ENDBRANCH   8  17
ENDBRANCH   3   4
TORSDOF 6
ENDMDL