MODEL 4
REMARK VINA RESULT: -7.601750508      0.805      1.149
REMARK  10 active torsions:
REMARK  status: ('A' for Active; 'I' for Inactive)
REMARK    1  A    between atoms: N2_11  and  C8_12
REMARK    2  A    between atoms: C11_21  and  C12_22
REMARK    3  A    between atoms: C13_23  and  C14_24
REMARK    4  A    between atoms: C17_27  and  C18_28
REMARK    5  A    between atoms: C18_28  and  C19_29
REMARK    6  A    between atoms: C19_29  and  N6_30
REMARK    7  A    between atoms: N6_30  and  O2_32
REMARK    8  A    between atoms: C22_38  and  N8_39
REMARK    9  A    between atoms: N8_39  and  C23_41
REMARK   10  A    between atoms: C23_41  and  C24_42
ROOT
HETATM    1  C8  UNL     1     -14.358  28.827  29.017  1.00  0.00     0.135 A
HETATM    2  N3  UNL     1     -15.684  29.066  28.695  1.00  0.00    -0.337 N
ATOM      3  H3  UNL     1     -16.354  28.298  28.673  1.00  0.00     0.168 HD
HETATM    4  C9  UNL     1     -16.074  30.301  28.416  1.00  0.00     0.183 A
HETATM    5  N4  UNL     1     -15.215  31.333  28.439  1.00  0.00    -0.338 N
ATOM      6  H4  UNL     1     -15.553  32.270  28.220  1.00  0.00     0.168 HD
HETATM    7  C10 UNL     1     -13.900  31.152  28.750  1.00  0.00     0.126 A
HETATM    8  N5  UNL     1     -13.065  32.198  28.759  1.00  0.00    -0.320 N
ATOM      9  H5  UNL     1     -13.430  33.124  28.535  1.00  0.00     0.169 HD
HETATM   10  C11 UNL     1     -11.763  32.064  29.055  1.00  0.00     0.165 A
HETATM   11  N7  UNL     1     -11.308  30.853  29.343  1.00  0.00    -0.320 N
ATOM     12  H7  UNL     1     -10.318  30.753  29.566  1.00  0.00     0.169 HD
HETATM   13  C22 UNL     1     -12.091  29.725  29.360  1.00  0.00     0.125 A
HETATM   14  C30 UNL     1     -13.466  29.877  29.045  1.00  0.00     0.097 A
ENDROOT
BRANCH  10  15
HETATM   15  C12 UNL     1     -10.896  33.241  29.084  1.00  0.00    -0.025 C
HETATM   16  C13 UNL     1     -10.169  34.200  29.144  1.00  0.00    -0.059 C
BRANCH  16  17
HETATM   17  C14 UNL     1      -9.295  35.337  29.261  1.00  0.00     0.018 A
HETATM   18  C15 UNL     1      -8.018  35.322  28.711  1.00  0.00     0.022 A
HETATM   19  C16 UNL     1      -7.177  36.411  28.796  1.00  0.00     0.022 A
HETATM   20  C17 UNL     1      -7.563  37.552  29.427  1.00  0.00     0.019 A
HETATM   21  C20 UNL     1      -8.828  37.605  29.992  1.00  0.00     0.022 A
HETATM   22  C21 UNL     1      -9.673  36.497  29.897  1.00  0.00     0.022 A
BRANCH  20  23
HETATM   23  C18 UNL     1      -6.723  38.732  29.519  1.00  0.00    -0.042 C
BRANCH  23  24
HETATM   24  C19 UNL     1      -6.046  39.733  29.578  1.00  0.00     0.037 C
BRANCH  24  25
HETATM   25  N6  UNL     1      -5.292  40.905  29.627  1.00  0.00    -0.226 N
ATOM     26  H6  UNL     1      -5.187  41.457  28.776  1.00  0.00     0.204 HD
BRANCH  25  27
HETATM   27  O2  UNL     1      -4.702  41.328  30.748  1.00  0.00    -0.282 OA
ATOM     28  H2  UNL     1      -5.063  41.152  31.609  1.00  0.00     0.245 HD
ENDBRANCH  25  27
ENDBRANCH  24  25
ENDBRANCH  23  24
ENDBRANCH  20  23
ENDBRANCH  16  17
ENDBRANCH  10  15
BRANCH  13  29
HETATM   29  N8  UNL     1     -11.667  28.624  29.626  1.00  0.00    -0.351 N
ATOM     30  H8  UNL     1     -12.432  28.098  30.049  1.00  0.00     0.166 HD
BRANCH  29  31
HETATM   31  C23 UNL     1     -10.561  27.788  29.588  1.00  0.00     0.101 C
BRANCH  31  32
HETATM   32  C24 UNL     1     -10.354  26.963  28.390  1.00  0.00    -0.021 A
HETATM   33  C25 UNL     1     -10.427  27.492  27.084  1.00  0.00     0.013 A
HETATM   34  C26 UNL     1     -10.228  26.708  25.990  1.00  0.00     0.001 A
HETATM   35  C27 UNL     1      -9.948  25.365  26.148  1.00  0.00     0.000 A
HETATM   36  C28 UNL     1      -9.874  24.839  27.425  1.00  0.00     0.001 A
HETATM   37  C29 UNL     1     -10.071  25.605  28.519  1.00  0.00     0.013 A
ENDBRANCH  31  32
ENDBRANCH  29  31
ENDBRANCH  13  29
BRANCH   1  38
HETATM   38  N2  UNL     1     -14.027  27.489  29.298  1.00  0.00    -0.246 N
HETATM   39  C1  UNL     1     -13.935  26.929  30.489  1.00  0.00     0.333 A
HETATM   40  O1  UNL     1     -14.036  27.463  31.649  1.00  0.00    -0.246 OA
HETATM   41  N1  UNL     1     -13.702  25.614  30.350  1.00  0.00    -0.306 N
HETATM   42  C2  UNL     1     -13.648  25.347  29.038  1.00  0.00     0.063 A
ATOM     43  H1  UNL     1     -13.588  24.940  31.107  1.00  0.00     0.171 HD
HETATM   44  C3  UNL     1     -13.448  24.165  28.328  1.00  0.00     0.032 A
HETATM   45  C7  UNL     1     -13.851  26.530  28.375  1.00  0.00     0.072 A
HETATM   46  C4  UNL     1     -13.450  24.159  26.960  1.00  0.00     0.002 A
HETATM   47  C5  UNL     1     -13.655  25.345  26.318  1.00  0.00     0.002 A
HETATM   48  C6  UNL     1     -13.857  26.543  26.974  1.00  0.00     0.032 A
ENDBRANCH   1  38
TORSDOF 10
ENDMDL