MODEL 5
REMARK VINA RESULT: -7.867982993      3.637      8.722
REMARK  7 active torsions:
REMARK  status: ('A' for Active; 'I' for Inactive)
REMARK    1  A    between atoms: N1_2  and  C2_4
REMARK    2  A    between atoms: C3_7  and  C4_8
REMARK    3  A    between atoms: C7_13  and  C8_14
REMARK    4  A    between atoms: C15_26  and  N7_27
REMARK    5  A    between atoms: N7_27  and  C16_29
REMARK    6  A    between atoms: C16_29  and  N8_31
REMARK    7  A    between atoms: C18_36  and  C19_37
ROOT
HETATM    1  C4  UNL     1     -10.000  28.519  29.249  1.00  0.00     0.105 A
HETATM    2  N3  UNL     1      -8.852  29.216  29.499  1.00  0.00    -0.349 N
ATOM      3  H3  UNL     1      -8.012  28.951  28.985  1.00  0.00     0.166 HD
HETATM    4  C5  UNL     1      -8.757  30.216  30.368  1.00  0.00     0.060 A
HETATM    5  C6  UNL     1      -7.565  30.889  30.584  1.00  0.00     0.044 A
HETATM    6  C7  UNL     1      -7.474  31.921  31.484  1.00  0.00    -0.021 A
HETATM    7  C12 UNL     1      -8.599  32.286  32.180  1.00  0.00     0.014 A
HETATM    8  C13 UNL     1      -9.782  31.615  31.963  1.00  0.00     0.033 A
HETATM    9  C14 UNL     1      -9.883  30.575  31.060  1.00  0.00     0.060 A
HETATM   10  N6  UNL     1     -11.023  29.911  30.835  1.00  0.00    -0.339 N
ATOM     11  H6  UNL     1     -11.857  30.185  31.353  1.00  0.00     0.167 HD
HETATM   12  C15 UNL     1     -11.120  28.876  29.937  1.00  0.00     0.137 A
ENDROOT
BRANCH  12  13
HETATM   13  N7  UNL     1     -12.224  28.316  29.793  1.00  0.00    -0.317 N
ATOM     14  H7  UNL     1     -12.457  27.669  30.547  1.00  0.00     0.170 HD
BRANCH  13  15
HETATM   15  C16 UNL     1     -13.201  28.401  28.806  1.00  0.00     0.179 C
HETATM   16  S1  UNL     1     -14.391  29.523  29.053  1.00  0.00    -0.040 SA
BRANCH  15  17
HETATM   17  N8  UNL     1     -13.278  27.619  27.648  1.00  0.00    -0.313 N
HETATM   18  C17 UNL     1     -13.457  26.336  27.657  1.00  0.00     0.151 A
HETATM   19  N9  UNL     1     -13.603  25.496  28.676  1.00  0.00    -0.331 N
HETATM   20  S2  UNL     1     -13.566  25.282  26.288  1.00  0.00    -0.063 SA
HETATM   21  C18 UNL     1     -13.774  24.220  28.433  1.00  0.00     0.118 A
ATOM     22  H9  UNL     1     -13.582  25.840  29.637  1.00  0.00     0.168 HD
HETATM   23  C20 UNL     1     -13.793  23.818  27.124  1.00  0.00     0.090 A
ATOM     24  H8  UNL     1     -13.187  28.085  26.745  1.00  0.00     0.170 HD
BRANCH  21  25
HETATM   25  C19 UNL     1     -13.948  23.199  29.510  1.00  0.00     0.227 C
HETATM   26  O1  UNL     1     -13.206  22.191  29.597  1.00  0.00    -0.643 OA
HETATM   27  O2  UNL     1     -14.933  23.305  30.472  1.00  0.00    -0.643 OA
ENDBRANCH  21  25
ENDBRANCH  15  17
ENDBRANCH  13  15
ENDBRANCH  12  13
BRANCH   1  28
HETATM   28  C3  UNL     1      -9.949  27.419  28.241  1.00  0.00     0.071 A
HETATM   29  N2  UNL     1     -10.023  26.152  28.624  1.00  0.00    -0.334 N
HETATM   30  C2  UNL     1      -9.975  25.209  27.699  1.00  0.00     0.144 A
ATOM     31  H2  UNL     1     -10.114  25.909  29.610  1.00  0.00     0.168 HD
HETATM   32  S3  UNL     1      -9.827  26.054  26.245  1.00  0.00    -0.064 SA
HETATM   33  C21 UNL     1      -9.831  27.657  26.908  1.00  0.00     0.085 A
BRANCH  30  34
HETATM   34  N1  UNL     1     -10.037  23.911  27.926  1.00  0.00    -0.375 N
HETATM   35  C1  UNL     1     -10.137  23.061  26.737  1.00  0.00     0.148 C
ATOM     36  H1  UNL     1     -10.016  23.523  28.869  1.00  0.00     0.161 HD
ENDBRANCH  30  34
ENDBRANCH   1  28
BRANCH   6  37
HETATM   37  C8  UNL     1      -6.185  32.570  31.644  1.00  0.00     0.008 A
HETATM   38  C9  UNL     1      -5.431  33.097  30.617  1.00  0.00     0.120 A
HETATM   39  N4  UNL     1      -4.325  33.598  31.164  1.00  0.00    -0.310 N
HETATM   40  N5  UNL     1      -4.293  33.443  32.468  1.00  0.00    -0.307 N
ATOM     41  H4  UNL     1      -3.584  34.052  30.630  1.00  0.00     0.186 HD
HETATM   42  C10 UNL     1      -3.242  33.866  33.382  1.00  0.00     0.177 C
HETATM   43  C11 UNL     1      -5.444  32.802  32.787  1.00  0.00     0.123 A
ENDBRANCH   6  37
TORSDOF 7
ENDMDL