MODEL 3
REMARK VINA RESULT: -9.428400669      2.295      5.017
REMARK  6 active torsions:
REMARK  status: ('A' for Active; 'I' for Inactive)
REMARK    1  A    between atoms: N3_8  and  C5_10
REMARK    2  A    between atoms: N4_14  and  N5_15
REMARK    3  A    between atoms: C9_18  and  N6_19
REMARK    4  A    between atoms: N6_19  and  C10_21
REMARK    5  A    between atoms: C13_24  and  S1_25
REMARK    6  A    between atoms: S1_25  and  N7_26
ROOT
HETATM    1  C5  UNL     1     -10.979  28.735  30.171  1.00  0.00     0.080 A
HETATM    2  C6  UNL     1     -10.610  29.572  31.242  1.00  0.00     0.035 A
HETATM    3  C7  UNL     1      -9.576  30.459  31.121  1.00  0.00     0.022 A
HETATM    4  C8  UNL     1      -8.927  30.485  29.908  1.00  0.00     0.118 A
HETATM    5  N4  UNL     1      -9.261  29.703  28.888  1.00  0.00    -0.256 N
HETATM    6  C9  UNL     1     -10.311  28.796  29.000  1.00  0.00     0.153 A
ENDROOT
BRANCH   1   7
HETATM    7  N3  UNL     1     -12.066  27.838  30.359  1.00  0.00    -0.339 N
HETATM    8  C4  UNL     1     -13.236  28.337  30.553  1.00  0.00     0.114 C
HETATM    9  N2  UNL     1     -13.474  29.721  30.579  1.00  0.00    -0.367 N
HETATM   10  C20 UNL     1     -14.284  27.325  30.767  1.00  0.00     0.034 A
HETATM   11  C3  UNL     1     -14.511  30.565  31.042  1.00  0.00     0.135 C
ATOM     12  H2  UNL     1     -12.708  30.249  30.161  1.00  0.00     0.161 HD
HETATM   13  C2  UNL     1     -15.432  31.056  29.942  1.00  0.00     0.298 C
HETATM   14  C26 UNL     1     -15.485  30.009  32.021  1.00  0.00     0.134 C
HETATM   15  N1  UNL     1     -16.506  31.659  30.667  1.00  0.00     0.088 N
HETATM   16  C1  UNL     1     -17.765  31.413  29.972  1.00  0.00     0.310 C
HETATM   17  C27 UNL     1     -16.545  31.097  32.003  1.00  0.00     0.298 C
HETATM   18  N8  UNL     1     -16.117  28.794  31.611  1.00  0.00    -0.381 N
HETATM   19  C25 UNL     1     -15.587  27.522  31.234  1.00  0.00     0.042 A
ATOM     20  H8  UNL     1     -17.135  28.844  31.584  1.00  0.00     0.160 HD
HETATM   21  C24 UNL     1     -16.446  26.474  31.376  1.00  0.00     0.030 A
HETATM   22  C23 UNL     1     -15.993  25.208  31.045  1.00  0.00     0.002 A
HETATM   23  C22 UNL     1     -14.698  25.013  30.581  1.00  0.00     0.001 A
HETATM   24  C21 UNL     1     -13.831  26.073  30.438  1.00  0.00     0.017 A
ATOM     25  H3  UNL     1     -11.923  26.828  30.340  1.00  0.00     0.167 HD
ENDBRANCH   1   7
BRANCH   6  26
HETATM   26  N6  UNL     1     -10.488  28.121  27.977  1.00  0.00    -0.338 N
ATOM     27  H6  UNL     1     -10.776  28.716  27.201  1.00  0.00     0.167 HD
BRANCH  26  28
HETATM   28  C10 UNL     1     -10.413  26.819  27.577  1.00  0.00     0.045 A
HETATM   29  C11 UNL     1      -9.235  26.056  27.576  1.00  0.00     0.032 A
HETATM   30  C12 UNL     1      -9.217  24.744  27.189  1.00  0.00     0.028 A
HETATM   31  C13 UNL     1     -10.358  24.088  26.776  1.00  0.00     0.090 A
HETATM   32  C14 UNL     1     -11.535  24.803  26.763  1.00  0.00    -0.000 A
HETATM   33  C15 UNL     1     -12.710  24.169  26.355  1.00  0.00     0.014 A
HETATM   34  C19 UNL     1     -11.557  26.124  27.151  1.00  0.00     0.002 A
HETATM   35  C16 UNL     1     -13.865  24.905  26.357  1.00  0.00     0.001 A
HETATM   36  C17 UNL     1     -13.888  26.226  26.745  1.00  0.00     0.001 A
HETATM   37  C18 UNL     1     -12.731  26.856  27.150  1.00  0.00     0.014 A
BRANCH  31  38
HETATM   38  S1  UNL     1     -10.306  22.401  26.281  1.00  0.00     0.257 S
HETATM   39  O1  UNL     1     -10.995  21.503  27.264  1.00  0.00    -0.201 OA
HETATM   40  O2  UNL     1     -10.910  22.255  24.929  1.00  0.00    -0.201 OA
BRANCH  38  41
HETATM   41  N7  UNL     1      -8.664  21.864  26.193  1.00  0.00    -0.324 N
ATOM     42  H72 UNL     1      -8.161  21.695  25.321  1.00  0.00     0.169 HD
ATOM     43  H71 UNL     1      -8.287  21.744  27.133  1.00  0.00     0.169 HD
ENDBRANCH  38  41
ENDBRANCH  31  38
ENDBRANCH  26  28
ENDBRANCH   6  26
BRANCH   5  44
HETATM   44  N5  UNL     1      -8.581  29.756  27.674  1.00  0.00    -0.337 N
ATOM     45  H52 UNL     1      -8.159  30.646  27.407  1.00  0.00     0.177 HD
ATOM     46  H51 UNL     1      -8.503  28.939  27.069  1.00  0.00     0.177 HD
ENDBRANCH   5  44
TORSDOF 6
ENDMDL