MODEL 5
REMARK VINA RESULT: -9.963023722      4.438      7.234
REMARK  7 active torsions:
REMARK  status: ('A' for Active; 'I' for Inactive)
REMARK    1  A    between atoms: N1_1  and  C1_4
REMARK    2  A    between atoms: C1_4  and  C2_6
REMARK    3  A    between atoms: C2_6  and  C3_7
REMARK    4  A    between atoms: N4_15  and  C8_16
REMARK    5  A    between atoms: C8_16  and  O1_17
REMARK    6  A    between atoms: N5_19  and  C9_21
REMARK    7  A    between atoms: C11_23  and  C12_24
ROOT
HETATM    1  C3  UNL     1     -11.009  23.852  26.470  1.00  0.00     0.030 A
HETATM    2  N3  UNL     1     -12.251  23.357  26.309  1.00  0.00    -0.329 N
ATOM      3  H3  UNL     1     -12.564  22.691  25.604  1.00  0.00     0.174 HD
HETATM    4  S1  UNL     1     -13.172  24.067  27.514  1.00  0.00    -0.013 SA
HETATM    5  C4  UNL     1     -11.955  25.040  28.239  1.00  0.00     0.044 A
HETATM    6  C5  UNL     1     -10.840  24.731  27.484  1.00  0.00    -0.014 A
HETATM    7  C6  UNL     1      -9.491  25.306  27.868  1.00  0.00     0.062 C
HETATM    8  C7  UNL     1      -9.435  26.795  27.821  1.00  0.00     0.139 C
HETATM    9  N4  UNL     1     -10.203  27.570  28.789  1.00  0.00    -0.298 N
HETATM   10  C16 UNL     1     -11.431  27.171  29.450  1.00  0.00     0.122 A
HETATM   11  N9  UNL     1     -11.878  28.084  30.313  1.00  0.00    -0.341 N
ATOM     12  H9  UNL     1     -11.363  28.952  30.459  1.00  0.00     0.167 HD
HETATM   13  C17 UNL     1     -13.030  27.843  30.999  1.00  0.00     0.044 A
HETATM   14  C18 UNL     1     -13.478  28.850  31.856  1.00  0.00     0.030 A
HETATM   15  C19 UNL     1     -14.659  28.662  32.535  1.00  0.00     0.002 A
HETATM   16  C20 UNL     1     -15.441  27.510  32.404  1.00  0.00     0.001 A
HETATM   17  C21 UNL     1     -14.989  26.523  31.555  1.00  0.00     0.014 A
HETATM   18  C22 UNL     1     -13.790  26.704  30.863  1.00  0.00    -0.009 A
HETATM   19  C23 UNL     1     -13.334  25.740  29.967  1.00  0.00     0.030 A
HETATM   20  C24 UNL     1     -12.168  26.025  29.299  1.00  0.00     0.028 A
ENDROOT
BRANCH   9  21
HETATM   21  C8  UNL     1      -9.762  28.836  29.046  1.00  0.00     0.226 C
HETATM   22  N5  UNL     1      -9.328  30.061  29.294  1.00  0.00    -0.308 N
ATOM     23  H5  UNL     1      -8.932  30.525  28.476  1.00  0.00     0.171 HD
BRANCH  21  24
HETATM   24  O1  UNL     1      -8.263  28.370  28.694  1.00  0.00    -0.332 OA
ATOM     25  H1  UNL     1      -7.930  28.989  29.332  1.00  0.00     0.221 HD
ENDBRANCH  21  24
BRANCH  22  26
HETATM   26  C9  UNL     1      -9.305  30.767  30.329  1.00  0.00     0.108 A
HETATM   27  C10 UNL     1      -8.105  31.382  30.684  1.00  0.00     0.064 A
HETATM   28  C11 UNL     1      -8.013  32.105  31.865  1.00  0.00     0.015 A
HETATM   29  C14 UNL     1      -9.115  32.218  32.662  1.00  0.00     0.032 A
HETATM   30  C15 UNL     1     -10.277  31.606  32.271  1.00  0.00     0.090 A
HETATM   31  N8  UNL     1     -10.360  30.886  31.118  1.00  0.00    -0.352 N
ATOM     32  H8  UNL     1     -11.239  30.437  30.863  1.00  0.00     0.166 HD
BRANCH  28  33
HETATM   33  C12 UNL     1      -6.752  32.762  32.188  1.00  0.00     0.140 A
HETATM   34  N6  UNL     1      -5.638  32.466  31.485  1.00  0.00    -0.285 N
HETATM   35  C13 UNL     1      -4.698  33.359  31.862  1.00  0.00     0.388 A
ATOM     36  H6  UNL     1      -5.527  31.715  30.805  1.00  0.00     0.172 HD
HETATM   37  O2  UNL     1      -3.522  33.454  31.447  1.00  0.00    -0.236 OA
HETATM   38  O3  UNL     1      -5.266  34.162  32.790  1.00  0.00    -0.179 OA
HETATM   39  N7  UNL     1      -6.508  33.789  32.979  1.00  0.00    -0.239 N
ATOM     40  H7  UNL     1      -7.170  34.217  33.626  1.00  0.00     0.196 HD
ENDBRANCH  28  33
ENDBRANCH  22  26
ENDBRANCH   9  21
BRANCH   1  41
HETATM   41  C2  UNL     1      -9.964  23.459  25.438  1.00  0.00     0.130 C
BRANCH  41  42
HETATM   42  C1  UNL     1      -9.472  22.125  25.597  1.00  0.00     0.092 C
HETATM   43  N2  UNL     1     -10.241  21.079  26.188  1.00  0.00    -0.088 NA
BRANCH  42  44
HETATM   44  N1  UNL     1      -8.274  21.789  25.148  1.00  0.00    -0.391 N
ATOM     45  H12 UNL     1      -8.146  20.950  24.580  1.00  0.00     0.157 HD
ATOM     46  H11 UNL     1      -7.501  22.390  25.433  1.00  0.00     0.157 HD
ENDBRANCH  42  44
ENDBRANCH  41  42
ENDBRANCH   1  41
TORSDOF 7
ENDMDL