MODEL 1
REMARK VINA RESULT: -10.826703384      0.000      0.000
REMARK  6 active torsions:
REMARK  status: ('A' for Active; 'I' for Inactive)
REMARK    1  A    between atoms: C3_5  and  C4_6
REMARK    2  A    between atoms: C14_16  and  C15_17
REMARK    3  A    between atoms: C16_22  and  N4_23
REMARK    4  A    between atoms: N4_23  and  C17_25
REMARK    5  A    between atoms: C17_25  and  N5_27
REMARK    6  A    between atoms: N5_27  and  C18_29
ROOT
HETATM    1  C15 UNL     1     -13.898  28.696  30.744  1.00  0.00     0.113 A
HETATM    2  N2  UNL     1     -12.774  27.952  30.910  1.00  0.00    -0.282 N
ATOM      3  H2  UNL     1     -12.854  27.048  31.376  1.00  0.00     0.187 HD
HETATM    4  N3  UNL     1     -11.602  28.337  30.503  1.00  0.00    -0.129 N
ATOM      5  H3  UNL     1     -10.804  27.722  30.664  1.00  0.00     0.205 HD
HETATM    6  C16 UNL     1     -11.387  29.545  29.859  1.00  0.00     0.723 A
HETATM    7  N7  UNL     1     -12.489  30.309  29.679  1.00  0.00    -0.048 N
HETATM    8  C24 UNL     1     -13.711  29.902  30.106  1.00  0.00     0.192 A
HETATM    9  N8  UNL     1     -14.185  31.036  29.621  1.00  0.00    -0.264 N
ATOM     10  H8  UNL     1     -15.117  31.449  29.583  1.00  0.00     0.190 HD
HETATM   11  N9  UNL     1     -13.003  31.431  29.206  1.00  0.00    -0.214 N
HETATM   12  C25 UNL     1     -12.506  32.630  28.509  1.00  0.00     0.201 C
ENDROOT
BRANCH   1  13
HETATM   13  C14 UNL     1     -15.181  28.193  31.209  1.00  0.00     0.081 A
HETATM   14  C3  UNL     1     -15.702  26.999  31.133  1.00  0.00     0.061 A
HETATM   15  C2  UNL     1     -17.049  26.985  31.764  1.00  0.00     0.262 A
HETATM   16  N1  UNL     1     -17.304  28.283  32.235  1.00  0.00    -0.284 N
HETATM   17  O1  UNL     1     -17.836  26.003  31.871  1.00  0.00    -0.267 OA
HETATM   18  C1  UNL     1     -18.511  28.747  32.928  1.00  0.00     0.163 C
HETATM   19  C26 UNL     1     -16.169  29.049  31.906  1.00  0.00     0.263 A
HETATM   20  O2  UNL     1     -16.032  30.267  32.170  1.00  0.00    -0.267 OA
BRANCH  14  21
HETATM   21  C4  UNL     1     -15.216  25.776  30.522  1.00  0.00    -0.008 A
HETATM   22  C5  UNL     1     -15.291  24.610  31.232  1.00  0.00     0.013 A
HETATM   23  C6  UNL     1     -14.856  23.441  30.674  1.00  0.00     0.002 A
HETATM   24  C7  UNL     1     -14.342  23.432  29.398  1.00  0.00     0.012 A
HETATM   25  C8  UNL     1     -14.255  24.587  28.658  1.00  0.00    -0.025 A
HETATM   26  C9  UNL     1     -13.760  24.526  27.382  1.00  0.00     0.012 A
HETATM   27  C13 UNL     1     -14.709  25.765  29.259  1.00  0.00    -0.015 A
HETATM   28  C10 UNL     1     -13.691  25.663  26.612  1.00  0.00     0.001 A
HETATM   29  C11 UNL     1     -14.132  26.855  27.160  1.00  0.00     0.001 A
HETATM   30  C12 UNL     1     -14.629  26.888  28.458  1.00  0.00     0.013 A
ENDBRANCH  14  21
ENDBRANCH   1  13
BRANCH   6  31
HETATM   31  N4  UNL     1     -10.261  29.853  29.490  1.00  0.00    -0.163 N
ATOM     32  H4  UNL     1     -10.288  30.778  29.059  1.00  0.00     0.187 HD
BRANCH  31  33
HETATM   33  C17 UNL     1      -8.996  29.386  29.459  1.00  0.00     0.191 C
HETATM   34  S1  UNL     1      -7.933  30.011  30.615  1.00  0.00    -0.040 SA
BRANCH  33  35
HETATM   35  N5  UNL     1      -8.399  28.412  28.626  1.00  0.00    -0.333 N
ATOM     36  H5  UNL     1      -7.380  28.427  28.585  1.00  0.00     0.168 HD
BRANCH  35  37
HETATM   37  C18 UNL     1      -9.029  27.429  27.850  1.00  0.00     0.034 A
HETATM   38  C19 UNL     1      -9.644  27.691  26.669  1.00  0.00     0.031 A
HETATM   39  C20 UNL     1     -10.244  26.690  25.893  1.00  0.00     0.029 A
HETATM   40  C21 UNL     1     -10.232  25.384  26.307  1.00  0.00     0.046 A
HETATM   41  N6  UNL     1     -10.846  24.396  25.500  1.00  0.00    -0.102 NA
HETATM   42  C22 UNL     1      -9.613  25.108  27.503  1.00  0.00     0.029 A
HETATM   43  C23 UNL     1      -9.030  26.084  28.254  1.00  0.00     0.031 A
ENDBRANCH  35  37
ENDBRANCH  33  35
ENDBRANCH  31  33
ENDBRANCH   6  31
TORSDOF 6
ENDMDL