MODEL 4
REMARK VINA RESULT: -9.322206181      1.835      2.170
REMARK  6 active torsions:
REMARK  status: ('A' for Active; 'I' for Inactive)
REMARK    1  A    between atoms: C3_3  and  O1_4
REMARK    2  A    between atoms: C4_6  and  C5_7
REMARK    3  A    between atoms: C12_21  and  O4_22
REMARK    4  A    between atoms: C15_26  and  S2_27
REMARK    5  A    between atoms: S2_27  and  N3_30
REMARK    6  A    between atoms: N3_30  and  C16_32
ROOT
HETATM    1  C1  UNL     1     -16.218  28.826  30.929  1.00  0.00     0.052 C
HETATM    2  C2  UNL     1     -15.955  27.371  31.021  1.00  0.00    -0.017 A
HETATM    3  C3  UNL     1     -16.348  26.596  32.067  1.00  0.00     0.089 A
HETATM    4  C4  UNL     1     -16.077  25.222  32.101  1.00  0.00     0.076 A
HETATM    5  C12 UNL     1     -15.402  24.607  31.076  1.00  0.00     0.093 A
HETATM    6  C13 UNL     1     -14.986  25.388  29.987  1.00  0.00     0.010 A
HETATM    7  C14 UNL     1     -14.304  24.846  28.924  1.00  0.00     0.040 A
HETATM    8  C15 UNL     1     -13.886  25.595  27.846  1.00  0.00     0.081 A
HETATM    9  C20 UNL     1     -14.172  26.942  27.852  1.00  0.00     0.026 A
HETATM   10  C21 UNL     1     -14.855  27.495  28.913  1.00  0.00     0.014 A
HETATM   11  C22 UNL     1     -15.265  26.733  29.979  1.00  0.00    -0.014 A
ENDROOT
BRANCH   4  12
HETATM   12  C5  UNL     1     -16.535  24.419  33.254  1.00  0.00     0.131 A
HETATM   13  N1  UNL     1     -17.759  23.969  33.134  1.00  0.00    -0.265 N
HETATM   14  S1  UNL     1     -18.499  23.011  34.353  1.00  0.00     0.266 S
ATOM     15  H1  UNL     1     -18.288  24.194  32.292  1.00  0.00     0.180 HD
HETATM   16  O2  UNL     1     -19.667  23.796  34.930  1.00  0.00    -0.200 OA
HETATM   17  O3  UNL     1     -18.954  21.685  33.830  1.00  0.00    -0.200 OA
HETATM   18  C6  UNL     1     -17.332  22.841  35.639  1.00  0.00     0.106 A
HETATM   19  C7  UNL     1     -17.678  22.131  36.731  1.00  0.00     0.027 A
HETATM   20  C11 UNL     1     -16.103  23.419  35.520  1.00  0.00     0.057 A
HETATM   21  C8  UNL     1     -16.797  21.961  37.774  1.00  0.00     0.002 A
HETATM   22  C9  UNL     1     -15.550  22.528  37.692  1.00  0.00     0.002 A
HETATM   23  C10 UNL     1     -15.221  23.247  36.572  1.00  0.00     0.031 A
HETATM   24  N2  UNL     1     -15.729  24.174  34.373  1.00  0.00    -0.340 N
ATOM     25  H2  UNL     1     -14.790  24.573  34.365  1.00  0.00     0.167 HD
ENDBRANCH   4  12
BRANCH   3  26
HETATM   26  O1  UNL     1     -17.024  27.106  33.139  1.00  0.00    -0.359 OA
ATOM     27  H1  UNL     1     -16.928  28.009  33.416  1.00  0.00     0.217 HD
ENDBRANCH   3  26
BRANCH   5  28
HETATM   28  O4  UNL     1     -15.145  23.262  31.120  1.00  0.00    -0.359 OA
ATOM     29  H4  UNL     1     -15.030  22.818  31.951  1.00  0.00     0.217 HD
ENDBRANCH   5  28
BRANCH   8  30
HETATM   30  S2  UNL     1     -13.020  24.915  26.492  1.00  0.00     0.276 S
HETATM   31  O5  UNL     1     -13.976  24.409  25.474  1.00  0.00    -0.200 OA
HETATM   32  O6  UNL     1     -12.170  26.020  25.878  1.00  0.00    -0.200 OA
BRANCH  30  33
HETATM   33  N3  UNL     1     -11.922  23.703  27.030  1.00  0.00    -0.112 N
ATOM     34  H3  UNL     1     -12.103  23.263  27.932  1.00  0.00     0.197 HD
BRANCH  33  35
HETATM   35  C16 UNL     1     -10.900  23.318  26.378  1.00  0.00     0.691 A
HETATM   36  N4  UNL     1     -10.142  24.119  25.599  1.00  0.00    -0.201 N
HETATM   37  C17 UNL     1      -9.069  23.658  24.930  1.00  0.00     0.107 A
ATOM     38  H4  UNL     1     -10.389  25.105  25.515  1.00  0.00     0.183 HD
HETATM   39  C18 UNL     1      -8.713  22.327  25.027  1.00  0.00     0.035 A
HETATM   40  C19 UNL     1      -9.488  21.504  25.825  1.00  0.00     0.107 A
HETATM   41  N5  UNL     1     -10.550  22.018  26.472  1.00  0.00    -0.201 N
ATOM     42  H5  UNL     1     -11.113  21.401  27.057  1.00  0.00     0.183 HD
ENDBRANCH  33  35
ENDBRANCH  30  33
ENDBRANCH   8  30
TORSDOF 6
ENDMDL