MODEL 3
REMARK VINA RESULT: -9.958614219      6.009     10.423
REMARK  5 active torsions:
REMARK  status: ('A' for Active; 'I' for Inactive)
REMARK       I    between atoms: C1_2  and  N1_3
REMARK    1  A    between atoms: C1_2  and  C8_17
REMARK    2  A    between atoms: N1_3  and  C2_5
REMARK    3  A    between atoms: C11_20  and  S2_21
REMARK    4  A    between atoms: S2_21  and  N4_24
REMARK    5  A    between atoms: N4_24  and  C12_26
ROOT
HETATM    1  C8  UNL     1      -9.979  29.201  26.435  1.00  0.00     0.061 A
HETATM    2  C9  UNL     1      -9.558  29.692  25.222  1.00  0.00     0.021 A
HETATM    3  C10 UNL     1      -9.860  30.981  24.809  1.00  0.00     0.029 A
HETATM    4  C11 UNL     1     -10.606  31.744  25.684  1.00  0.00     0.109 A
HETATM    5  C19 UNL     1     -11.044  31.261  26.925  1.00  0.00     0.091 A
HETATM    6  N7  UNL     1     -11.769  31.977  27.795  1.00  0.00    -0.309 N
ATOM      7  H7  UNL     1     -12.099  32.937  27.693  1.00  0.00     0.176 HD
HETATM    8  S3  UNL     1     -12.012  30.938  29.091  1.00  0.00     0.068 SA
HETATM    9  N8  UNL     1     -11.185  29.610  28.497  1.00  0.00    -0.309 N
ATOM     10  H8  UNL     1     -11.053  28.703  28.944  1.00  0.00     0.176 HD
HETATM   11  C20 UNL     1     -10.738  30.009  27.302  1.00  0.00     0.084 A
ENDROOT
BRANCH   1  12
HETATM   12  C1  UNL     1      -9.619  27.838  26.793  1.00  0.00     0.260 C
HETATM   13  O1  UNL     1      -8.812  27.599  27.722  1.00  0.00    -0.267 OA
HETATM   14  N1  UNL     1     -10.161  26.701  26.114  1.00  0.00    -0.303 N
ATOM     15  H1  UNL     1      -9.937  26.496  25.140  1.00  0.00     0.171 HD
BRANCH  14  16
HETATM   16  C2  UNL     1     -10.967  25.932  26.823  1.00  0.00     0.154 A
HETATM   17  N2  UNL     1     -12.195  26.230  27.241  1.00  0.00    -0.334 N
HETATM   18  C3  UNL     1     -12.857  25.332  27.942  1.00  0.00     0.068 A
ATOM     19  H2  UNL     1     -12.615  27.134  27.023  1.00  0.00     0.168 HD
HETATM   20  C4  UNL     1     -14.157  25.426  28.485  1.00  0.00     0.038 A
HETATM   21  C7  UNL     1     -12.235  24.143  28.195  1.00  0.00     0.107 A
HETATM   22  C5  UNL     1     -14.710  24.398  29.194  1.00  0.00     0.077 A
HETATM   23  C6  UNL     1     -14.039  23.218  29.423  1.00  0.00     0.246 A
HETATM   24  O2  UNL     1     -14.538  22.288  30.064  1.00  0.00    -0.268 OA
HETATM   25  N3  UNL     1     -12.812  23.123  28.913  1.00  0.00    -0.316 N
ATOM     26  H3  UNL     1     -12.282  22.265  29.061  1.00  0.00     0.169 HD
HETATM   27  S1  UNL     1     -10.725  24.357  27.420  1.00  0.00    -0.034 SA
ENDBRANCH  14  16
ENDBRANCH   1  12
BRANCH   4  28
HETATM   28  S2  UNL     1     -11.013  33.389  25.199  1.00  0.00     0.279 S
HETATM   29  O3  UNL     1     -12.520  33.541  25.352  1.00  0.00    -0.200 OA
HETATM   30  O4  UNL     1     -10.395  34.318  26.215  1.00  0.00    -0.200 OA
BRANCH  28  31
HETATM   31  N4  UNL     1     -10.485  33.722  23.616  1.00  0.00    -0.112 N
ATOM     32  H4  UNL     1      -9.625  33.272  23.303  1.00  0.00     0.197 HD
BRANCH  31  33
HETATM   33  C12 UNL     1     -11.083  34.492  22.788  1.00  0.00     0.693 A
HETATM   34  N5  UNL     1     -10.588  35.258  21.805  1.00  0.00    -0.189 N
HETATM   35  C13 UNL     1     -11.581  35.907  21.179  1.00  0.00     0.076 A
ATOM     36  H5  UNL     1      -9.599  35.335  21.566  1.00  0.00     0.184 HD
HETATM   37  C14 UNL     1     -11.575  36.796  20.124  1.00  0.00     0.032 A
HETATM   38  C18 UNL     1     -12.747  35.526  21.803  1.00  0.00     0.076 A
HETATM   39  C15 UNL     1     -12.777  37.328  19.667  1.00  0.00     0.002 A
HETATM   40  C16 UNL     1     -13.958  36.962  20.274  1.00  0.00     0.002 A
HETATM   41  C17 UNL     1     -13.919  36.075  21.323  1.00  0.00     0.032 A
HETATM   42  N6  UNL     1     -12.424  34.661  22.784  1.00  0.00    -0.189 N
ATOM     43  H6  UNL     1     -13.082  34.208  23.418  1.00  0.00     0.184 HD
ENDBRANCH  31  33
ENDBRANCH  28  31
ENDBRANCH   4  28
TORSDOF 5
ENDMDL