MODEL 1
REMARK VINA RESULT: -4.989922231      0.000      0.000
REMARK  8 active torsions:
REMARK  status: ('A' for Active; 'I' for Inactive)
REMARK    1  A    between atoms: N1_1  and  C1_5
REMARK    2  A    between atoms: C1_5  and  C2_6
REMARK    3  A    between atoms: C2_6  and  C3_7
REMARK    4  A    between atoms: C3_7  and  C4_8
REMARK    5  A    between atoms: C4_8  and  N2_9
REMARK    6  A    between atoms: N2_9  and  C5_11
REMARK    7  A    between atoms: C6_17  and  N5_18
REMARK    8  A    between atoms: N5_18  and  N6_20
ROOT
HETATM    1  C5  UNL     1      47.574  15.556 -12.857  1.00  0.00     0.171 A
HETATM    2  N3  UNL     1      46.977  14.399 -13.198  1.00  0.00    -0.222 N
ATOM      3  H3  UNL     1      46.958  13.554 -12.628  1.00  0.00     0.198 HD
HETATM    4  O1  UNL     1      46.430  14.528 -14.364  1.00  0.00    -0.153 OA
HETATM    5  N4  UNL     1      46.614  15.706 -14.848  1.00  0.00    -0.221 N
ATOM      6  H4  UNL     1      46.281  16.051 -15.748  1.00  0.00     0.198 HD
HETATM    7  C6  UNL     1      47.340  16.404 -13.926  1.00  0.00     0.188 A
ENDROOT
BRANCH   1   8
HETATM    8  N2  UNL     1      48.223  15.888 -11.824  1.00  0.00    -0.372 N
ATOM      9  H2  UNL     1      49.205  15.612 -11.805  1.00  0.00     0.161 HD
BRANCH   8  10
HETATM   10  C4  UNL     1      47.756  16.599 -10.688  1.00  0.00     0.121 C
BRANCH  10  11
HETATM   11  C3  UNL     1      46.893  15.652  -9.865  1.00  0.00     0.021 C
BRANCH  11  12
HETATM   12  C2  UNL     1      47.766  15.127  -8.745  1.00  0.00     0.029 C
BRANCH  12  13
HETATM   13  C1  UNL     1      47.848  13.630  -8.735  1.00  0.00     0.229 C
BRANCH  13  14
HETATM   14  N1  UNL     1      47.029  13.109  -9.791  1.00  0.00    -0.079 N
ATOM     15  H13 UNL     1      47.581  12.781 -10.584  1.00  0.00     0.274 HD
ATOM     16  H12 UNL     1      46.593  12.221  -9.543  1.00  0.00     0.274 HD
ATOM     17  H11 UNL     1      46.343  13.814 -10.061  1.00  0.00     0.274 HD
ENDBRANCH  13  14
ENDBRANCH  12  13
ENDBRANCH  11  12
ENDBRANCH  10  11
ENDBRANCH   8  10
ENDBRANCH   1   8
BRANCH   7  18
HETATM   18  N5  UNL     1      47.733  17.628 -14.032  1.00  0.00    -0.287 N
ATOM     19  H5  UNL     1      47.420  18.329 -13.362  1.00  0.00     0.188 HD
BRANCH  18  20
HETATM   20  N6  UNL     1      48.588  17.982 -15.070  1.00  0.00    -0.343 N
ATOM     21  H62 UNL     1      48.212  18.472 -15.882  1.00  0.00     0.176 HD
ATOM     22  H61 UNL     1      49.579  17.746 -15.005  1.00  0.00     0.176 HD
ENDBRANCH  18  20
ENDBRANCH   7  18
TORSDOF 8
ENDMDL