MODEL 2
REMARK VINA RESULT: -6.301494474      1.012      2.402
REMARK  4 active torsions:
REMARK  status: ('A' for Active; 'I' for Inactive)
REMARK    1  A    between atoms: C1_2  and  N1_3
REMARK    2  A    between atoms: N1_3  and  N2_5
REMARK    3  A    between atoms: N2_5  and  C2_7
REMARK    4  A    between atoms: C3_8  and  O2_9
ROOT
HETATM    1  C2  UNL     1      47.298  15.106 -12.193  1.00  0.00     0.168 A
HETATM    2  C3  UNL     1      47.476  16.453 -12.058  1.00  0.00     0.178 A
HETATM    3  N3  UNL     1      47.363  17.260 -13.151  1.00  0.00    -0.287 N
ATOM      4  H3  UNL     1      47.496  18.265 -13.047  1.00  0.00     0.172 HD
HETATM    5  C4  UNL     1      47.079  16.756 -14.358  1.00  0.00     0.329 A
HETATM    6  O3  UNL     1      46.983  17.554 -15.341  1.00  0.00    -0.247 OA
HETATM    7  N4  UNL     1      46.903  15.445 -14.497  1.00  0.00    -0.273 N
ATOM      8  H4  UNL     1      46.687  15.066 -15.419  1.00  0.00     0.173 HD
HETATM    9  C5  UNL     1      47.007  14.600 -13.437  1.00  0.00     0.281 A
HETATM   10  O4  UNL     1      46.843  13.351 -13.553  1.00  0.00    -0.265 OA
ENDROOT
BRANCH   1  11
HETATM   11  N2  UNL     1      47.414  14.229 -11.096  1.00  0.00    -0.290 N
ATOM     12  H2  UNL     1      48.159  13.532 -11.090  1.00  0.00     0.187 HD
BRANCH  11  13
HETATM   13  N1  UNL     1      46.520  14.293 -10.004  1.00  0.00    -0.277 N
ATOM     14  H1  UNL     1      45.516  14.193 -10.158  1.00  0.00     0.189 HD
BRANCH  13  15
HETATM   15  C1  UNL     1      47.019  14.497  -8.701  1.00  0.00     0.368 C
HETATM   16  O1  UNL     1      47.468  15.611  -8.372  1.00  0.00    -0.282 OA
ENDBRANCH  13  15
ENDBRANCH  11  13
ENDBRANCH   1  11
BRANCH   2  17
HETATM   17  O2  UNL     1      47.769  17.047 -10.859  1.00  0.00    -0.344 OA
ATOM     18  H2  UNL     1      47.605  17.967 -10.686  1.00  0.00     0.219 HD
ENDBRANCH   2  17
TORSDOF 4
ENDMDL