MODEL 4
REMARK VINA RESULT: -5.025906157      2.917      5.953
REMARK  4 active torsions:
REMARK  status: ('A' for Active; 'I' for Inactive)
REMARK    1  A    between atoms: N1_3  and  N2_4
REMARK    2  A    between atoms: C3_7  and  N3_8
REMARK       I    between atoms: N3_8  and  C4_10
REMARK       I    between atoms: C4_10  and  N4_11
REMARK       I    between atoms: C4_10  and  N5_15
REMARK    3  A    between atoms: N5_15  and  N6_16
REMARK    4  A    between atoms: N7_20  and  O1_21
ROOT
HETATM    1  C1  UNL     1      47.917  15.027 -10.637  1.00  0.00     0.093 C
HETATM    2  C2  UNL     1      47.625  15.483 -12.021  1.00  0.00     0.128 A
HETATM    3  N1  UNL     1      47.783  16.736 -12.478  1.00  0.00    -0.231 N
HETATM    4  C3  UNL     1      47.417  16.783 -13.786  1.00  0.00     0.145 A
HETATM    5  C5  UNL     1      47.031  15.508 -14.103  1.00  0.00     0.174 A
HETATM    6  N7  UNL     1      47.160  14.702 -13.009  1.00  0.00    -0.218 N
ENDROOT
BRANCH   4   7
HETATM    7  N3  UNL     1      47.434  17.915 -14.646  1.00  0.00    -0.332 N
HETATM    8  C4  UNL     1      47.975  17.775 -15.983  1.00  0.00     0.397 C
HETATM    9  N4  UNL     1      47.195  16.791 -16.708  1.00  0.00    -0.042 N
HETATM   10  N5  UNL     1      48.106  19.026 -16.656  1.00  0.00    -0.093 NA
ATOM     11  H43 UNL     1      47.142  15.899 -16.216  1.00  0.00     0.278 HD
ATOM     12  H42 UNL     1      46.200  17.012 -16.713  1.00  0.00     0.278 HD
ATOM     13  H41 UNL     1      47.576  16.692 -17.649  1.00  0.00     0.278 HD
ATOM     14  H3  UNL     1      47.070  18.812 -14.326  1.00  0.00     0.164 HD
BRANCH  10  15
HETATM   15  N6  UNL     1      48.636  18.797 -17.929  1.00  0.00    -0.345 N
ATOM     16  H62 UNL     1      48.797  19.518 -18.633  1.00  0.00     0.172 HD
ATOM     17  H61 UNL     1      48.829  17.800 -18.029  1.00  0.00     0.172 HD
ENDBRANCH  10  15
ENDBRANCH   4   7
BRANCH   3  18
HETATM   18  N2  UNL     1      48.249  17.840 -11.748  1.00  0.00    -0.335 N
ATOM     19  H22 UNL     1      48.454  17.823 -10.749  1.00  0.00     0.177 HD
ATOM     20  H21 UNL     1      48.437  18.774 -12.113  1.00  0.00     0.177 HD
ENDBRANCH   3  18
BRANCH   6  21
HETATM   21  O1  UNL     1      46.878  13.361 -12.914  1.00  0.00    -0.282 OA
ATOM     22  H1  UNL     1      47.150  12.782 -12.212  1.00  0.00     0.245 HD
ENDBRANCH   6  21
TORSDOF 4
ENDMDL