MODEL 1
REMARK VINA RESULT: -5.284724176      0.000      0.000
REMARK  6 active torsions:
REMARK  status: ('A' for Active; 'I' for Inactive)
REMARK    1  A    between atoms: C2_2  and  C3_3
REMARK    2  A    between atoms: N3_10  and  N4_11
REMARK    3  A    between atoms: C5_14  and  C6_15
REMARK    4  A    between atoms: C6_15  and  N5_16
REMARK    5  A    between atoms: N5_16  and  C7_18
REMARK    6  A    between atoms: C7_18  and  O1_19
ROOT
HETATM    1  C3  UNL     1      47.868  17.647 -12.566  1.00  0.00     0.072 A
HETATM    2  N1  UNL     1      47.478  17.771 -13.869  1.00  0.00    -0.189 N
ATOM      3  H1  UNL     1      47.441  18.641 -14.400  1.00  0.00     0.184 HD
HETATM    4  C4  UNL     1      47.152  16.542 -14.337  1.00  0.00     0.697 A
HETATM    5  N2  UNL     1      46.762  16.199 -15.528  1.00  0.00    -0.233 N
ATOM      6  H21 UNL     1      46.516  15.273 -15.880  1.00  0.00     0.174 HD
ATOM      7  H22 UNL     1      46.634  16.889 -16.268  1.00  0.00     0.174 HD
HETATM    8  N3  UNL     1      47.323  15.624 -13.353  1.00  0.00    -0.094 N
HETATM    9  C5  UNL     1      47.764  16.300 -12.305  1.00  0.00     0.096 A
ENDROOT
BRANCH   9  10
HETATM   10  C6  UNL     1      48.208  15.690 -10.999  1.00  0.00     0.178 C
BRANCH  10  11
HETATM   11  N5  UNL     1      46.987  15.730 -10.190  1.00  0.00    -0.396 N
ATOM     12  H5  UNL     1      46.450  16.588 -10.066  1.00  0.00     0.155 HD
BRANCH  11  13
HETATM   13  C7  UNL     1      46.595  14.508  -9.589  1.00  0.00     0.282 C
BRANCH  13  14
HETATM   14  O1  UNL     1      47.073  13.454 -10.426  1.00  0.00    -0.383 OA
ATOM     15  H1  UNL     1      46.491  13.407 -11.176  1.00  0.00     0.211 HD
ENDBRANCH  13  14
ENDBRANCH  11  13
ENDBRANCH  10  11
ENDBRANCH   9  10
BRANCH   1  16
HETATM   16  C2  UNL     1      48.127  18.707 -11.599  1.00  0.00     0.001 C
HETATM   17  C1  UNL     1      47.408  19.985 -11.624  1.00  0.00     0.038 C
ENDBRANCH   1  16
BRANCH   8  18
HETATM   18  N4  UNL     1      46.902  14.279 -13.395  1.00  0.00    -0.324 N
ATOM     19  H42 UNL     1      45.983  13.906 -13.159  1.00  0.00     0.178 HD
ATOM     20  H41 UNL     1      47.412  13.505 -13.822  1.00  0.00     0.178 HD
ENDBRANCH   8  18
TORSDOF 6
ENDMDL