MODEL 5
REMARK VINA RESULT: -5.057011583      1.356      1.756
REMARK  7 active torsions:
REMARK  status: ('A' for Active; 'I' for Inactive)
REMARK    1  A    between atoms: N1_1  and  C1_4
REMARK    2  A    between atoms: N3_8  and  C3_9
REMARK    3  A    between atoms: C3_9  and  C4_10
REMARK    4  A    between atoms: C4_10  and  C5_11
REMARK    5  A    between atoms: C5_11  and  C6_12
REMARK    6  A    between atoms: C6_12  and  N4_13
REMARK    7  A    between atoms: C7_17  and  N5_18
ROOT
HETATM    1  C1  UNL     1      47.062  17.969 -16.225  1.00  0.00     0.691 A
HETATM    2  N2  UNL     1      47.853  18.657 -15.371  1.00  0.00    -0.187 N
ATOM      3  H2  UNL     1      48.177  19.590 -15.625  1.00  0.00     0.185 HD
HETATM    4  C2  UNL     1      48.221  18.120 -14.178  1.00  0.00     0.218 A
HETATM    5  N3  UNL     1      47.803  16.891 -13.831  1.00  0.00    -0.179 N
HETATM    6  C7  UNL     1      47.019  16.223 -14.689  1.00  0.00     0.693 A
HETATM    7  N6  UNL     1      46.646  16.745 -15.876  1.00  0.00    -0.023 N
ATOM      8  H6  UNL     1      46.049  16.209 -16.506  1.00  0.00     0.203 HD
ENDROOT
BRANCH   5   9
HETATM    9  C3  UNL     1      48.178  16.310 -12.584  1.00  0.00     0.148 C
BRANCH   9  10
HETATM   10  C4  UNL     1      47.520  16.921 -11.388  1.00  0.00     0.022 C
BRANCH  10  11
HETATM   11  C5  UNL     1      47.398  15.891 -10.283  1.00  0.00     0.029 C
BRANCH  11  12
HETATM   12  C6  UNL     1      47.116  14.514 -10.787  1.00  0.00     0.229 C
BRANCH  12  13
HETATM   13  N4  UNL     1      47.032  13.527  -9.742  1.00  0.00    -0.079 N
ATOM     14  H43 UNL     1      47.495  13.857  -8.895  1.00  0.00     0.274 HD
ATOM     15  H42 UNL     1      46.076  13.450  -9.393  1.00  0.00     0.274 HD
ATOM     16  H41 UNL     1      47.390  12.612 -10.017  1.00  0.00     0.274 HD
ENDBRANCH  12  13
ENDBRANCH  11  12
ENDBRANCH  10  11
ENDBRANCH   9  10
ENDBRANCH   5   9
BRANCH   6  17
HETATM   17  N5  UNL     1      46.621  15.065 -14.367  1.00  0.00    -0.234 N
ATOM     18  H52 UNL     1      45.748  14.710 -14.758  1.00  0.00     0.174 HD
ATOM     19  H51 UNL     1      47.189  14.518 -13.721  1.00  0.00     0.174 HD
ENDBRANCH   6  17
BRANCH   1  20
HETATM   20  N1  UNL     1      46.727  18.502 -17.350  1.00  0.00    -0.234 N
ATOM     21  H12 UNL     1      47.418  18.930 -17.966  1.00  0.00     0.174 HD
ATOM     22  H11 UNL     1      45.748  18.499 -17.636  1.00  0.00     0.174 HD
ENDBRANCH   1  20
TORSDOF 7
ENDMDL