MODEL 3
REMARK VINA RESULT: -4.402203646      2.216      5.724
REMARK  7 active torsions:
REMARK  status: ('A' for Active; 'I' for Inactive)
REMARK    1  A    between atoms: C2_6  and  N2_7
REMARK    2  A    between atoms: N2_7  and  C3_10
REMARK    3  A    between atoms: C3_10  and  C4_11
REMARK    4  A    between atoms: C4_11  and  C5_12
REMARK    5  A    between atoms: C5_12  and  N3_13
REMARK    6  A    between atoms: C6_17  and  N4_18
REMARK    7  A    between atoms: C7_22  and  N5_23
ROOT
HETATM    1  N1  UNL     1      46.947  13.910 -11.761  1.00  0.00    -0.382 N
ATOM      2  H11 UNL     1      46.650  13.591 -10.838  1.00  0.00     0.158 HD
ATOM      3  H12 UNL     1      46.920  13.139 -12.430  1.00  0.00     0.158 HD
HETATM    4  C1  UNL     1      47.319  15.116 -12.091  1.00  0.00     0.147 C
HETATM    5  O1  UNL     1      47.722  15.550 -13.343  1.00  0.00    -0.302 OA
HETATM    6  C2  UNL     1      48.323  16.855 -13.239  1.00  0.00     0.361 C
HETATM    7  C6  UNL     1      48.224  17.272 -11.826  1.00  0.00     0.278 C
HETATM    8  C7  UNL     1      47.358  16.233 -11.122  1.00  0.00     0.291 C
ENDROOT
BRANCH   6   9
HETATM    9  N2  UNL     1      47.806  17.670 -14.251  1.00  0.00    -0.046 N
ATOM     10  H22 UNL     1      47.218  18.401 -13.851  1.00  0.00     0.280 HD
ATOM     11  H21 UNL     1      48.547  18.242 -14.657  1.00  0.00     0.280 HD
BRANCH   9  12
HETATM   12  C3  UNL     1      47.103  16.974 -15.274  1.00  0.00     0.237 C
BRANCH  12  13
HETATM   13  C4  UNL     1      47.051  17.802 -16.555  1.00  0.00     0.055 C
BRANCH  13  14
HETATM   14  C5  UNL     1      48.353  17.647 -17.314  1.00  0.00     0.231 C
BRANCH  14  15
HETATM   15  N3  UNL     1      48.173  16.557 -18.269  1.00  0.00    -0.079 N
ATOM     16  H33 UNL     1      47.231  16.521 -18.659  1.00  0.00     0.274 HD
ATOM     17  H32 UNL     1      48.673  16.708 -19.145  1.00  0.00     0.274 HD
ATOM     18  H31 UNL     1      48.444  15.694 -17.798  1.00  0.00     0.274 HD
ENDBRANCH  14  15
ENDBRANCH  13  14
ENDBRANCH  12  13
ENDBRANCH   9  12
ENDBRANCH   6   9
BRANCH   7  19
HETATM   19  N4  UNL     1      47.645  18.540 -11.541  1.00  0.00    -0.068 N
ATOM     20  H43 UNL     1      48.351  19.141 -11.116  1.00  0.00     0.275 HD
ATOM     21  H42 UNL     1      47.473  19.033 -12.418  1.00  0.00     0.275 HD
ATOM     22  H41 UNL     1      46.798  18.564 -10.972  1.00  0.00     0.275 HD
ENDBRANCH   7  19
BRANCH   8  23
HETATM   23  N5  UNL     1      47.997  15.776  -9.919  1.00  0.00    -0.066 N
ATOM     24  H53 UNL     1      48.677  15.037 -10.095  1.00  0.00     0.275 HD
ATOM     25  H52 UNL     1      48.638  16.468  -9.530  1.00  0.00     0.275 HD
ATOM     26  H51 UNL     1      47.277  15.494  -9.254  1.00  0.00     0.275 HD
ENDBRANCH   8  23
TORSDOF 7
ENDMDL