MODEL 5
REMARK VINA RESULT: -5.070910131      2.364      5.009
REMARK  6 active torsions:
REMARK  status: ('A' for Active; 'I' for Inactive)
REMARK    1  A    between atoms: S1_2  and  C2_3
REMARK    2  A    between atoms: C3_6  and  N2_7
REMARK    3  A    between atoms: C4_12  and  N4_13
REMARK    4  A    between atoms: N4_13  and  N5_15
REMARK    5  A    between atoms: N5_15  and  C5_17
REMARK    6  A    between atoms: C5_17  and  N6_18
ROOT
HETATM    1  C2  UNL     1      47.192  16.285 -14.251  1.00  0.00     0.174 A
HETATM    2  N1  UNL     1      46.772  15.032 -14.458  1.00  0.00    -0.170 N
ATOM      3  H1  UNL     1      46.468  14.769 -15.396  1.00  0.00     0.186 HD
HETATM    4  C3  UNL     1      46.733  14.096 -13.478  1.00  0.00     0.692 A
HETATM    5  N3  UNL     1      47.141  14.470 -12.245  1.00  0.00    -0.021 N
ATOM      6  H3  UNL     1      47.122  13.788 -11.488  1.00  0.00     0.203 HD
HETATM    7  C4  UNL     1      47.571  15.720 -11.990  1.00  0.00     0.713 A
HETATM    8  N7  UNL     1      47.591  16.609 -12.997  1.00  0.00    -0.168 N
ATOM      9  H7  UNL     1      47.916  17.558 -12.812  1.00  0.00     0.186 HD
ENDROOT
BRANCH   7  10
HETATM   10  N4  UNL     1      47.944  16.016 -10.807  1.00  0.00    -0.134 N
ATOM     11  H4  UNL     1      48.775  16.592 -10.674  1.00  0.00     0.205 HD
BRANCH  10  12
HETATM   12  N5  UNL     1      47.240  15.569  -9.697  1.00  0.00    -0.297 N
ATOM     13  H5  UNL     1      46.240  15.767  -9.642  1.00  0.00     0.182 HD
BRANCH  12  14
HETATM   14  C5  UNL     1      47.855  14.840  -8.620  1.00  0.00     0.369 C
BRANCH  14  15
HETATM   15  N6  UNL     1      47.801  13.432  -8.961  1.00  0.00    -0.062 N
ATOM     16  H63 UNL     1      47.530  12.843  -8.174  1.00  0.00     0.276 HD
ATOM     17  H62 UNL     1      47.020  13.201  -9.575  1.00  0.00     0.276 HD
ATOM     18  H61 UNL     1      48.706  13.178  -9.356  1.00  0.00     0.276 HD
ENDBRANCH  14  15
ENDBRANCH  12  14
ENDBRANCH  10  12
ENDBRANCH   7  10
BRANCH   4  19
HETATM   19  N2  UNL     1      46.325  12.918 -13.728  1.00  0.00    -0.234 N
ATOM     20  H22 UNL     1      46.101  12.610 -14.675  1.00  0.00     0.174 HD
ATOM     21  H21 UNL     1      46.211  12.240 -12.975  1.00  0.00     0.174 HD
ENDBRANCH   4  19
BRANCH   1  22
HETATM   22  S1  UNL     1      47.250  17.528 -15.530  1.00  0.00    -0.097 SA
HETATM   23  C1  UNL     1      48.775  18.493 -15.466  1.00  0.00     0.099 C
ENDBRANCH   1  22
TORSDOF 6
ENDMDL