MODEL 5
REMARK VINA RESULT: -5.118058634      1.662      1.741
REMARK  8 active torsions:
REMARK  status: ('A' for Active; 'I' for Inactive)
REMARK    1  A    between atoms: N1_1  and  C1_5
REMARK    2  A    between atoms: C1_5  and  C2_6
REMARK    3  A    between atoms: C2_6  and  C3_7
REMARK    4  A    between atoms: C3_7  and  N2_8
REMARK    5  A    between atoms: N2_8  and  C4_10
REMARK    6  A    between atoms: C5_16  and  N5_17
REMARK    7  A    between atoms: N5_17  and  N6_19
REMARK    8  A    between atoms: N6_19  and  O2_21
ROOT
HETATM    1  C4  UNL     1      47.545  15.455 -12.310  1.00  0.00     0.171 A
HETATM    2  N3  UNL     1      46.943  14.382 -12.851  1.00  0.00    -0.222 N
ATOM      3  H3  UNL     1      46.753  13.497 -12.382  1.00  0.00     0.198 HD
HETATM    4  O1  UNL     1      46.648  14.676 -14.068  1.00  0.00    -0.153 OA
HETATM    5  N4  UNL     1      47.005  15.873 -14.400  1.00  0.00    -0.221 N
ATOM      6  H4  UNL     1      46.877  16.323 -15.306  1.00  0.00     0.198 HD
HETATM    7  C5  UNL     1      47.581  16.403 -13.308  1.00  0.00     0.189 A
ENDROOT
BRANCH   1   8
HETATM    8  N2  UNL     1      48.004  15.604 -11.121  1.00  0.00    -0.372 N
ATOM      9  H2  UNL     1      49.005  15.711 -10.959  1.00  0.00     0.161 HD
BRANCH   8  10
HETATM   10  C3  UNL     1      47.068  15.618 -10.013  1.00  0.00     0.123 C
BRANCH  10  11
HETATM   11  C2  UNL     1      47.809  15.171  -8.764  1.00  0.00     0.047 C
BRANCH  11  12
HETATM   12  C1  UNL     1      48.151  13.708  -8.954  1.00  0.00     0.231 C
BRANCH  12  13
HETATM   13  N1  UNL     1      47.058  12.989  -9.530  1.00  0.00    -0.079 N
ATOM     14  H13 UNL     1      46.284  13.609  -9.766  1.00  0.00     0.274 HD
ATOM     15  H12 UNL     1      47.283  12.654 -10.466  1.00  0.00     0.274 HD
ATOM     16  H11 UNL     1      46.755  12.227  -8.923  1.00  0.00     0.274 HD
ENDBRANCH  12  13
ENDBRANCH  11  12
ENDBRANCH  10  11
ENDBRANCH   8  10
ENDBRANCH   1   8
BRANCH   7  17
HETATM   17  N5  UNL     1      48.068  17.598 -13.253  1.00  0.00    -0.261 N
ATOM     18  H5  UNL     1      48.861  17.839 -13.846  1.00  0.00     0.190 HD
BRANCH  17  19
HETATM   19  N6  UNL     1      47.535  18.572 -12.399  1.00  0.00    -0.208 N
ATOM     20  H6  UNL     1      46.722  19.128 -12.664  1.00  0.00     0.215 HD
BRANCH  19  21
HETATM   21  O2  UNL     1      48.152  18.741 -11.205  1.00  0.00    -0.274 OA
ATOM     22  H2  UNL     1      48.118  18.011 -10.598  1.00  0.00     0.246 HD
ENDBRANCH  19  21
ENDBRANCH  17  19
ENDBRANCH   7  17
TORSDOF 8
ENDMDL