MODEL 2
REMARK VINA RESULT: -5.528813847      1.015      1.091
REMARK  5 active torsions:
REMARK  status: ('A' for Active; 'I' for Inactive)
REMARK    1  A    between atoms: N1_2  and  C2_4
REMARK    2  A    between atoms: C4_8  and  N3_9
REMARK    3  A    between atoms: N3_9  and  C5_11
REMARK    4  A    between atoms: C5_11  and  C6_12
REMARK    5  A    between atoms: C6_12  and  N4_13
ROOT
HETATM    1  C2  UNL     1      47.348  15.114 -11.507  1.00  0.00     0.086 A
HETATM    2  C3  UNL     1      47.569  16.311 -10.892  1.00  0.00     0.138 A
HETATM    3  N2  UNL     1      47.782  17.399 -11.650  1.00  0.00    -0.200 N
ATOM      4  H2  UNL     1      47.946  18.289 -11.180  1.00  0.00     0.183 HD
HETATM    5  C4  UNL     1      47.792  17.382 -12.995  1.00  0.00     0.679 A
HETATM    6  N5  UNL     1      47.573  16.193 -13.588  1.00  0.00    -0.177 N
ATOM      7  H5  UNL     1      47.574  16.144 -14.607  1.00  0.00     0.185 HD
HETATM    8  C7  UNL     1      47.353  15.064 -12.882  1.00  0.00     0.159 A
HETATM    9  N6  UNL     1      47.120  13.800 -13.493  1.00  0.00    -0.080 NA
ENDROOT
BRANCH   5  10
HETATM   10  N3  UNL     1      47.992  18.398 -13.737  1.00  0.00    -0.224 N
ATOM     11  H3  UNL     1      48.256  19.261 -13.262  1.00  0.00     0.177 HD
BRANCH  10  12
HETATM   12  C5  UNL     1      47.888  18.462 -15.152  1.00  0.00     0.165 C
BRANCH  12  13
HETATM   13  C6  UNL     1      48.917  19.352 -15.808  1.00  0.00     0.249 C
BRANCH  13  14
HETATM   14  N4  UNL     1      50.064  18.488 -16.132  1.00  0.00    -0.078 N
ATOM     15  H43 UNL     1      49.924  17.513 -15.866  1.00  0.00     0.274 HD
ATOM     16  H42 UNL     1      50.182  18.329 -17.133  1.00  0.00     0.274 HD
ATOM     17  H41 UNL     1      50.878  18.915 -15.691  1.00  0.00     0.274 HD
ENDBRANCH  13  14
ENDBRANCH  12  13
ENDBRANCH  10  12
ENDBRANCH   5  10
BRANCH   1  18
HETATM   18  N1  UNL     1      47.116  13.919 -10.733  1.00  0.00    -0.390 N
HETATM   19  C1  UNL     1      47.539  13.826  -9.356  1.00  0.00     0.146 C
ATOM     20  H1  UNL     1      46.643  13.127 -11.166  1.00  0.00     0.159 HD
ENDBRANCH   1  18
TORSDOF 5
ENDMDL