MODEL 5
REMARK VINA RESULT: -4.627240991      1.425      1.580
REMARK  6 active torsions:
REMARK  status: ('A' for Active; 'I' for Inactive)
REMARK    1  A    between atoms: N1_1  and  C1_4
REMARK    2  A    between atoms: N4_8  and  N5_9
REMARK    3  A    between atoms: N5_9  and  N6_11
REMARK    4  A    between atoms: N7_14  and  C2_15
REMARK    5  A    between atoms: C2_15  and  C3_16
REMARK    6  A    between atoms: C3_16  and  C4_17
ROOT
HETATM    1  C1  UNL     1      46.973  15.617 -14.024  1.00  0.00     0.708 A
HETATM    2  N2  UNL     1      46.347  16.044 -15.158  1.00  0.00    -0.112 N
ATOM      3  H2  UNL     1      45.742  15.504 -15.777  1.00  0.00     0.203 HD
HETATM    4  N3  UNL     1      46.699  17.325 -15.280  1.00  0.00     0.034 NA
HETATM    5  N4  UNL     1      47.495  17.682 -14.287  1.00  0.00    -0.084 N
HETATM    6  N7  UNL     1      47.664  16.640 -13.520  1.00  0.00    -0.087 N
ENDROOT
BRANCH   5   7
HETATM    7  N5  UNL     1      48.105  18.920 -14.033  1.00  0.00    -0.213 N
ATOM      8  H5  UNL     1      48.838  18.938 -13.323  1.00  0.00     0.211 HD
BRANCH   7   9
HETATM    9  N6  UNL     1      47.808  20.112 -14.650  1.00  0.00    -0.328 N
ATOM     10  H62 UNL     1      47.274  20.779 -14.094  1.00  0.00     0.178 HD
ATOM     11  H61 UNL     1      48.072  20.380 -15.599  1.00  0.00     0.178 HD
ENDBRANCH   7   9
ENDBRANCH   5   7
BRANCH   6  12
HETATM   12  C2  UNL     1      48.474  16.591 -12.307  1.00  0.00     0.172 C
BRANCH  12  13
HETATM   13  C3  UNL     1      47.570  16.651 -11.088  1.00  0.00     0.033 C
BRANCH  13  14
HETATM   14  C4  UNL     1      47.759  15.437 -10.184  1.00  0.00     0.088 C
HETATM   15  S1  UNL     1      46.217  14.979  -9.344  1.00  0.00    -0.098 SA
ENDBRANCH  13  14
ENDBRANCH  12  13
ENDBRANCH   6  12
BRANCH   1  16
HETATM   16  N1  UNL     1      46.855  14.387 -13.574  1.00  0.00    -0.232 N
ATOM     17  H12 UNL     1      46.549  13.546 -14.062  1.00  0.00     0.174 HD
ATOM     18  H11 UNL     1      47.080  14.132 -12.613  1.00  0.00     0.174 HD
ENDBRANCH   1  16
TORSDOF 6
ENDMDL