MODEL 2
REMARK VINA RESULT: -5.773340472      0.804      1.409
REMARK  4 active torsions:
REMARK  status: ('A' for Active; 'I' for Inactive)
REMARK    1  A    between atoms: C2_3  and  N2_4
REMARK    2  A    between atoms: C2_3  and  S1_8
REMARK    3  A    between atoms: S1_8  and  C3_9
REMARK    4  A    between atoms: C4_14  and  N5_15
ROOT
HETATM    1  N1  UNL     1      84.482 -11.263  66.119  1.00  0.00    -0.194 NA
HETATM    2  C1  UNL     1      84.382 -12.399  66.366  1.00  0.00     0.103 C
HETATM    3  C2  UNL     1      84.265 -13.806  66.671  1.00  0.00     0.358 C
ENDROOT
BRANCH   3   4
HETATM    4  N2  UNL     1      85.171 -14.217  67.701  1.00  0.00    -0.053 N
ATOM      5  H23 UNL     1      86.094 -13.805  67.565  1.00  0.00     0.276 HD
ATOM      6  H22 UNL     1      84.932 -13.787  68.595  1.00  0.00     0.276 HD
ATOM      7  H21 UNL     1      85.229 -15.232  67.785  1.00  0.00     0.276 HD
ENDBRANCH   3   4
BRANCH   3   8
HETATM    8  S1  UNL     1      84.710 -14.730  65.170  1.00  0.00    -0.044 SA
BRANCH   8   9
HETATM    9  C3  UNL     1      83.223 -15.419  64.413  1.00  0.00     0.177 A
HETATM   10  N3  UNL     1      82.398 -14.766  63.581  1.00  0.00    -0.265 N
HETATM   11  N4  UNL     1      81.439 -15.610  63.248  1.00  0.00    -0.130 N
ATOM     12  H3  UNL     1      82.492 -13.801  63.265  1.00  0.00     0.189 HD
HETATM   13  C4  UNL     1      81.651 -16.767  63.852  1.00  0.00     0.692 A
ATOM     14  H4  UNL     1      80.659 -15.402  62.623  1.00  0.00     0.205 HD
HETATM   15  N6  UNL     1      82.775 -16.670  64.595  1.00  0.00    -0.168 N
ATOM     16  H6  UNL     1      83.196 -17.397  65.174  1.00  0.00     0.186 HD
BRANCH  13  17
HETATM   17  N5  UNL     1      80.938 -17.843  63.778  1.00  0.00    -0.233 N
ATOM     18  H52 UNL     1      79.958 -17.886  64.057  1.00  0.00     0.174 HD
ATOM     19  H51 UNL     1      81.228 -18.764  63.449  1.00  0.00     0.174 HD
ENDBRANCH  13  17
ENDBRANCH   8   9
ENDBRANCH   3   8
TORSDOF 4
ENDMDL