MODEL 2
REMARK VINA RESULT: -7.533375912      1.274      1.667
REMARK  3 active torsions:
REMARK  status: ('A' for Active; 'I' for Inactive)
REMARK    1  A    between atoms: N1_1  and  C1_5
REMARK    2  A    between atoms: C1_5  and  C2_6
REMARK    3  A    between atoms: C4_8  and  C5_9
ROOT
HETATM    1  C2  UNL     1      83.110 -16.249  64.309  1.00  0.00     0.103 A
HETATM    2  C3  UNL     1      82.562 -15.221  65.052  1.00  0.00     0.066 A
HETATM    3  C4  UNL     1      83.614 -14.384  65.405  1.00  0.00     0.072 A
HETATM    4  N6  UNL     1      84.705 -14.952  64.863  1.00  0.00    -0.262 N
ATOM      5  H6  UNL     1      85.651 -14.579  64.939  1.00  0.00     0.194 HD
HETATM    6  O1  UNL     1      84.387 -16.041  64.227  1.00  0.00    -0.240 OA
ENDROOT
BRANCH   1   7
HETATM    7  C1  UNL     1      82.356 -17.398  63.707  1.00  0.00     0.296 C
BRANCH   7   8
HETATM    8  N1  UNL     1      80.959 -17.035  63.593  1.00  0.00    -0.073 N
ATOM      9  H13 UNL     1      80.378 -17.495  64.295  1.00  0.00     0.274 HD
ATOM     10  H12 UNL     1      80.783 -16.070  63.874  1.00  0.00     0.274 HD
ATOM     11  H11 UNL     1      80.645 -17.226  62.642  1.00  0.00     0.274 HD
ENDBRANCH   7   8
ENDBRANCH   1   7
BRANCH   3  12
HETATM   12  C5  UNL     1      83.557 -13.136  66.205  1.00  0.00     0.258 C
HETATM   13  N2  UNL     1      84.342 -12.106  65.519  1.00  0.00    -0.099 NA
HETATM   14  N3  UNL     1      84.670 -11.226  66.536  1.00  0.00    -0.019 NA
HETATM   15  N4  UNL     1      84.528 -11.899  67.746  1.00  0.00    -0.019 NA
HETATM   16  N5  UNL     1      84.339 -13.256  67.437  1.00  0.00    -0.099 NA
ENDBRANCH   3  12
TORSDOF 3
ENDMDL