MODEL 4
REMARK VINA RESULT: -5.782852742      0.983      1.977
REMARK  2 active torsions:
REMARK  status: ('A' for Active; 'I' for Inactive)
REMARK    1  A    between atoms: C3_6  and  N2_7
REMARK    2  A    between atoms: N2_7  and  C4_9
ROOT
HETATM    1  N1  UNL     1      87.092 -15.872  65.582  1.00  0.00    -0.385 N
ATOM      2  H11 UNL     1      87.851 -15.743  66.251  1.00  0.00     0.157 HD
ATOM      3  H12 UNL     1      87.245 -16.577  64.860  1.00  0.00     0.157 HD
HETATM    4  C1  UNL     1      85.988 -15.193  65.623  1.00  0.00     0.103 A
HETATM    5  C2  UNL     1      84.961 -15.367  64.719  1.00  0.00     0.096 A
HETATM    6  C3  UNL     1      83.789 -14.638  64.773  1.00  0.00     0.108 A
HETATM    7  N5  UNL     1      83.663 -13.719  65.762  1.00  0.00    -0.339 N
ATOM      8  H5  UNL     1      82.811 -13.162  65.831  1.00  0.00     0.168 HD
HETATM    9  C6  UNL     1      84.653 -13.538  66.649  1.00  0.00     0.183 A
HETATM   10  N6  UNL     1      85.786 -14.263  66.574  1.00  0.00    -0.339 N
ATOM     11  H6  UNL     1      86.518 -14.101  67.265  1.00  0.00     0.168 HD
ENDROOT
BRANCH   6  12
HETATM   12  N2  UNL     1      82.772 -14.850  63.830  1.00  0.00    -0.327 N
ATOM     13  H2  UNL     1      82.727 -14.232  63.020  1.00  0.00     0.164 HD
BRANCH  12  14
HETATM   14  C4  UNL     1      81.781 -15.900  63.948  1.00  0.00     0.490 A
HETATM   15  N3  UNL     1      80.747 -15.806  62.937  1.00  0.00    -0.005 N
HETATM   16  C5  UNL     1      81.113 -17.127  62.464  1.00  0.00     0.472 A
ATOM     17  H32 UNL     1      79.783 -15.604  63.203  1.00  0.00     0.283 HD
ATOM     18  H31 UNL     1      80.728 -15.017  62.292  1.00  0.00     0.283 HD
HETATM   19  N4  UNL     1      82.206 -17.159  63.401  1.00  0.00    -0.005 N
ATOM     20  H42 UNL     1      83.162 -17.270  63.063  1.00  0.00     0.283 HD
ATOM     21  H41 UNL     1      82.328 -17.965  64.014  1.00  0.00     0.283 HD
ENDBRANCH  12  14
ENDBRANCH   6  12
TORSDOF 2
ENDMDL