MODEL 1
REMARK VINA RESULT: -6.582647286      0.000      0.000
REMARK  5 active torsions:
REMARK  status: ('A' for Active; 'I' for Inactive)
REMARK    1  A    between atoms: C2_9  and  N5_10
REMARK    2  A    between atoms: N5_10  and  N6_12
REMARK    3  A    between atoms: C3_14  and  N7_15
REMARK    4  A    between atoms: N7_15  and  N8_16
REMARK    5  A    between atoms: N7_15  and  N9_19
ROOT
HETATM    1  N5  UNL     1      84.590 -15.167  64.538  1.00  0.00    -0.281 N
ATOM      2  H5  UNL     1      85.440 -15.443  64.046  1.00  0.00     0.188 HD
ENDROOT
BRANCH   1   3
HETATM    3  C2  UNL     1      84.676 -14.575  65.826  1.00  0.00     0.179 A
HETATM    4  C1  UNL     1      84.078 -13.381  66.163  1.00  0.00     0.179 A
HETATM    5  N1  UNL     1      83.294 -12.560  65.297  1.00  0.00    -0.077 NA
HETATM    6  N2  UNL     1      84.375 -13.132  67.468  1.00  0.00    -0.270 N
HETATM    7  N3  UNL     1      85.115 -14.117  67.912  1.00  0.00    -0.240 N
ATOM      8  H2  UNL     1      84.073 -12.320  68.005  1.00  0.00     0.190 HD
HETATM    9  N4  UNL     1      85.303 -14.993  66.935  1.00  0.00    -0.267 N
ATOM     10  H3  UNL     1      85.486 -14.198  68.859  1.00  0.00     0.208 HD
ATOM     11  H4  UNL     1      85.844 -15.853  67.015  1.00  0.00     0.190 HD
ENDBRANCH   1   3
BRANCH   1  12
HETATM   12  N6  UNL     1      83.330 -15.374  63.942  1.00  0.00    -0.291 N
HETATM   13  C3  UNL     1      82.695 -16.459  64.235  1.00  0.00     0.241 C
ATOM     14  H6  UNL     1      82.933 -14.688  63.301  1.00  0.00     0.188 HD
BRANCH  13  15
HETATM   15  N7  UNL     1      81.428 -16.663  63.632  1.00  0.00    -0.204 N
BRANCH  15  16
HETATM   16  N8  UNL     1      80.872 -17.960  63.791  1.00  0.00    -0.324 N
ATOM     17  H82 UNL     1      81.343 -18.664  64.358  1.00  0.00     0.179 HD
ATOM     18  H81 UNL     1      79.991 -18.126  63.306  1.00  0.00     0.179 HD
ENDBRANCH  15  16
BRANCH  15  19
HETATM   19  N9  UNL     1      80.744 -15.672  62.921  1.00  0.00    -0.324 N
ATOM     20  H92 UNL     1      80.952 -14.685  63.069  1.00  0.00     0.179 HD
ATOM     21  H91 UNL     1      80.018 -15.873  62.234  1.00  0.00     0.179 HD
ENDBRANCH  15  19
ENDBRANCH  13  15
ENDBRANCH   1  12
TORSDOF 5
ENDMDL