MODEL 4
REMARK VINA RESULT: -4.502991330      1.300      2.216
REMARK  5 active torsions:
REMARK  status: ('A' for Active; 'I' for Inactive)
REMARK    1  A    between atoms: N1_1  and  C1_4
REMARK    2  A    between atoms: N3_8  and  C3_9
REMARK    3  A    between atoms: C3_9  and  C4_10
REMARK    4  A    between atoms: C4_10  and  C5_11
REMARK    5  A    between atoms: C5_11  and  N4_12
ROOT
HETATM    1  C1  UNL     1      84.249 -12.769  66.864  1.00  0.00     0.691 A
HETATM    2  N2  UNL     1      84.587 -14.060  67.028  1.00  0.00    -0.187 N
ATOM      3  H2  UNL     1      85.053 -14.338  67.892  1.00  0.00     0.185 HD
HETATM    4  C2  UNL     1      84.334 -14.997  66.100  1.00  0.00     0.218 A
HETATM    5  N3  UNL     1      83.712 -14.674  64.928  1.00  0.00    -0.179 N
HETATM    6  C6  UNL     1      83.367 -13.388  64.747  1.00  0.00     0.693 A
HETATM    7  N5  UNL     1      82.789 -13.031  63.655  1.00  0.00    -0.234 N
ATOM      8  H51 UNL     1      82.527 -12.055  63.517  1.00  0.00     0.174 HD
ATOM      9  H52 UNL     1      82.589 -13.727  62.937  1.00  0.00     0.174 HD
HETATM   10  N6  UNL     1      83.638 -12.452  65.712  1.00  0.00    -0.023 N
ATOM     11  H6  UNL     1      83.366 -11.483  65.549  1.00  0.00     0.203 HD
ENDROOT
BRANCH   5  12
HETATM   12  C3  UNL     1      83.468 -15.735  63.994  1.00  0.00     0.150 C
BRANCH  12  13
HETATM   13  C4  UNL     1      82.231 -16.537  64.371  1.00  0.00     0.048 C
BRANCH  13  14
HETATM   14  C5  UNL     1      82.172 -17.823  63.596  1.00  0.00     0.231 C
BRANCH  14  15
HETATM   15  N4  UNL     1      81.018 -18.630  63.993  1.00  0.00    -0.079 N
ATOM     16  H43 UNL     1      81.175 -19.621  63.814  1.00  0.00     0.274 HD
ATOM     17  H42 UNL     1      80.918 -18.668  65.008  1.00  0.00     0.274 HD
ATOM     18  H41 UNL     1      80.164 -18.299  63.545  1.00  0.00     0.274 HD
ENDBRANCH  14  15
ENDBRANCH  13  14
ENDBRANCH  12  13
ENDBRANCH   5  12
BRANCH   1  19
HETATM   19  N1  UNL     1      84.483 -11.855  67.743  1.00  0.00    -0.234 N
ATOM     20  H12 UNL     1      84.285 -12.031  68.728  1.00  0.00     0.174 HD
ATOM     21  H11 UNL     1      84.865 -10.938  67.513  1.00  0.00     0.174 HD
ENDBRANCH   1  19
TORSDOF 5
ENDMDL