MODEL 5
REMARK VINA RESULT: -4.920367618      6.315      7.471
REMARK  5 active torsions:
REMARK  status: ('A' for Active; 'I' for Inactive)
REMARK    1  A    between atoms: C2_3  and  N2_4
REMARK    2  A    between atoms: C2_3  and  C3_8
REMARK    3  A    between atoms: C3_8  and  N3_9
REMARK    4  A    between atoms: C3_8  and  N4_13
REMARK    5  A    between atoms: C4_14  and  O1_15
ROOT
HETATM    1  N1  UNL     1      79.236 -17.765  58.485  1.00  0.00    -0.195 NA
HETATM    2  C1  UNL     1      79.631 -18.131  59.511  1.00  0.00     0.096 C
HETATM    3  C2  UNL     1      80.149 -18.602  60.772  1.00  0.00     0.339 C
ENDROOT
BRANCH   3   4
HETATM    4  N2  UNL     1      81.369 -17.846  61.106  1.00  0.00    -0.059 N
ATOM      5  H23 UNL     1      82.137 -18.047  60.466  1.00  0.00     0.276 HD
ATOM      6  H22 UNL     1      81.273 -16.850  60.908  1.00  0.00     0.276 HD
ATOM      7  H21 UNL     1      81.617 -18.026  62.079  1.00  0.00     0.276 HD
ENDBRANCH   3   4
BRANCH   3   8
HETATM    8  C3  UNL     1      79.205 -18.598  61.903  1.00  0.00     0.351 C
BRANCH   8   9
HETATM    9  N3  UNL     1      78.987 -17.240  62.382  1.00  0.00    -0.054 N
ATOM     10  H33 UNL     1      78.728 -17.224  63.369  1.00  0.00     0.276 HD
ATOM     11  H32 UNL     1      79.859 -16.716  62.444  1.00  0.00     0.276 HD
ATOM     12  H31 UNL     1      78.298 -16.762  61.802  1.00  0.00     0.276 HD
ENDBRANCH   8   9
BRANCH   8  13
HETATM   13  N4  UNL     1      79.436 -19.546  62.964  1.00  0.00    -0.128 N
HETATM   14  C4  UNL     1      80.246 -19.290  63.994  1.00  0.00     0.176 A
HETATM   15  C5  UNL     1      80.232 -20.405  64.802  1.00  0.00     0.162 A
HETATM   16  N5  UNL     1      79.414 -21.293  64.237  1.00  0.00    -0.198 N
HETATM   17  C6  UNL     1      78.906 -20.777  63.088  1.00  0.00     0.681 A
ATOM     18  H5  UNL     1      79.204 -22.219  64.610  1.00  0.00     0.183 HD
HETATM   19  N6  UNL     1      78.055 -21.385  62.305  1.00  0.00    -0.234 N
ATOM     20  H62 UNL     1      77.673 -20.997  61.443  1.00  0.00     0.174 HD
ATOM     21  H61 UNL     1      77.653 -22.318  62.398  1.00  0.00     0.174 HD
BRANCH  14  22
HETATM   22  O1  UNL     1      81.014 -18.173  64.318  1.00  0.00    -0.344 OA
ATOM     23  H1  UNL     1      81.833 -17.843  63.968  1.00  0.00     0.219 HD
ENDBRANCH  14  22
ENDBRANCH   8  13
ENDBRANCH   3   8
TORSDOF 5
ENDMDL