MODEL 1
REMARK VINA RESULT: -5.043440966      0.000      0.000
REMARK  3 active torsions:
REMARK  status: ('A' for Active; 'I' for Inactive)
REMARK    1  A    between atoms: C2_3  and  N2_4
REMARK    2  A    between atoms: C4_7  and  C5_8
REMARK    3  A    between atoms: N4_9  and  N5_11
ROOT
HETATM    1  N1  UNL     1      81.751 -16.215  60.511  1.00  0.00    -0.196 NA
HETATM    2  C1  UNL     1      81.440 -15.756  61.528  1.00  0.00     0.080 C
HETATM    3  C2  UNL     1      81.070 -15.175  62.828  1.00  0.00     0.272 C
ENDROOT
BRANCH   3   4
HETATM    4  N2  UNL     1      82.146 -15.386  63.787  1.00  0.00    -0.155 N
HETATM    5  C3  UNL     1      82.949 -14.401  64.233  1.00  0.00     0.164 A
HETATM    6  N3  UNL     1      82.914 -13.025  63.878  1.00  0.00    -0.079 NA
HETATM    7  C4  UNL     1      83.858 -14.976  65.136  1.00  0.00     0.107 A
HETATM    8  N6  UNL     1      83.568 -16.284  65.202  1.00  0.00    -0.187 N
HETATM    9  C6  UNL     1      82.520 -16.534  64.374  1.00  0.00     0.680 A
ATOM     10  H6  UNL     1      84.053 -16.974  65.776  1.00  0.00     0.184 HD
HETATM   11  N7  UNL     1      81.952 -17.676  64.165  1.00  0.00    -0.234 N
ATOM     12  H72 UNL     1      81.165 -17.864  63.544  1.00  0.00     0.174 HD
ATOM     13  H71 UNL     1      82.236 -18.548  64.611  1.00  0.00     0.174 HD
BRANCH   7  14
HETATM   14  C5  UNL     1      84.900 -14.266  65.850  1.00  0.00     0.140 C
HETATM   15  N4  UNL     1      84.766 -13.234  66.554  1.00  0.00    -0.316 N
ATOM     16  H4  UNL     1      85.632 -12.892  66.971  1.00  0.00     0.185 HD
BRANCH  15  17
HETATM   17  N5  UNL     1      83.659 -12.487  66.857  1.00  0.00    -0.345 N
ATOM     18  H52 UNL     1      83.828 -11.800  67.591  1.00  0.00     0.176 HD
ATOM     19  H51 UNL     1      82.712 -12.503  66.477  1.00  0.00     0.176 HD
ENDBRANCH  15  17
ENDBRANCH   7  14
ENDBRANCH   3   4
TORSDOF 3
ENDMDL