MODEL 1
REMARK VINA RESULT: -6.209048264      0.000      0.000
REMARK  4 active torsions:
REMARK  status: ('A' for Active; 'I' for Inactive)
REMARK    1  A    between atoms: C3_11  and  S1_12
REMARK    2  A    between atoms: S1_12  and  C4_13
REMARK    3  A    between atoms: C4_13  and  C5_14
REMARK    4  A    between atoms: C5_14  and  N5_15
ROOT
HETATM    1  N1  UNL     1      87.097 -15.699  65.570  1.00  0.00    -0.234 N
ATOM      2  H11 UNL     1      87.325 -16.401  64.866  1.00  0.00     0.174 HD
ATOM      3  H12 UNL     1      87.845 -15.452  66.217  1.00  0.00     0.174 HD
HETATM    4  C1  UNL     1      85.948 -15.127  65.678  1.00  0.00     0.680 A
HETATM    5  N2  UNL     1      85.648 -14.203  66.603  1.00  0.00    -0.163 N
ATOM      6  H2  UNL     1      86.371 -13.931  67.270  1.00  0.00     0.187 HD
HETATM    7  C2  UNL     1      84.434 -13.614  66.694  1.00  0.00     0.208 A
HETATM    8  N3  UNL     1      84.161 -12.638  67.692  1.00  0.00    -0.063 NA
HETATM    9  N4  UNL     1      83.473 -13.979  65.806  1.00  0.00    -0.310 N
ATOM     10  H4  UNL     1      82.549 -13.550  65.855  1.00  0.00     0.170 HD
HETATM   11  C3  UNL     1      83.733 -14.902  64.864  1.00  0.00     0.161 A
HETATM   12  N6  UNL     1      84.954 -15.453  64.818  1.00  0.00    -0.170 N
ATOM     13  H6  UNL     1      85.144 -16.153  64.101  1.00  0.00     0.186 HD
ENDROOT
BRANCH  11  14
HETATM   14  S1  UNL     1      82.423 -15.325  63.744  1.00  0.00    -0.092 SA
BRANCH  14  15
HETATM   15  C4  UNL     1      81.817 -16.995  63.971  1.00  0.00     0.109 C
BRANCH  15  16
HETATM   16  C5  UNL     1      80.725 -17.363  62.990  1.00  0.00     0.240 C
BRANCH  16  17
HETATM   17  N5  UNL     1      80.181 -16.147  62.409  1.00  0.00    -0.079 N
ATOM     18  H53 UNL     1      80.832 -15.364  62.468  1.00  0.00     0.274 HD
ATOM     19  H52 UNL     1      80.112 -16.200  61.393  1.00  0.00     0.274 HD
ATOM     20  H51 UNL     1      79.285 -15.940  62.849  1.00  0.00     0.274 HD
ENDBRANCH  16  17
ENDBRANCH  15  16
ENDBRANCH  14  15
ENDBRANCH  11  14
TORSDOF 4
ENDMDL