MODEL 4
REMARK VINA RESULT: -4.511017105      1.745      4.753
REMARK  4 active torsions:
REMARK  status: ('A' for Active; 'I' for Inactive)
REMARK    1  A    between atoms: N1_1  and  C1_4
REMARK    2  A    between atoms: N6_15  and  C4_16
REMARK    3  A    between atoms: C4_16  and  C5_17
REMARK    4  A    between atoms: C5_17  and  N7_18
ROOT
HETATM    1  C1  UNL     1      81.996 -15.255  63.143  1.00  0.00     0.146 A
HETATM    2  N2  UNL     1      82.329 -16.485  63.499  1.00  0.00    -0.282 N
ATOM      3  H2  UNL     1      81.924 -17.328  63.092  1.00  0.00     0.188 HD
HETATM    4  N3  UNL     1      83.248 -16.490  64.445  1.00  0.00    -0.281 N
ATOM      5  H3  UNL     1      83.664 -17.313  64.881  1.00  0.00     0.188 HD
HETATM    6  C2  UNL     1      83.537 -15.193  64.728  1.00  0.00     0.170 A
HETATM    7  C3  UNL     1      82.760 -14.394  63.919  1.00  0.00     0.141 A
HETATM    8  N4  UNL     1      83.087 -13.143  64.240  1.00  0.00    -0.279 N
ATOM      9  H4  UNL     1      82.680 -12.311  63.812  1.00  0.00     0.189 HD
HETATM   10  N5  UNL     1      84.004 -13.125  65.182  1.00  0.00    -0.238 N
ATOM     11  H5  UNL     1      84.421 -12.293  65.599  1.00  0.00     0.208 HD
HETATM   12  N6  UNL     1      84.294 -14.393  65.496  1.00  0.00    -0.257 N
ENDROOT
BRANCH  12  13
HETATM   13  C4  UNL     1      85.266 -14.814  66.508  1.00  0.00     0.179 C
BRANCH  13  14
HETATM   14  C5  UNL     1      86.654 -14.711  65.961  1.00  0.00     0.251 C
BRANCH  14  15
HETATM   15  N7  UNL     1      87.058 -15.988  65.429  1.00  0.00    -0.078 N
ATOM     16  H73 UNL     1      87.960 -15.941  64.956  1.00  0.00     0.274 HD
ATOM     17  H72 UNL     1      87.312 -16.648  66.164  1.00  0.00     0.274 HD
ATOM     18  H71 UNL     1      86.323 -16.352  64.822  1.00  0.00     0.274 HD
ENDBRANCH  14  15
ENDBRANCH  13  14
ENDBRANCH  12  13
BRANCH   1  19
HETATM   19  N1  UNL     1      81.143 -14.836  62.259  1.00  0.00    -0.382 N
ATOM     20  H12 UNL     1      81.094 -15.215  61.313  1.00  0.00     0.157 HD
ATOM     21  H11 UNL     1      80.422 -14.118  62.324  1.00  0.00     0.157 HD
ENDBRANCH   1  19
TORSDOF 4
ENDMDL