MODEL 4
REMARK VINA RESULT: -6.996959352      1.808      3.187
REMARK  14 active torsions:
REMARK  status: ('A' for Active; 'I' for Inactive)
REMARK    1  A    between atoms: C2_2  and  C3_3
REMARK    2  A    between atoms: C3_3  and  C4_4
REMARK    3  A    between atoms: C4_4  and  C5_5
REMARK    4  A    between atoms: C5_5  and  C6_6
REMARK    5  A    between atoms: C6_6  and  C7_7
REMARK    6  A    between atoms: C7_7  and  C8_8
REMARK    7  A    between atoms: C8_8  and  C9_9
REMARK    8  A    between atoms: C9_9  and  C10_10
REMARK    9  A    between atoms: C10_10  and  C11_11
REMARK   10  A    between atoms: N1_15  and  C15_16
REMARK   11  A    between atoms: C15_16  and  O1_17
REMARK   12  A    between atoms: C15_16  and  C16_19
REMARK   13  A    between atoms: C16_19  and  C17_21
REMARK   14  A    between atoms: C17_21  and  S1_22
ROOT
HETATM    1  S1  UNL     1      33.754  40.490  15.671  1.00  0.00    -0.043 SA
HETATM    2  C18 UNL     1      33.496  42.253  15.587  1.00  0.00     0.134 C
HETATM    3  N2  UNL     1      33.337  43.395  15.515  1.00  0.00    -0.184 NA
ENDROOT
BRANCH   1   4
HETATM    4  C17 UNL     1      32.243  39.652  15.269  1.00  0.00     0.177 C
BRANCH   4   5
HETATM    5  C16 UNL     1      32.423  38.721  14.097  1.00  0.00     0.209 C
HETATM    6  O2  UNL     1      32.198  39.263  12.938  1.00  0.00    -0.288 OA
BRANCH   5   7
HETATM    7  C15 UNL     1      32.798  37.361  14.169  1.00  0.00     0.186 C
BRANCH   7   8
HETATM    8  N1  UNL     1      32.077  36.234  13.806  1.00  0.00    -0.359 N
HETATM    9  C14 UNL     1      31.867  35.761  12.473  1.00  0.00     0.125 C
HETATM   10  C13 UNL     1      32.413  34.345  12.283  1.00  0.00     0.020 C
HETATM   11  C12 UNL     1      32.422  33.629  13.618  1.00  0.00     0.008 C
HETATM   12  C11 UNL     1      31.169  34.044  14.356  1.00  0.00     0.004 C
HETATM   13  C19 UNL     1      31.474  35.434  14.916  1.00  0.00     0.129 C
BRANCH  12  14
HETATM   14  C10 UNL     1      30.841  33.165  15.507  1.00  0.00     0.006 C
BRANCH  14  15
HETATM   15  C9  UNL     1      31.904  32.201  15.935  1.00  0.00     0.000 C
BRANCH  15  16
HETATM   16  C8  UNL     1      31.421  31.029  16.685  1.00  0.00     0.000 C
BRANCH  16  17
HETATM   17  C7  UNL     1      29.953  30.736  16.572  1.00  0.00     0.000 C
BRANCH  17  18
HETATM   18  C6  UNL     1      29.661  29.381  15.969  1.00  0.00     0.000 C
BRANCH  18  19
HETATM   19  C5  UNL     1      30.034  29.344  14.534  1.00  0.00     0.000 C
BRANCH  19  20
HETATM   20  C4  UNL     1      31.066  28.398  14.120  1.00  0.00     0.000 C
BRANCH  20  21
HETATM   21  C3  UNL     1      32.366  28.900  13.659  1.00  0.00    -0.000 C
BRANCH  21  22
HETATM   22  C2  UNL     1      32.476  30.266  13.112  1.00  0.00    -0.005 C
HETATM   23  C1  UNL     1      33.909  30.469  12.548  1.00  0.00     0.005 C
ENDBRANCH  21  22
ENDBRANCH  20  21
ENDBRANCH  19  20
ENDBRANCH  18  19
ENDBRANCH  17  18
ENDBRANCH  16  17
ENDBRANCH  15  16
ENDBRANCH  14  15
ENDBRANCH  12  14
ENDBRANCH   7   8
BRANCH   7  24
HETATM   24  O1  UNL     1      33.987  37.101  14.637  1.00  0.00    -0.344 OA
ATOM     25  H1  UNL     1      33.990  36.494  15.368  1.00  0.00     0.219 HD
ENDBRANCH   7  24
ENDBRANCH   5   7
ENDBRANCH   4   5
ENDBRANCH   1   4
TORSDOF 14
ENDMDL