MODEL 4
REMARK VINA RESULT: -7.648942759      1.629      3.051
REMARK  13 active torsions:
REMARK  status: ('A' for Active; 'I' for Inactive)
REMARK    1  A    between atoms: C2_2  and  C3_3
REMARK    2  A    between atoms: C3_3  and  C4_4
REMARK    3  A    between atoms: C4_4  and  C5_5
REMARK    4  A    between atoms: C5_5  and  C6_6
REMARK    5  A    between atoms: C6_6  and  C7_7
REMARK    6  A    between atoms: C7_7  and  C8_8
REMARK    7  A    between atoms: C9_9  and  C10_10
REMARK    8  A    between atoms: C10_10  and  C11_11
REMARK    9  A    between atoms: C11_11  and  C12_12
REMARK   10  A    between atoms: C12_12  and  C13_13
REMARK   11  A    between atoms: C13_13  and  C14_14
REMARK   12  A    between atoms: C14_14  and  C15_15
REMARK   13  A    between atoms: C15_15  and  N1_16
ROOT
HETATM    1  C12 UNL     1      30.458  29.080  13.296  1.00  0.00     0.000 C
ENDROOT
BRANCH   1   2
HETATM    2  C11 UNL     1      31.917  29.012  13.668  1.00  0.00     0.004 C
BRANCH   2   3
HETATM    3  C10 UNL     1      32.573  30.349  13.303  1.00  0.00     0.027 C
BRANCH   3   4
HETATM    4  C9  UNL     1      32.018  31.331  14.253  1.00  0.00    -0.031 C
HETATM    5  C8  UNL     1      32.066  32.623  14.083  1.00  0.00    -0.031 C
BRANCH   5   6
HETATM    6  C7  UNL     1      32.679  33.278  12.928  1.00  0.00     0.027 C
BRANCH   6   7
HETATM    7  C6  UNL     1      31.883  34.522  12.577  1.00  0.00     0.004 C
BRANCH   7   8
HETATM    8  C5  UNL     1      31.795  35.398  13.798  1.00  0.00     0.000 C
BRANCH   8   9
HETATM    9  C4  UNL     1      32.366  36.788  13.477  1.00  0.00     0.000 C
BRANCH   9  10
HETATM   10  C3  UNL     1      33.406  37.100  14.500  1.00  0.00    -0.000 C
BRANCH  10  11
HETATM   11  C2  UNL     1      33.806  38.539  14.528  1.00  0.00    -0.005 C
HETATM   12  C1  UNL     1      33.089  39.342  13.472  1.00  0.00     0.005 C
ENDBRANCH  10  11
ENDBRANCH   9  10
ENDBRANCH   8   9
ENDBRANCH   7   8
ENDBRANCH   6   7
ENDBRANCH   5   6
ENDBRANCH   3   4
ENDBRANCH   2   3
ENDBRANCH   1   2
BRANCH   1  13
HETATM   13  C13 UNL     1      29.811  27.763  13.625  1.00  0.00     0.002 C
BRANCH  13  14
HETATM   14  C14 UNL     1      28.629  27.979  14.512  1.00  0.00     0.020 C
BRANCH  14  15
HETATM   15  C15 UNL     1      28.855  27.390  15.902  1.00  0.00     0.126 C
BRANCH  15  16
HETATM   16  N1  UNL     1      29.859  28.115  16.656  1.00  0.00    -0.350 N
HETATM   17  C16 UNL     1      29.647  29.497  17.063  1.00  0.00     0.140 C
HETATM   18  C17 UNL     1      30.032  29.712  18.528  1.00  0.00     0.160 C
HETATM   19  S1  UNL     1      31.787  29.450  18.633  1.00  0.00     0.154 S
HETATM   20  O1  UNL     1      32.499  30.740  18.454  1.00  0.00    -0.227 OA
HETATM   21  O2  UNL     1      32.065  28.782  19.937  1.00  0.00    -0.227 OA
HETATM   22  C18 UNL     1      32.295  28.324  17.329  1.00  0.00     0.243 C
HETATM   23  C19 UNL     1      31.090  27.507  17.028  1.00  0.00     0.233 C
HETATM   24  O3  UNL     1      31.144  26.255  17.099  1.00  0.00    -0.272 OA
ENDBRANCH  15  16
ENDBRANCH  14  15
ENDBRANCH  13  14
ENDBRANCH   1  13
TORSDOF 13
ENDMDL