MODEL 4
REMARK VINA RESULT: -7.611031240      1.445      3.150
REMARK  12 active torsions:
REMARK  status: ('A' for Active; 'I' for Inactive)
REMARK    1  A    between atoms: C2_2  and  C3_3
REMARK    2  A    between atoms: C3_3  and  C4_4
REMARK    3  A    between atoms: C4_4  and  C5_5
REMARK    4  A    between atoms: C5_5  and  C6_6
REMARK    5  A    between atoms: C6_6  and  C7_7
REMARK    6  A    between atoms: C7_7  and  C8_8
REMARK    7  A    between atoms: C8_8  and  C9_9
REMARK    8  A    between atoms: C9_9  and  C10_10
REMARK    9  A    between atoms: C10_10  and  C11_11
REMARK   10  A    between atoms: C11_11  and  C12_12
REMARK   11  A    between atoms: C12_12  and  C13_13
REMARK   12  A    between atoms: N1_22  and  C19_23
ROOT
HETATM    1  C13 UNL     1      29.376  30.260  14.671  1.00  0.00     0.187 C
HETATM    2  C14 UNL     1      28.665  29.440  13.673  1.00  0.00     0.284 C
HETATM    3  O1  UNL     1      27.667  29.855  13.091  1.00  0.00    -0.263 OA
HETATM    4  O2  UNL     1      29.168  28.182  13.425  1.00  0.00    -0.286 OA
HETATM    5  C15 UNL     1      30.164  27.643  14.310  1.00  0.00     0.292 C
HETATM    6  O3  UNL     1      29.973  26.269  14.326  1.00  0.00    -0.359 OA
HETATM    7  C16 UNL     1      29.761  25.834  15.602  1.00  0.00     0.173 C
HETATM    8  C17 UNL     1      29.072  27.038  16.259  1.00  0.00     0.057 C
HETATM    9  C18 UNL     1      29.993  28.124  15.729  1.00  0.00     0.145 C
HETATM   10  N1  UNL     1      29.457  29.444  15.859  1.00  0.00    -0.336 N
ENDROOT
BRANCH   1  11
HETATM   11  C12 UNL     1      28.809  31.611  14.922  1.00  0.00     0.035 C
BRANCH  11  12
HETATM   12  C11 UNL     1      29.693  32.747  14.452  1.00  0.00     0.002 C
BRANCH  12  13
HETATM   13  C10 UNL     1      31.115  32.567  14.829  1.00  0.00     0.000 C
BRANCH  13  14
HETATM   14  C9  UNL     1      32.023  33.307  13.880  1.00  0.00     0.000 C
BRANCH  14  15
HETATM   15  C8  UNL     1      31.311  34.404  13.187  1.00  0.00     0.000 C
BRANCH  15  16
HETATM   16  C7  UNL     1      32.112  35.695  13.029  1.00  0.00     0.004 C
BRANCH  16  17
HETATM   17  C6  UNL     1      32.451  36.272  14.362  1.00  0.00     0.027 C
BRANCH  17  18
HETATM   18  C5  UNL     1      33.382  37.409  14.399  1.00  0.00    -0.031 C
BRANCH  18  19
HETATM   19  C4  UNL     1      33.224  38.608  13.590  1.00  0.00    -0.031 C
BRANCH  19  20
HETATM   20  C3  UNL     1      33.063  39.946  14.191  1.00  0.00     0.026 C
BRANCH  20  21
HETATM   21  C2  UNL     1      33.919  39.926  15.491  1.00  0.00    -0.001 C
HETATM   22  C1  UNL     1      34.054  41.351  15.984  1.00  0.00     0.005 C
ENDBRANCH  20  21
ENDBRANCH  19  20
ENDBRANCH  18  19
ENDBRANCH  17  18
ENDBRANCH  16  17
ENDBRANCH  15  16
ENDBRANCH  14  15
ENDBRANCH  13  14
ENDBRANCH  12  13
ENDBRANCH  11  12
ENDBRANCH   1  11
BRANCH  10  23
HETATM   23  C19 UNL     1      29.023  29.938  17.094  1.00  0.00     0.352 C
HETATM   24  O4  UNL     1      29.814  30.158  18.062  1.00  0.00    -0.283 OA
ENDBRANCH  10  23
TORSDOF 12
ENDMDL