MODEL 1
REMARK VINA RESULT: -7.263680641      0.000      0.000
REMARK  13 active torsions:
REMARK  status: ('A' for Active; 'I' for Inactive)
REMARK    1  A    between atoms: C1_2  and  C2_3
REMARK    2  A    between atoms: C1_2  and  O2_16
REMARK    3  A    between atoms: C2_3  and  C3_4
REMARK    4  A    between atoms: C3_4  and  C4_5
REMARK    5  A    between atoms: C4_5  and  C5_6
REMARK    6  A    between atoms: C5_6  and  C6_7
REMARK    7  A    between atoms: C6_7  and  C7_8
REMARK    8  A    between atoms: C7_8  and  C8_9
REMARK    9  A    between atoms: C8_9  and  C9_10
REMARK   10  A    between atoms: C9_10  and  N1_11
REMARK   11  A    between atoms: O2_16  and  C14_17
REMARK   12  A    between atoms: C14_17  and  C15_18
REMARK   13  A    between atoms: C15_18  and  N2_19
ROOT
HETATM    1  C2  UNL     1      29.765  32.174  14.583  1.00  0.00     0.111 C
ENDROOT
BRANCH   1   2
HETATM    2  C1  UNL     1      28.861  31.008  14.702  1.00  0.00     0.259 C
HETATM    3  O1  UNL     1      27.945  31.058  15.554  1.00  0.00    -0.265 OA
BRANCH   2   4
HETATM    4  O2  UNL     1      29.024  29.874  13.879  1.00  0.00    -0.316 OA
BRANCH   4   5
HETATM    5  C14 UNL     1      30.202  29.150  13.943  1.00  0.00     0.223 C
BRANCH   5   6
HETATM    6  C15 UNL     1      30.182  28.009  14.872  1.00  0.00     0.084 C
BRANCH   6   7
HETATM    7  N2  UNL     1      30.108  28.212  16.254  1.00  0.00    -0.391 N
HETATM    8  C16 UNL     1      31.185  28.086  17.125  1.00  0.00     0.122 C
HETATM    9  C17 UNL     1      31.161  29.323  18.054  1.00  0.00     0.020 C
HETATM   10  C18 UNL     1      29.713  29.719  18.190  1.00  0.00     0.002 C
HETATM   11  C19 UNL     1      29.034  28.642  19.010  1.00  0.00     0.002 C
HETATM   12  C20 UNL     1      28.802  27.388  18.196  1.00  0.00     0.020 C
HETATM   13  C21 UNL     1      28.871  27.614  16.731  1.00  0.00     0.122 C
ENDBRANCH   6   7
ENDBRANCH   5   6
ENDBRANCH   4   5
ENDBRANCH   2   4
ENDBRANCH   1   2
BRANCH   1  14
HETATM   14  C3  UNL     1      30.858  32.197  15.656  1.00  0.00     0.013 C
BRANCH  14  15
HETATM   15  C4  UNL     1      32.205  32.430  15.047  1.00  0.00     0.027 C
BRANCH  15  16
HETATM   16  C5  UNL     1      32.321  32.546  13.597  1.00  0.00    -0.031 C
BRANCH  16  17
HETATM   17  C6  UNL     1      32.543  33.781  12.875  1.00  0.00    -0.031 C
BRANCH  17  18
HETATM   18  C7  UNL     1      31.564  34.868  12.812  1.00  0.00     0.028 C
BRANCH  18  19
HETATM   19  C8  UNL     1      31.618  35.729  14.083  1.00  0.00     0.034 C
BRANCH  19  20
HETATM   20  C9  UNL     1      32.909  36.454  14.251  1.00  0.00     0.272 C
BRANCH  20  21
HETATM   21  N1  UNL     1      32.589  37.887  14.112  1.00  0.00     0.088 N
HETATM   22  C10 UNL     1      33.783  38.686  14.342  1.00  0.00     0.272 C
HETATM   23  C11 UNL     1      33.350  39.890  15.117  1.00  0.00     0.032 C
HETATM   24  C12 UNL     1      31.840  39.796  15.137  1.00  0.00     0.032 C
HETATM   25  C13 UNL     1      31.639  38.282  15.108  1.00  0.00     0.272 C
ENDBRANCH  20  21
ENDBRANCH  19  20
ENDBRANCH  18  19
ENDBRANCH  17  18
ENDBRANCH  16  17
ENDBRANCH  15  16
ENDBRANCH  14  15
ENDBRANCH   1  14
TORSDOF 13
ENDMDL