MODEL 2
REMARK VINA RESULT: -7.298847970      1.005      1.967
REMARK  12 active torsions:
REMARK  status: ('A' for Active; 'I' for Inactive)
REMARK    1  A    between atoms: N1_2  and  C2_3
REMARK    2  A    between atoms: C2_3  and  C3_4
REMARK    3  A    between atoms: C3_4  and  C4_5
REMARK    4  A    between atoms: C4_5  and  S1_6
REMARK    5  A    between atoms: S1_6  and  C5_7
REMARK    6  A    between atoms: C5_7  and  C7_10
REMARK    7  A    between atoms: C7_10  and  C8_11
REMARK    8  A    between atoms: C8_11  and  C9_12
REMARK    9  A    between atoms: C9_12  and  C10_13
REMARK   10  A    between atoms: C10_13  and  C11_14
REMARK   11  A    between atoms: C11_14  and  C12_15
REMARK   12  A    between atoms: C12_15  and  C13_16
ROOT
HETATM    1  C5  UNL     1      32.310  33.768  13.946  1.00  0.00     0.154 C
HETATM    2  C6  UNL     1      32.988  32.649  13.345  1.00  0.00     0.074 C
HETATM    3  N2  UNL     1      33.517  31.745  12.855  1.00  0.00    -0.196 NA
ENDROOT
BRANCH   1   4
HETATM    4  S1  UNL     1      31.101  33.208  15.173  1.00  0.00    -0.149 SA
BRANCH   4   5
HETATM    5  C4  UNL     1      29.424  33.138  14.426  1.00  0.00     0.077 C
BRANCH   5   6
HETATM    6  C3  UNL     1      28.867  31.800  14.758  1.00  0.00     0.038 C
BRANCH   6   7
HETATM    7  C2  UNL     1      29.806  30.653  14.675  1.00  0.00     0.240 C
BRANCH   7   8
HETATM    8  N1  UNL     1      29.425  29.455  15.337  1.00  0.00    -0.038 N
HETATM    9  C1  UNL     1      28.869  29.753  16.627  1.00  0.00     0.275 C
HETATM   10  C15 UNL     1      30.614  28.629  15.593  1.00  0.00     0.508 C
HETATM   11  N4  UNL     1      30.269  27.263  15.258  1.00  0.00     0.116 N
HETATM   12  C16 UNL     1      30.351  27.194  13.789  1.00  0.00     0.277 C
HETATM   13  C19 UNL     1      28.801  27.295  15.391  1.00  0.00     0.308 C
HETATM   14  C17 UNL     1      29.292  28.172  13.297  1.00  0.00     0.065 C
HETATM   15  C18 UNL     1      28.597  28.570  14.548  1.00  0.00     0.222 C
ENDBRANCH   7   8
ENDBRANCH   6   7
ENDBRANCH   5   6
ENDBRANCH   4   5
ENDBRANCH   1   4
BRANCH   1  16
HETATM   16  C7  UNL     1      31.515  34.591  12.921  1.00  0.00     0.030 C
BRANCH  16  17
HETATM   17  C8  UNL     1      32.165  35.958  12.930  1.00  0.00     0.002 C
BRANCH  17  18
HETATM   18  C9  UNL     1      32.330  36.523  14.300  1.00  0.00     0.000 C
BRANCH  18  19
HETATM   19  C10 UNL     1      33.446  37.515  14.319  1.00  0.00     0.000 C
BRANCH  19  20
HETATM   20  C11 UNL     1      33.159  38.731  13.460  1.00  0.00     0.001 C
BRANCH  20  21
HETATM   21  C12 UNL     1      33.011  39.998  14.275  1.00  0.00     0.014 C
BRANCH  21  22
HETATM   22  C13 UNL     1      33.925  39.976  15.480  1.00  0.00     0.124 C
HETATM   23  C14 UNL     1      33.772  41.271  16.171  1.00  0.00     0.059 C
HETATM   24  N3  UNL     1      33.635  42.288  16.711  1.00  0.00    -0.197 NA
ENDBRANCH  21  22
ENDBRANCH  20  21
ENDBRANCH  19  20
ENDBRANCH  18  19
ENDBRANCH  17  18
ENDBRANCH  16  17
ENDBRANCH   1  16
TORSDOF 12
ENDMDL