MODEL 4
REMARK VINA RESULT: -7.241515841      1.289      1.921
REMARK  13 active torsions:
REMARK  status: ('A' for Active; 'I' for Inactive)
REMARK    1  A    between atoms: C2_2  and  C3_3
REMARK    2  A    between atoms: C3_3  and  C4_4
REMARK    3  A    between atoms: C4_4  and  C5_5
REMARK    4  A    between atoms: C6_6  and  C7_7
REMARK    5  A    between atoms: C6_6  and  C15_17
REMARK    6  A    between atoms: C7_7  and  C8_8
REMARK    7  A    between atoms: C8_8  and  S1_9
REMARK    8  A    between atoms: S1_9  and  C9_10
REMARK    9  A    between atoms: C9_10  and  C10_11
REMARK   10  A    between atoms: C10_11  and  N1_12
REMARK   11  A    between atoms: C15_17  and  O1_18
REMARK   12  A    between atoms: O1_18  and  C16_19
REMARK   13  A    between atoms: C16_19  and  C17_21
ROOT
HETATM    1  C5  UNL     1      33.031  33.006  12.831  1.00  0.00    -0.022 C
HETATM    2  C6  UNL     1      32.194  33.655  13.594  1.00  0.00    -0.059 C
ENDROOT
BRANCH   2   3
HETATM    3  C7  UNL     1      31.812  33.258  14.983  1.00  0.00     0.046 C
BRANCH   3   4
HETATM    4  C8  UNL     1      30.337  33.441  15.249  1.00  0.00     0.078 C
BRANCH   4   5
HETATM    5  S1  UNL     1      29.444  32.022  14.502  1.00  0.00    -0.167 SA
BRANCH   5   6
HETATM    6  C9  UNL     1      28.890  30.978  15.900  1.00  0.00     0.104 C
BRANCH   6   7
HETATM    7  C10 UNL     1      30.134  30.525  16.627  1.00  0.00     0.282 C
BRANCH   7   8
HETATM    8  N1  UNL     1      29.927  29.338  17.399  1.00  0.00     0.089 N
HETATM    9  C11 UNL     1      30.601  29.473  18.673  1.00  0.00     0.272 C
HETATM   10  C12 UNL     1      31.987  28.985  18.385  1.00  0.00     0.032 C
HETATM   11  C13 UNL     1      31.936  28.212  17.096  1.00  0.00     0.032 C
HETATM   12  C14 UNL     1      30.449  28.143  16.816  1.00  0.00     0.272 C
ENDBRANCH   7   8
ENDBRANCH   6   7
ENDBRANCH   5   6
ENDBRANCH   4   5
ENDBRANCH   3   4
ENDBRANCH   2   3
BRANCH   2  13
HETATM   13  C15 UNL     1      31.466  34.898  13.130  1.00  0.00     0.212 C
BRANCH  13  14
HETATM   14  O1  UNL     1      32.191  36.071  13.116  1.00  0.00    -0.317 OA
BRANCH  14  15
HETATM   15  C16 UNL     1      32.155  36.955  14.181  1.00  0.00     0.263 C
HETATM   16  O2  UNL     1      31.335  36.871  15.128  1.00  0.00    -0.265 OA
BRANCH  15  17
HETATM   17  C17 UNL     1      33.141  38.061  14.203  1.00  0.00     0.085 C
HETATM   18  C18 UNL     1      32.956  39.062  13.079  1.00  0.00     0.014 C
HETATM   19  C19 UNL     1      33.265  40.155  14.106  1.00  0.00     0.002 C
HETATM   20  C20 UNL     1      32.724  39.184  15.163  1.00  0.00     0.014 C
ENDBRANCH  15  17
ENDBRANCH  14  15
ENDBRANCH  13  14
ENDBRANCH   2  13
BRANCH   1  21
HETATM   21  C4  UNL     1      33.732  31.789  13.195  1.00  0.00     0.027 C
BRANCH  21  22
HETATM   22  C3  UNL     1      33.121  30.542  12.576  1.00  0.00     0.003 C
BRANCH  22  23
HETATM   23  C2  UNL     1      32.469  29.779  13.736  1.00  0.00    -0.004 C
HETATM   24  C1  UNL     1      31.199  29.111  13.300  1.00  0.00     0.005 C
ENDBRANCH  22  23
ENDBRANCH  21  22
ENDBRANCH   1  21
TORSDOF 13
ENDMDL