MODEL 4
REMARK VINA RESULT: -7.251848802      1.517      3.010
REMARK  13 active torsions:
REMARK  status: ('A' for Active; 'I' for Inactive)
REMARK    1  A    between atoms: C2_2  and  C3_3
REMARK    2  A    between atoms: C3_3  and  C4_4
REMARK    3  A    between atoms: C4_4  and  C5_5
REMARK    4  A    between atoms: C5_5  and  C6_6
REMARK    5  A    between atoms: C6_6  and  C7_7
REMARK    6  A    between atoms: C7_7  and  C8_8
REMARK    7  A    between atoms: C8_8  and  C9_9
REMARK    8  A    between atoms: C9_9  and  C10_10
REMARK    9  A    between atoms: C10_10  and  C11_11
REMARK   10  A    between atoms: C11_11  and  C12_12
REMARK       I    between atoms: C12_12  and  N1_14
REMARK   11  A    between atoms: C15_17  and  O2_18
REMARK   12  A    between atoms: O2_18  and  C16_19
REMARK   13  A    between atoms: C16_19  and  C17_21
ROOT
HETATM    1  C17 UNL     1      32.581  39.607  13.650  1.00  0.00     0.234 C
HETATM    2  C18 UNL     1      32.597  40.039  15.046  1.00  0.00     0.069 C
HETATM    3  N2  UNL     1      32.591  40.391  16.158  1.00  0.00    -0.197 NA
ENDROOT
BRANCH   1   4
HETATM    4  C16 UNL     1      33.016  38.191  13.572  1.00  0.00     0.272 C
HETATM    5  O3  UNL     1      34.129  37.838  14.050  1.00  0.00    -0.264 OA
BRANCH   4   6
HETATM    6  O2  UNL     1      32.211  37.256  12.981  1.00  0.00    -0.315 OA
BRANCH   6   7
HETATM    7  C15 UNL     1      32.097  35.970  13.557  1.00  0.00     0.135 C
HETATM    8  C14 UNL     1      31.430  36.002  14.919  1.00  0.00     0.052 C
HETATM    9  C13 UNL     1      31.759  34.675  15.583  1.00  0.00     0.128 C
HETATM   10  N1  UNL     1      31.211  33.635  14.724  1.00  0.00    -0.352 N
HETATM   11  C12 UNL     1      31.238  32.302  15.192  1.00  0.00     0.219 C
HETATM   12  C20 UNL     1      30.649  33.913  13.430  1.00  0.00     0.128 C
HETATM   13  O1  UNL     1      31.729  32.066  16.322  1.00  0.00    -0.273 OA
HETATM   14  C19 UNL     1      31.375  35.003  12.676  1.00  0.00     0.052 C
BRANCH  11  15
HETATM   15  C11 UNL     1      30.689  31.203  14.348  1.00  0.00     0.103 C
BRANCH  15  16
HETATM   16  C10 UNL     1      31.837  30.330  13.900  1.00  0.00     0.009 C
BRANCH  16  17
HETATM   17  C9  UNL     1      31.768  28.939  14.485  1.00  0.00     0.000 C
BRANCH  17  18
HETATM   18  C8  UNL     1      30.713  28.110  13.799  1.00  0.00     0.000 C
BRANCH  18  19
HETATM   19  C7  UNL     1      29.909  27.284  14.758  1.00  0.00     0.000 C
BRANCH  19  20
HETATM   20  C6  UNL     1      28.668  27.995  15.246  1.00  0.00     0.000 C
BRANCH  20  21
HETATM   21  C5  UNL     1      28.859  28.095  16.794  1.00  0.00     0.000 C
BRANCH  21  22
HETATM   22  C4  UNL     1      28.888  29.512  17.209  1.00  0.00     0.000 C
BRANCH  22  23
HETATM   23  C3  UNL     1      30.007  29.872  18.097  1.00  0.00    -0.000 C
BRANCH  23  24
HETATM   24  C2  UNL     1      31.113  28.929  18.355  1.00  0.00    -0.005 C
HETATM   25  C1  UNL     1      32.465  29.494  18.662  1.00  0.00     0.005 C
ENDBRANCH  23  24
ENDBRANCH  22  23
ENDBRANCH  21  22
ENDBRANCH  20  21
ENDBRANCH  19  20
ENDBRANCH  18  19
ENDBRANCH  17  18
ENDBRANCH  16  17
ENDBRANCH  15  16
ENDBRANCH  11  15
ENDBRANCH   6   7
ENDBRANCH   4   6
ENDBRANCH   1   4
TORSDOF 13
ENDMDL