MODEL 2
REMARK VINA RESULT: -7.817601033      2.418      3.032
REMARK  12 active torsions:
REMARK  status: ('A' for Active; 'I' for Inactive)
REMARK    1  A    between atoms: N1_2  and  C2_3
REMARK    2  A    between atoms: N1_2  and  C3_5
REMARK    3  A    between atoms: C3_5  and  C4_6
REMARK    4  A    between atoms: C4_6  and  C5_7
REMARK    5  A    between atoms: C5_7  and  C6_8
REMARK    6  A    between atoms: C6_8  and  C7_9
REMARK    7  A    between atoms: C7_9  and  C8_10
REMARK    8  A    between atoms: C8_10  and  C9_11
REMARK    9  A    between atoms: C9_11  and  C10_12
REMARK   10  A    between atoms: C10_12  and  C11_13
REMARK   11  A    between atoms: C11_13  and  C12_14
REMARK   12  A    between atoms: C12_14  and  C13_15
ROOT
HETATM    1  C11 UNL     1      28.607  30.246  14.507  1.00  0.00     0.002 C
ENDROOT
BRANCH   1   2
HETATM    2  C10 UNL     1      28.680  29.261  13.392  1.00  0.00     0.000 C
BRANCH   2   3
HETATM    3  C9  UNL     1      29.966  28.507  13.491  1.00  0.00     0.000 C
BRANCH   3   4
HETATM    4  C8  UNL     1      29.962  27.081  13.792  1.00  0.00     0.000 C
BRANCH   4   5
HETATM    5  C7  UNL     1      29.915  26.575  15.181  1.00  0.00     0.000 C
BRANCH   5   6
HETATM    6  C6  UNL     1      28.616  26.368  15.842  1.00  0.00     0.000 C
BRANCH   6   7
HETATM    7  C5  UNL     1      28.337  27.388  16.971  1.00  0.00     0.002 C
BRANCH   7   8
HETATM    8  C4  UNL     1      28.454  26.707  18.290  1.00  0.00     0.020 C
BRANCH   8   9
HETATM    9  C3  UNL     1      29.074  27.598  19.348  1.00  0.00     0.124 C
BRANCH   9  10
HETATM   10  N1  UNL     1      30.468  27.766  19.064  1.00  0.00    -0.364 N
HETATM   11  C1  UNL     1      31.314  26.606  18.932  1.00  0.00     0.152 C
BRANCH  10  12
HETATM   12  C2  UNL     1      31.007  29.050  18.896  1.00  0.00     0.350 C
HETATM   13  O1  UNL     1      30.271  30.058  18.922  1.00  0.00    -0.284 OA
ENDBRANCH  10  12
ENDBRANCH   9  10
ENDBRANCH   8   9
ENDBRANCH   7   8
ENDBRANCH   6   7
ENDBRANCH   5   6
ENDBRANCH   4   5
ENDBRANCH   3   4
ENDBRANCH   2   3
ENDBRANCH   1   2
BRANCH   1  14
HETATM   14  C12 UNL     1      29.789  30.411  15.387  1.00  0.00     0.032 C
BRANCH  14  15
HETATM   15  C13 UNL     1      30.405  31.743  15.547  1.00  0.00     0.133 C
HETATM   16  C14 UNL     1      31.643  32.023  14.756  1.00  0.00     0.052 C
HETATM   17  C15 UNL     1      31.393  33.438  14.247  1.00  0.00     0.050 C
HETATM   18  C16 UNL     1      32.198  33.716  13.009  1.00  0.00     0.020 C
HETATM   19  C20 UNL     1      31.766  34.400  15.328  1.00  0.00     0.020 C
HETATM   20  C21 UNL     1      29.946  33.432  14.033  1.00  0.00     0.268 C
HETATM   21  C17 UNL     1      31.976  35.120  12.558  1.00  0.00     0.001 C
HETATM   22  C18 UNL     1      32.128  36.148  13.634  1.00  0.00     0.000 C
HETATM   23  C19 UNL     1      31.383  35.789  14.898  1.00  0.00     0.001 C
HETATM   24  O2  UNL     1      29.241  33.957  13.114  1.00  0.00    -0.264 OA
HETATM   25  O3  UNL     1      29.424  32.698  15.090  1.00  0.00    -0.315 OA
ENDBRANCH  14  15
ENDBRANCH   1  14
TORSDOF 12
ENDMDL