MODEL 2
REMARK VINA RESULT: -7.619447325      3.254      5.797
REMARK  13 active torsions:
REMARK  status: ('A' for Active; 'I' for Inactive)
REMARK    1  A    between atoms: C3_3  and  O1_5
REMARK    2  A    between atoms: O1_5  and  C5_6
REMARK    3  A    between atoms: C5_6  and  C6_8
REMARK    4  A    between atoms: N1_13  and  C11_14
REMARK    5  A    between atoms: C11_14  and  C12_15
REMARK    6  A    between atoms: C12_15  and  C13_17
REMARK    7  A    between atoms: C13_17  and  C14_18
REMARK    8  A    between atoms: C14_18  and  C15_19
REMARK    9  A    between atoms: C15_19  and  C16_20
REMARK   10  A    between atoms: C16_20  and  C17_21
REMARK   11  A    between atoms: C17_21  and  C18_22
REMARK   12  A    between atoms: C18_22  and  C19_23
REMARK   13  A    between atoms: C19_23  and  C20_24
ROOT
HETATM    1  C1  UNL     1      32.190  29.078  13.794  1.00  0.00     0.015 C
HETATM    2  C2  UNL     1      31.112  28.551  13.655  1.00  0.00    -0.085 C
HETATM    3  C3  UNL     1      29.782  27.896  13.513  1.00  0.00     0.205 C
HETATM    4  C4  UNL     1      29.077  28.353  12.284  1.00  0.00     0.054 C
ENDROOT
BRANCH   3   5
HETATM    5  O1  UNL     1      29.101  28.186  14.720  1.00  0.00    -0.302 OA
BRANCH   5   6
HETATM    6  C5  UNL     1      28.880  27.241  15.717  1.00  0.00     0.283 C
HETATM    7  O2  UNL     1      27.911  26.467  15.570  1.00  0.00    -0.263 OA
BRANCH   6   8
HETATM    8  C6  UNL     1      29.818  27.228  16.876  1.00  0.00     0.183 C
HETATM    9  C7  UNL     1      29.953  25.737  17.233  1.00  0.00     0.035 C
HETATM   10  C8  UNL     1      31.052  25.609  18.233  1.00  0.00     0.004 C
HETATM   11  C9  UNL     1      30.799  26.524  19.408  1.00  0.00     0.020 C
HETATM   12  C10 UNL     1      29.463  27.248  19.271  1.00  0.00     0.123 C
HETATM   13  N1  UNL     1      29.367  27.900  18.015  1.00  0.00    -0.373 N
BRANCH  13  14
HETATM   14  C11 UNL     1      29.174  29.286  18.029  1.00  0.00     0.136 C
BRANCH  14  15
HETATM   15  C12 UNL     1      30.329  30.138  17.777  1.00  0.00     0.164 C
HETATM   16  O3  UNL     1      31.224  30.243  18.577  1.00  0.00    -0.292 OA
BRANCH  15  17
HETATM   17  C13 UNL     1      30.426  30.906  16.506  1.00  0.00     0.084 C
BRANCH  17  18
HETATM   18  C14 UNL     1      31.684  31.725  16.507  1.00  0.00     0.008 C
BRANCH  18  19
HETATM   19  C15 UNL     1      31.701  32.831  15.466  1.00  0.00     0.000 C
BRANCH  19  20
HETATM   20  C16 UNL     1      32.617  32.561  14.349  1.00  0.00     0.000 C
BRANCH  20  21
HETATM   21  C17 UNL     1      32.515  33.322  13.099  1.00  0.00     0.000 C
BRANCH  21  22
HETATM   22  C18 UNL     1      31.539  34.382  12.888  1.00  0.00     0.004 C
BRANCH  22  23
HETATM   23  C19 UNL     1      31.946  35.778  12.607  1.00  0.00     0.026 C
BRANCH  23  24
HETATM   24  C20 UNL     1      32.419  36.384  13.913  1.00  0.00    -0.037 C
HETATM   25  C21 UNL     1      31.632  36.500  14.955  1.00  0.00     0.007 C
ENDBRANCH  23  24
ENDBRANCH  22  23
ENDBRANCH  21  22
ENDBRANCH  20  21
ENDBRANCH  19  20
ENDBRANCH  18  19
ENDBRANCH  17  18
ENDBRANCH  15  17
ENDBRANCH  14  15
ENDBRANCH  13  14
ENDBRANCH   6   8
ENDBRANCH   5   6
ENDBRANCH   3   5
TORSDOF 13
ENDMDL