MODEL 1
REMARK VINA RESULT: -7.532044747      0.000      0.000
REMARK  13 active torsions:
REMARK  status: ('A' for Active; 'I' for Inactive)
REMARK       I    between atoms: N1_2  and  C3_4
REMARK    1  A    between atoms: C3_4  and  C4_6
REMARK    2  A    between atoms: C4_6  and  C5_7
REMARK    3  A    between atoms: C5_7  and  C6_8
REMARK    4  A    between atoms: C6_8  and  C7_9
REMARK    5  A    between atoms: C7_9  and  C8_10
REMARK    6  A    between atoms: C8_10  and  C9_11
REMARK    7  A    between atoms: C9_11  and  C10_12
REMARK    8  A    between atoms: C10_12  and  C11_13
REMARK    9  A    between atoms: C11_13  and  C12_14
REMARK   10  A    between atoms: C12_14  and  C13_15
REMARK   11  A    between atoms: C13_15  and  C14_16
REMARK   12  A    between atoms: C14_16  and  S1_18
REMARK   13  A    between atoms: S1_18  and  C15_19
ROOT
HETATM    1  C11 UNL     1      29.683  32.415  14.795  1.00  0.00     0.000 C
ENDROOT
BRANCH   1   2
HETATM    2  C10 UNL     1      31.027  32.236  15.418  1.00  0.00     0.000 C
BRANCH   2   3
HETATM    3  C9  UNL     1      31.965  31.685  14.340  1.00  0.00     0.000 C
BRANCH   3   4
HETATM    4  C8  UNL     1      32.955  32.789  13.941  1.00  0.00     0.004 C
BRANCH   4   5
HETATM    5  C7  UNL     1      32.609  33.352  12.621  1.00  0.00     0.027 C
BRANCH   5   6
HETATM    6  C6  UNL     1      31.904  34.634  12.620  1.00  0.00    -0.030 C
BRANCH   6   7
HETATM    7  C5  UNL     1      31.864  35.541  13.763  1.00  0.00    -0.022 C
BRANCH   7   8
HETATM    8  C4  UNL     1      32.755  36.712  13.868  1.00  0.00     0.129 C
BRANCH   8   9
HETATM    9  C3  UNL     1      32.015  37.749  14.697  1.00  0.00     0.222 C
HETATM   10  N1  UNL     1      32.270  39.129  14.522  1.00  0.00    -0.361 N
HETATM   11  C1  UNL     1      33.250  39.590  13.536  1.00  0.00     0.152 C
HETATM   12  C2  UNL     1      31.549  40.084  15.335  1.00  0.00     0.152 C
HETATM   13  O1  UNL     1      31.182  37.352  15.531  1.00  0.00    -0.273 OA
ENDBRANCH   8   9
ENDBRANCH   7   8
ENDBRANCH   6   7
ENDBRANCH   5   6
ENDBRANCH   4   5
ENDBRANCH   3   4
ENDBRANCH   2   3
ENDBRANCH   1   2
BRANCH   1  14
HETATM   14  C12 UNL     1      28.694  31.350  15.112  1.00  0.00     0.008 C
BRANCH  14  15
HETATM   15  C13 UNL     1      28.427  30.367  14.007  1.00  0.00     0.091 C
BRANCH  15  16
HETATM   16  C14 UNL     1      29.203  29.118  14.113  1.00  0.00     0.186 C
HETATM   17  O2  UNL     1      30.048  28.958  13.204  1.00  0.00    -0.285 OA
BRANCH  16  18
HETATM   18  S1  UNL     1      29.110  27.857  15.310  1.00  0.00    -0.085 SA
BRANCH  18  19
HETATM   19  C15 UNL     1      29.833  28.107  16.886  1.00  0.00     0.086 C
HETATM   20  C16 UNL     1      31.164  28.840  16.915  1.00  0.00     0.050 C
HETATM   21  C17 UNL     1      31.048  29.466  18.313  1.00  0.00     0.123 C
HETATM   22  C18 UNL     1      30.809  28.417  19.361  1.00  0.00     0.034 C
HETATM   23  O3  UNL     1      29.767  30.040  18.174  1.00  0.00    -0.379 OA
HETATM   24  C19 UNL     1      29.296  28.164  19.260  1.00  0.00     0.035 C
HETATM   25  C20 UNL     1      29.042  28.853  17.907  1.00  0.00     0.136 C
ENDBRANCH  18  19
ENDBRANCH  16  18
ENDBRANCH  15  16
ENDBRANCH  14  15
ENDBRANCH   1  14
TORSDOF 13
ENDMDL