MODEL 3
REMARK VINA RESULT: -6.445910700      3.234      8.804
REMARK  18 active torsions:
REMARK  status: ('A' for Active; 'I' for Inactive)
REMARK    1  A    between atoms: C2_2  and  C3_4
REMARK    2  A    between atoms: C3_4  and  C4_5
REMARK    3  A    between atoms: C3_4  and  N2_9
REMARK    4  A    between atoms: C4_5  and  C5_6
REMARK    5  A    between atoms: N2_9  and  C6_12
REMARK    6  A    between atoms: C6_12  and  C8_14
REMARK    7  A    between atoms: C8_14  and  N3_15
REMARK    8  A    between atoms: C8_14  and  C19_38
REMARK    9  A    between atoms: N3_15  and  C9_17
REMARK   10  A    between atoms: C9_17  and  C10_18
REMARK   11  A    between atoms: C9_17  and  C11_20
REMARK   12  A    between atoms: C11_20  and  C12_22
REMARK       I    between atoms: C12_22  and  N4_24
REMARK   13  A    between atoms: N4_24  and  C13_26
REMARK   14  A    between atoms: C13_26  and  C14_27
REMARK   15  A    between atoms: C13_26  and  C18_31
REMARK   16  A    between atoms: C14_27  and  C15_28
REMARK   17  A    between atoms: C18_31  and  N5_32
REMARK   18  A    between atoms: C18_31  and  O6_36
ROOT
HETATM    1  N3  UNL     1      57.148   1.623  40.648  1.00  0.00    -0.399 N
ATOM      2  H3  UNL     1      57.099   2.547  40.221  1.00  0.00     0.154 HD
ENDROOT
BRANCH   1   3
HETATM    3  C8  UNL     1      55.897   1.074  40.669  1.00  0.00     0.112 C
BRANCH   3   4
HETATM    4  C6  UNL     1      54.823   1.791  41.503  1.00  0.00     0.205 C
HETATM    5  C7  UNL     1      55.011   1.502  43.005  1.00  0.00     0.042 C
BRANCH   4   6
HETATM    6  N2  UNL     1      54.878   3.228  41.392  1.00  0.00    -0.058 N
ATOM      7  H22 UNL     1      54.381   3.556  40.564  1.00  0.00     0.278 HD
ATOM      8  H21 UNL     1      55.816   3.546  41.151  1.00  0.00     0.278 HD
BRANCH   6   9
HETATM    9  C3  UNL     1      54.388   3.884  42.601  1.00  0.00     0.263 C
BRANCH   9  10
HETATM   10  C2  UNL     1      53.084   4.571  42.401  1.00  0.00     0.154 C
HETATM   11  C1  UNL     1      52.088   4.863  43.448  1.00  0.00     0.093 C
HETATM   12  O1  UNL     1      52.786   4.940  41.259  1.00  0.00    -0.296 OA
ENDBRANCH   9  10
BRANCH   9  13
HETATM   13  C4  UNL     1      55.404   5.010  42.844  1.00  0.00     0.140 C
BRANCH  13  14
HETATM   14  C5  UNL     1      56.315   5.208  41.739  1.00  0.00     0.233 C
HETATM   15  N1  UNL     1      55.960   6.042  40.631  1.00  0.00    -0.062 NA
HETATM   16  O2  UNL     1      57.466   4.666  41.673  1.00  0.00    -0.277 OA
ENDBRANCH  13  14
ENDBRANCH   9  13
ENDBRANCH   6   9
ENDBRANCH   4   6
ENDBRANCH   3   4
BRANCH   3  17
HETATM   17  C19 UNL     1      55.272   0.807  39.306  1.00  0.00     0.010 C
HETATM   18  C20 UNL     1      56.151   1.113  38.130  1.00  0.00     0.007 C
HETATM   19  C21 UNL     1      55.198   1.113  36.911  1.00  0.00     0.000 C
HETATM   20  C22 UNL     1      54.637  -0.254  36.687  1.00  0.00     0.000 C
HETATM   21  C23 UNL     1      55.250  -1.163  37.699  1.00  0.00     0.000 C
HETATM   22  C24 UNL     1      55.036  -0.687  39.146  1.00  0.00     0.007 C
ENDBRANCH   3  17
ENDBRANCH   1   3
BRANCH   1  23
HETATM   23  C9  UNL     1      58.424   1.363  40.998  1.00  0.00     0.219 C
BRANCH  23  24
HETATM   24  C10 UNL     1      59.365   2.241  40.196  1.00  0.00     0.264 C
HETATM   25  O3  UNL     1      58.930   2.837  39.237  1.00  0.00    -0.304 OA
ENDBRANCH  23  24
BRANCH  23  26
HETATM   26  C11 UNL     1      58.987  -0.005  40.839  1.00  0.00     0.245 C
HETATM   27  O4  UNL     1      59.118  -0.773  41.858  1.00  0.00    -0.284 OA
BRANCH  26  28
HETATM   28  C12 UNL     1      59.442  -0.634  39.630  1.00  0.00     0.290 C
HETATM   29  O5  UNL     1      58.651  -1.116  38.791  1.00  0.00    -0.264 OA
HETATM   30  N4  UNL     1      60.870  -0.734  39.322  1.00  0.00    -0.346 N
ATOM     31  H4  UNL     1      61.557  -0.340  39.964  1.00  0.00     0.163 HD
BRANCH  30  32
HETATM   32  C13 UNL     1      61.307  -1.383  38.122  1.00  0.00     0.141 C
BRANCH  32  33
HETATM   33  C14 UNL     1      62.375  -0.616  37.388  1.00  0.00     0.033 C
BRANCH  33  34
HETATM   34  C15 UNL     1      61.966   0.406  36.413  1.00  0.00    -0.021 C
HETATM   35  C16 UNL     1      61.243   1.613  36.900  1.00  0.00     0.009 C
HETATM   36  C17 UNL     1      63.256   0.905  35.728  1.00  0.00     0.009 C
ENDBRANCH  33  34
ENDBRANCH  32  33
BRANCH  32  37
HETATM   37  C18 UNL     1      61.617  -2.818  38.204  1.00  0.00     0.339 C
BRANCH  37  38
HETATM   38  N5  UNL     1      62.148  -3.234  39.490  1.00  0.00    -0.051 N
ATOM     39  H53 UNL     1      62.643  -2.464  39.940  1.00  0.00     0.277 HD
ATOM     40  H52 UNL     1      61.393  -3.370  40.162  1.00  0.00     0.277 HD
ATOM     41  H51 UNL     1      62.741  -4.063  39.445  1.00  0.00     0.277 HD
ENDBRANCH  37  38
BRANCH  37  42
HETATM   42  O6  UNL     1      60.459  -3.558  37.923  1.00  0.00    -0.368 OA
ATOM     43  H6  UNL     1      60.706  -4.440  37.670  1.00  0.00     0.212 HD
ENDBRANCH  37  42
ENDBRANCH  32  37
ENDBRANCH  30  32
ENDBRANCH  26  28
ENDBRANCH  23  26
ENDBRANCH   1  23
TORSDOF 18
ENDMDL