MODEL 3
REMARK VINA RESULT: -6.865284965      1.069      1.222
REMARK  16 active torsions:
REMARK  status: ('A' for Active; 'I' for Inactive)
REMARK    1  A    between atoms: C2_2  and  C3_3
REMARK    2  A    between atoms: C3_3  and  C4_4
REMARK    3  A    between atoms: C4_4  and  O1_6
REMARK    4  A    between atoms: O1_6  and  C6_7
REMARK    5  A    between atoms: C6_7  and  C7_8
REMARK    6  A    between atoms: C6_7  and  C12_16
REMARK    7  A    between atoms: C7_8  and  C8_9
REMARK       I    between atoms: C12_16  and  N2_18
REMARK    8  A    between atoms: N2_18  and  C13_20
REMARK    9  A    between atoms: C13_20  and  O3_21
REMARK   10  A    between atoms: C13_20  and  C14_23
REMARK   11  A    between atoms: C14_23  and  C15_24
REMARK   12  A    between atoms: C14_23  and  C19_32
REMARK   13  A    between atoms: C15_24  and  C16_25
REMARK   14  A    between atoms: C16_25  and  C17_26
REMARK   15  A    between atoms: C17_26  and  N3_27
REMARK       I    between atoms: C19_32  and  N6_34
REMARK   16  A    between atoms: N6_34  and  C20_36
ROOT
HETATM    1  C13 UNL     1      55.928   0.349  40.358  1.00  0.00     0.233 C
ENDROOT
BRANCH   1   2
HETATM    2  N2  UNL     1      55.944   1.659  40.906  1.00  0.00    -0.332 N
HETATM    3  C12 UNL     1      55.178   2.745  40.446  1.00  0.00     0.248 C
HETATM    4  O2  UNL     1      54.410   2.619  39.497  1.00  0.00    -0.271 OA
ATOM      5  H2  UNL     1      56.562   1.826  41.700  1.00  0.00     0.165 HD
BRANCH   3   6
HETATM    6  C6  UNL     1      55.295   4.139  41.139  1.00  0.00     0.214 C
BRANCH   6   7
HETATM    7  O1  UNL     1      54.124   4.791  41.044  1.00  0.00    -0.372 OA
BRANCH   7   8
HETATM    8  C4  UNL     1      53.315   4.695  42.196  1.00  0.00     0.118 C
HETATM    9  C5  UNL     1      53.968   5.036  43.478  1.00  0.00     0.039 C
BRANCH   8  10
HETATM   10  C3  UNL     1      52.094   5.504  41.962  1.00  0.00     0.031 C
BRANCH  10  11
HETATM   11  C2  UNL     1      51.004   5.533  42.953  1.00  0.00    -0.002 C
HETATM   12  C1  UNL     1      49.639   5.908  42.515  1.00  0.00     0.005 C
ENDBRANCH  10  11
ENDBRANCH   8  10
ENDBRANCH   7   8
ENDBRANCH   6   7
BRANCH   6  13
HETATM   13  C7  UNL     1      56.415   4.727  40.370  1.00  0.00     0.048 C
BRANCH  13  14
HETATM   14  C8  UNL     1      57.642   5.187  41.026  1.00  0.00     0.016 C
HETATM   15  C9  UNL     1      58.035   4.435  42.239  1.00  0.00     0.034 C
HETATM   16  C10 UNL     1      57.960   5.455  43.359  1.00  0.00     0.232 C
HETATM   17  N1  UNL     1      58.183   6.715  42.690  1.00  0.00    -0.075 N
HETATM   18  C11 UNL     1      57.419   6.639  41.452  1.00  0.00     0.237 C
ATOM     19  H12 UNL     1      57.958   7.530  43.262  1.00  0.00     0.277 HD
ATOM     20  H11 UNL     1      59.169   6.937  42.551  1.00  0.00     0.277 HD
ENDBRANCH  13  14
ENDBRANCH   6  13
ENDBRANCH   3   6
ENDBRANCH   1   2
BRANCH   1  21
HETATM   21  O3  UNL     1      56.726  -0.458  41.209  1.00  0.00    -0.376 OA
ATOM     22  H3  UNL     1      57.629  -0.322  40.945  1.00  0.00     0.212 HD
ENDBRANCH   1  21
BRANCH   1  23
HETATM   23  C14 UNL     1      56.444   0.235  38.933  1.00  0.00     0.126 C
BRANCH  23  24
HETATM   24  C15 UNL     1      55.947  -1.039  38.298  1.00  0.00     0.020 C
BRANCH  24  25
HETATM   25  C16 UNL     1      54.851  -0.884  37.305  1.00  0.00     0.021 C
BRANCH  25  26
HETATM   26  C17 UNL     1      54.676   0.577  36.905  1.00  0.00     0.122 C
BRANCH  26  27
HETATM   27  N3  UNL     1      53.292   0.910  37.013  1.00  0.00    -0.367 N
HETATM   28  C18 UNL     1      52.730   1.649  36.130  1.00  0.00     0.196 C
HETATM   29  N4  UNL     1      51.353   2.012  36.190  1.00  0.00    -0.067 NA
HETATM   30  N5  UNL     1      53.515   2.126  35.045  1.00  0.00    -0.067 NA
ATOM     31  H3  UNL     1      52.746   0.558  37.799  1.00  0.00     0.161 HD
ENDBRANCH  26  27
ENDBRANCH  25  26
ENDBRANCH  24  25
ENDBRANCH  23  24
BRANCH  23  32
HETATM   32  C19 UNL     1      57.898   0.410  38.855  1.00  0.00     0.226 C
HETATM   33  O4  UNL     1      58.669  -0.588  38.816  1.00  0.00    -0.273 OA
HETATM   34  N6  UNL     1      58.470   1.699  38.822  1.00  0.00    -0.356 N
ATOM     35  H6  UNL     1      57.852   2.509  38.855  1.00  0.00     0.162 HD
BRANCH  34  36
HETATM   36  C20 UNL     1      59.879   1.915  38.743  1.00  0.00     0.087 C
HETATM   37  C21 UNL     1      60.376   2.965  39.709  1.00  0.00     0.044 C
HETATM   38  C22 UNL     1      61.887   2.867  39.728  1.00  0.00     0.115 C
HETATM   39  N7  UNL     1      62.399   1.972  38.742  1.00  0.00    -0.421 N
HETATM   40  C23 UNL     1      61.900   2.186  37.417  1.00  0.00     0.115 C
ATOM     41  H7  UNL     1      63.069   1.236  38.964  1.00  0.00     0.153 HD
HETATM   42  C24 UNL     1      60.381   2.267  37.367  1.00  0.00     0.044 C
ENDBRANCH  34  36
ENDBRANCH  23  32
ENDBRANCH   1  23
TORSDOF 16
ENDMDL