MODEL 2
REMARK VINA RESULT: -6.197998966      3.630      5.299
REMARK  20 active torsions:
REMARK  status: ('A' for Active; 'I' for Inactive)
REMARK    1  A    between atoms: C2_2  and  O1_4
REMARK    2  A    between atoms: O1_4  and  C4_5
REMARK    3  A    between atoms: C4_5  and  C5_7
REMARK    4  A    between atoms: C5_7  and  N1_8
REMARK    5  A    between atoms: C5_7  and  C22_44
REMARK    6  A    between atoms: N1_8  and  C6_11
REMARK    7  A    between atoms: C6_11  and  C7_12
REMARK    8  A    between atoms: C6_11  and  C12_21
REMARK    9  A    between atoms: C7_12  and  C8_13
REMARK   10  A    between atoms: C8_13  and  C9_14
REMARK   11  A    between atoms: C9_14  and  C10_15
REMARK   12  A    between atoms: C10_15  and  N2_16
REMARK       I    between atoms: C12_21  and  N5_23
REMARK   13  A    between atoms: N5_23  and  C13_25
REMARK   14  A    between atoms: C13_25  and  C14_26
REMARK   15  A    between atoms: C13_25  and  C15_31
REMARK   16  A    between atoms: C14_26  and  N6_27
REMARK   17  A    between atoms: C15_31  and  O4_32
REMARK   18  A    between atoms: C15_31  and  C16_34
REMARK   19  A    between atoms: C20_38  and  C21_39
REMARK   20  A    between atoms: C21_39  and  N7_40
ROOT
HETATM    1  C6  UNL     1      56.754   0.350  39.048  1.00  0.00     0.278 C
ENDROOT
BRANCH   1   2
HETATM    2  N1  UNL     1      56.524   1.755  39.143  1.00  0.00    -0.049 N
ATOM      3  H12 UNL     1      55.918   2.080  38.389  1.00  0.00     0.279 HD
ATOM      4  H11 UNL     1      57.367   2.282  38.915  1.00  0.00     0.279 HD
BRANCH   2   5
HETATM    5  C5  UNL     1      55.998   2.143  40.440  1.00  0.00     0.288 C
BRANCH   5   6
HETATM    6  C4  UNL     1      54.786   2.961  40.364  1.00  0.00     0.290 C
HETATM    7  O2  UNL     1      54.302   3.422  39.275  1.00  0.00    -0.263 OA
BRANCH   6   8
HETATM    8  O1  UNL     1      54.047   3.307  41.501  1.00  0.00    -0.315 OA
BRANCH   8   9
HETATM    9  C2  UNL     1      53.957   4.612  42.012  1.00  0.00     0.123 C
HETATM   10  C1  UNL     1      54.629   4.790  43.329  1.00  0.00     0.040 C
HETATM   11  C3  UNL     1      52.511   5.102  42.007  1.00  0.00     0.040 C
ENDBRANCH   8   9
ENDBRANCH   6   8
ENDBRANCH   5   6
BRANCH   5  12
HETATM   12  C22 UNL     1      57.067   2.880  41.190  1.00  0.00     0.018 C
HETATM   13  C23 UNL     1      57.941   3.742  40.351  1.00  0.00     0.012 C
HETATM   14  C24 UNL     1      57.910   1.939  42.033  1.00  0.00     0.012 C
ENDBRANCH   5  12
ENDBRANCH   2   5
ENDBRANCH   1   2
BRANCH   1  15
HETATM   15  C7  UNL     1      55.902  -0.298  38.011  1.00  0.00     0.043 C
BRANCH  15  16
HETATM   16  C8  UNL     1      55.333   0.791  37.089  1.00  0.00     0.004 C
BRANCH  16  17
HETATM   17  C9  UNL     1      53.830   0.628  36.938  1.00  0.00     0.020 C
BRANCH  17  18
HETATM   18  C10 UNL     1      53.269   1.775  36.139  1.00  0.00     0.122 C
BRANCH  18  19
HETATM   19  N2  UNL     1      51.837   1.671  35.979  1.00  0.00    -0.367 N
HETATM   20  C11 UNL     1      51.310   2.097  34.889  1.00  0.00     0.196 C
HETATM   21  N3  UNL     1      52.152   2.649  33.891  1.00  0.00    -0.067 NA
HETATM   22  N4  UNL     1      49.926   2.035  34.644  1.00  0.00    -0.067 NA
ATOM     23  H2  UNL     1      51.258   1.268  36.716  1.00  0.00     0.161 HD
ENDBRANCH  18  19
ENDBRANCH  17  18
ENDBRANCH  16  17
ENDBRANCH  15  16
ENDBRANCH   1  15
BRANCH   1  24
HETATM   24  C12 UNL     1      58.176  -0.010  38.831  1.00  0.00     0.249 C
HETATM   25  O3  UNL     1      58.474  -1.225  38.784  1.00  0.00    -0.271 OA
HETATM   26  N5  UNL     1      59.195   0.952  38.671  1.00  0.00    -0.351 N
ATOM     27  H5  UNL     1      58.952   1.942  38.713  1.00  0.00     0.163 HD
BRANCH  26  28
HETATM   28  C13 UNL     1      60.560   0.577  38.450  1.00  0.00     0.139 C
BRANCH  28  29
HETATM   29  C14 UNL     1      61.325   0.468  39.722  1.00  0.00     0.257 C
BRANCH  29  30
HETATM   30  N6  UNL     1      61.366  -0.876  40.220  1.00  0.00    -0.077 N
ATOM     31  H63 UNL     1      61.768  -1.512  39.530  1.00  0.00     0.274 HD
ATOM     32  H62 UNL     1      62.064  -0.975  40.958  1.00  0.00     0.274 HD
ATOM     33  H61 UNL     1      60.452  -1.203  40.532  1.00  0.00     0.274 HD
ENDBRANCH  29  30
ENDBRANCH  28  29
BRANCH  28  34
HETATM   34  C15 UNL     1      61.258   1.360  37.353  1.00  0.00     0.147 C
BRANCH  34  35
HETATM   35  O4  UNL     1      60.362   2.380  37.027  1.00  0.00    -0.393 OA
ATOM     36  H4  UNL     1      60.327   2.924  37.806  1.00  0.00     0.210 HD
ENDBRANCH  34  35
BRANCH  34  37
HETATM   37  C16 UNL     1      62.636   1.808  37.626  1.00  0.00     0.022 C
HETATM   38  C17 UNL     1      62.937   3.261  37.442  1.00  0.00     0.007 C
HETATM   39  C18 UNL     1      64.213   3.336  36.580  1.00  0.00     0.001 C
HETATM   40  C19 UNL     1      64.101   2.019  35.780  1.00  0.00     0.007 C
HETATM   41  C20 UNL     1      63.756   1.108  36.943  1.00  0.00     0.017 C
BRANCH  41  42
HETATM   42  C21 UNL     1      63.623  -0.307  36.570  1.00  0.00     0.234 C
BRANCH  42  43
HETATM   43  N7  UNL     1      64.675  -0.904  35.812  1.00  0.00    -0.079 N
ATOM     44  H73 UNL     1      64.428  -0.880  34.823  1.00  0.00     0.274 HD
ATOM     45  H72 UNL     1      65.487  -0.286  35.826  1.00  0.00     0.274 HD
ATOM     46  H71 UNL     1      64.969  -1.848  36.060  1.00  0.00     0.274 HD
ENDBRANCH  42  43
ENDBRANCH  41  42
ENDBRANCH  34  37
ENDBRANCH  28  34
ENDBRANCH  26  28
ENDBRANCH   1  24
TORSDOF 20
ENDMDL