MODEL 4
REMARK VINA RESULT: -6.477407873      1.433      1.774
REMARK  19 active torsions:
REMARK  status: ('A' for Active; 'I' for Inactive)
REMARK    1  A    between atoms: C2_2  and  C3_3
REMARK    2  A    between atoms: C3_3  and  C4_4
REMARK    3  A    between atoms: C4_4  and  C6_6
REMARK    4  A    between atoms: C6_6  and  N1_7
REMARK    5  A    between atoms: C6_6  and  C7_11
REMARK       I    between atoms: C7_11  and  N2_13
REMARK    6  A    between atoms: N2_13  and  C8_15
REMARK    7  A    between atoms: C8_15  and  N3_16
REMARK    8  A    between atoms: C8_15  and  C9_20
REMARK    9  A    between atoms: N3_16  and  O2_18
REMARK   10  A    between atoms: C9_20  and  C11_22
REMARK       I    between atoms: C11_22  and  N4_24
REMARK   11  A    between atoms: N4_24  and  C12_26
REMARK   12  A    between atoms: C12_26  and  C13_27
REMARK   13  A    between atoms: C12_26  and  C20_34
REMARK   14  A    between atoms: C13_27  and  C14_28
REMARK       I    between atoms: C20_34  and  N5_36
REMARK   15  A    between atoms: N5_36  and  C21_38
REMARK   16  A    between atoms: C21_38  and  C22_39
REMARK   17  A    between atoms: C21_38  and  C23_41
REMARK   18  A    between atoms: C23_41  and  O6_42
REMARK   19  A    between atoms: C23_41  and  O7_44
ROOT
HETATM    1  C11 UNL     1      59.248   0.261  38.973  1.00  0.00     0.226 C
HETATM    2  O3  UNL     1      59.702  -0.396  39.952  1.00  0.00    -0.273 OA
HETATM    3  N4  UNL     1      57.865   0.539  38.991  1.00  0.00    -0.347 N
ATOM      4  H4  UNL     1      57.465   1.070  38.217  1.00  0.00     0.163 HD
ENDROOT
BRANCH   1   5
HETATM    5  C9  UNL     1      60.165   0.681  37.909  1.00  0.00     0.118 C
HETATM    6  C10 UNL     1      60.463   2.165  37.946  1.00  0.00     0.024 C
BRANCH   5   7
HETATM    7  C8  UNL     1      61.501  -0.046  37.968  1.00  0.00     0.218 C
BRANCH   7   8
HETATM    8  N2  UNL     1      62.444   0.623  37.100  1.00  0.00    -0.336 N
HETATM    9  C7  UNL     1      63.817   0.274  37.124  1.00  0.00     0.250 C
HETATM   10  O1  UNL     1      64.200  -0.619  37.902  1.00  0.00    -0.271 OA
ATOM     11  H2  UNL     1      62.119   1.352  36.465  1.00  0.00     0.164 HD
BRANCH   9  12
HETATM   12  C6  UNL     1      64.802   0.948  36.244  1.00  0.00     0.278 C
BRANCH  12  13
HETATM   13  C4  UNL     1      64.448   2.357  35.912  1.00  0.00     0.021 C
HETATM   14  C5  UNL     1      64.838   3.283  37.045  1.00  0.00     0.012 C
BRANCH  13  15
HETATM   15  C3  UNL     1      64.992   2.781  34.597  1.00  0.00     0.006 C
BRANCH  15  16
HETATM   16  C2  UNL     1      65.816   4.074  34.726  1.00  0.00    -0.004 C
HETATM   17  C1  UNL     1      65.657   4.856  33.466  1.00  0.00     0.005 C
ENDBRANCH  15  16
ENDBRANCH  13  15
ENDBRANCH  12  13
BRANCH  12  18
HETATM   18  N1  UNL     1      64.876   0.140  35.016  1.00  0.00    -0.066 N
ATOM     19  H13 UNL     1      64.611   0.677  34.190  1.00  0.00     0.275 HD
ATOM     20  H12 UNL     1      65.840  -0.071  34.756  1.00  0.00     0.275 HD
ATOM     21  H11 UNL     1      64.314  -0.706  35.117  1.00  0.00     0.275 HD
ENDBRANCH  12  18
ENDBRANCH   9  12
ENDBRANCH   7   8
BRANCH   7  22
HETATM   22  N3  UNL     1      61.383  -1.433  37.687  1.00  0.00    -0.281 N
ATOM     23  H3  UNL     1      61.022  -1.715  36.776  1.00  0.00     0.189 HD
BRANCH  22  24
HETATM   24  O2  UNL     1      61.687  -2.290  38.468  1.00  0.00    -0.292 OA
ATOM     25  H2  UNL     1      62.567  -2.642  38.538  1.00  0.00     0.244 HD
ENDBRANCH  22  24
ENDBRANCH   7  22
ENDBRANCH   5   7
ENDBRANCH   1   5
BRANCH   3  26
HETATM   26  C12 UNL     1      56.967   0.096  40.083  1.00  0.00     0.177 C
BRANCH  26  27
HETATM   27  C13 UNL     1      55.735  -0.400  39.376  1.00  0.00     0.039 C
BRANCH  27  28
HETATM   28  C14 UNL     1      55.708  -0.315  37.903  1.00  0.00    -0.012 C
HETATM   29  C15 UNL     1      55.053   0.929  37.362  1.00  0.00     0.005 C
HETATM   30  C16 UNL     1      53.677   0.695  36.791  1.00  0.00     0.000 C
HETATM   31  C17 UNL     1      52.815  -0.077  37.766  1.00  0.00     0.000 C
HETATM   32  C18 UNL     1      53.442  -1.425  37.946  1.00  0.00     0.000 C
HETATM   33  C19 UNL     1      54.838  -1.488  37.413  1.00  0.00     0.005 C
ENDBRANCH  27  28
ENDBRANCH  26  27
BRANCH  26  34
HETATM   34  C20 UNL     1      56.745   1.328  40.895  1.00  0.00     0.241 C
HETATM   35  O4  UNL     1      56.840   1.288  42.175  1.00  0.00    -0.271 OA
HETATM   36  N5  UNL     1      56.427   2.577  40.353  1.00  0.00    -0.344 N
ATOM     37  H5  UNL     1      56.331   2.672  39.342  1.00  0.00     0.163 HD
BRANCH  36  38
HETATM   38  C21 UNL     1      56.232   3.733  41.192  1.00  0.00     0.200 C
BRANCH  38  39
HETATM   39  C22 UNL     1      54.791   3.997  41.312  1.00  0.00     0.261 C
HETATM   40  O5  UNL     1      54.050   3.796  40.381  1.00  0.00    -0.304 OA
ENDBRANCH  38  39
BRANCH  38  41
HETATM   41  C23 UNL     1      56.885   4.962  40.558  1.00  0.00     0.283 C
BRANCH  41  42
HETATM   42  O6  UNL     1      55.944   5.985  40.525  1.00  0.00    -0.369 OA
ATOM     43  H6  UNL     1      55.636   6.075  39.631  1.00  0.00     0.212 HD
ENDBRANCH  41  42
BRANCH  41  44
HETATM   44  O7  UNL     1      57.935   5.412  41.366  1.00  0.00    -0.369 OA
ATOM     45  H7  UNL     1      58.272   6.234  41.029  1.00  0.00     0.212 HD
ENDBRANCH  41  44
ENDBRANCH  38  41
ENDBRANCH  36  38
ENDBRANCH  26  34
ENDBRANCH   3  26
TORSDOF 19
ENDMDL