MODEL 2
REMARK VINA RESULT: -5.935206723      1.867      2.639
REMARK  20 active torsions:
REMARK  status: ('A' for Active; 'I' for Inactive)
REMARK    1  A    between atoms: C3_5  and  N2_6
REMARK    2  A    between atoms: C5_13  and  O2_14
REMARK    3  A    between atoms: O2_14  and  C6_15
REMARK    4  A    between atoms: C6_15  and  C7_16
REMARK    5  A    between atoms: C7_16  and  C8_17
REMARK    6  A    between atoms: C8_17  and  C9_18
REMARK    7  A    between atoms: C9_18  and  C10_19
REMARK    8  A    between atoms: C10_19  and  C11_20
REMARK    9  A    between atoms: C11_20  and  C12_21
REMARK   10  A    between atoms: C12_21  and  C13_22
REMARK   11  A    between atoms: C13_22  and  C14_23
REMARK   12  A    between atoms: C14_23  and  C15_24
REMARK   13  A    between atoms: C15_24  and  C16_25
REMARK   14  A    between atoms: C16_25  and  C17_26
REMARK       I    between atoms: C17_26  and  N4_28
REMARK   15  A    between atoms: N4_28  and  C18_30
REMARK   16  A    between atoms: C18_30  and  C19_31
REMARK   17  A    between atoms: C20_33  and  C21_34
REMARK   18  A    between atoms: C21_34  and  O5_35
REMARK   19  A    between atoms: C22_37  and  O6_38
REMARK   20  A    between atoms: C23_40  and  N5_41
ROOT
HETATM    1  C14 UNL     1      54.534  -0.796  40.169  1.00  0.00     0.004 C
ENDROOT
BRANCH   1   2
HETATM    2  C13 UNL     1      53.342  -0.997  39.249  1.00  0.00     0.027 C
BRANCH   2   3
HETATM    3  C12 UNL     1      53.660  -1.378  37.872  1.00  0.00    -0.031 C
BRANCH   3   4
HETATM    4  C11 UNL     1      54.777  -0.847  37.104  1.00  0.00    -0.031 C
BRANCH   4   5
HETATM    5  C10 UNL     1      54.858   0.558  36.662  1.00  0.00     0.027 C
BRANCH   5   6
HETATM    6  C9  UNL     1      55.562   1.467  37.577  1.00  0.00     0.004 C
BRANCH   6   7
HETATM    7  C8  UNL     1      54.682   2.619  38.058  1.00  0.00     0.002 C
BRANCH   7   8
HETATM    8  C7  UNL     1      54.807   2.844  39.554  1.00  0.00     0.027 C
BRANCH   8   9
HETATM    9  C6  UNL     1      56.258   3.065  39.840  1.00  0.00     0.176 C
BRANCH   9  10
HETATM   10  O2  UNL     1      56.587   3.778  40.974  1.00  0.00    -0.344 OA
BRANCH  10  11
HETATM   11  C5  UNL     1      57.579   4.721  41.079  1.00  0.00     0.160 A
HETATM   12  C2  UNL     1      58.897   4.472  41.361  1.00  0.00     0.061 A
HETATM   13  C1  UNL     1      59.369   3.089  41.616  1.00  0.00     0.072 C
HETATM   14  N1  UNL     1      59.807   5.488  41.439  1.00  0.00    -0.193 N
HETATM   15  C3  UNL     1      59.406   6.753  41.237  1.00  0.00     0.679 A
ATOM     16  H1  UNL     1      60.785   5.287  41.650  1.00  0.00     0.184 HD
HETATM   17  N3  UNL     1      58.127   7.020  40.962  1.00  0.00    -0.154 N
HETATM   18  C4  UNL     1      57.224   6.049  40.881  1.00  0.00     0.295 A
ATOM     19  H3  UNL     1      57.838   7.987  40.812  1.00  0.00     0.187 HD
HETATM   20  O1  UNL     1      56.029   6.319  40.621  1.00  0.00    -0.265 OA
BRANCH  15  21
HETATM   21  N2  UNL     1      60.262   7.718  41.310  1.00  0.00    -0.234 N
ATOM     22  H22 UNL     1      60.246   8.351  42.109  1.00  0.00     0.174 HD
ATOM     23  H21 UNL     1      60.950   7.842  40.567  1.00  0.00     0.174 HD
ENDBRANCH  15  21
ENDBRANCH  10  11
ENDBRANCH   9  10
ENDBRANCH   8   9
ENDBRANCH   7   8
ENDBRANCH   6   7
ENDBRANCH   5   6
ENDBRANCH   4   5
ENDBRANCH   3   4
ENDBRANCH   2   3
ENDBRANCH   1   2
BRANCH   1  24
HETATM   24  C15 UNL     1      54.147  -0.067  41.426  1.00  0.00     0.010 C
BRANCH  24  25
HETATM   25  C16 UNL     1      55.240   0.461  42.264  1.00  0.00     0.103 C
BRANCH  25  26
HETATM   26  C17 UNL     1      54.832   1.268  43.438  1.00  0.00     0.217 C
HETATM   27  O3  UNL     1      55.494   1.261  44.514  1.00  0.00    -0.274 OA
HETATM   28  N4  UNL     1      53.677   2.091  43.414  1.00  0.00    -0.359 N
ATOM     29  H4  UNL     1      53.113   2.131  42.565  1.00  0.00     0.162 HD
BRANCH  28  30
HETATM   30  C18 UNL     1      53.283   2.865  44.547  1.00  0.00     0.156 C
BRANCH  30  31
HETATM   31  C19 UNL     1      52.675   4.194  44.158  1.00  0.00     0.166 C
HETATM   32  O4  UNL     1      51.285   4.158  44.103  1.00  0.00    -0.372 OA
HETATM   33  C20 UNL     1      50.986   5.399  43.548  1.00  0.00     0.176 C
HETATM   34  C22 UNL     1      52.013   5.700  42.500  1.00  0.00     0.175 C
HETATM   35  C23 UNL     1      53.049   4.610  42.763  1.00  0.00     0.160 C
BRANCH  33  36
HETATM   36  C21 UNL     1      49.577   5.443  42.998  1.00  0.00     0.198 C
BRANCH  36  37
HETATM   37  O5  UNL     1      49.243   6.798  42.837  1.00  0.00    -0.398 OA
ATOM     38  H5  UNL     1      49.987   7.218  42.421  1.00  0.00     0.209 HD
ENDBRANCH  36  37
ENDBRANCH  33  36
BRANCH  34  39
HETATM   39  O6  UNL     1      51.537   5.675  41.208  1.00  0.00    -0.391 OA
ATOM     40  H6  UNL     1      52.195   5.493  40.548  1.00  0.00     0.210 HD
ENDBRANCH  34  39
BRANCH  35  41
HETATM   41  N5  UNL     1      54.353   5.165  42.685  1.00  0.00    -0.333 N
HETATM   42  N6  UNL     1      54.746   5.953  43.555  1.00  0.00    -0.349 N
ATOM     43  H62 UNL     1      54.119   6.194  44.322  1.00  0.00     0.176 HD
ATOM     44  H61 UNL     1      55.684   6.352  43.499  1.00  0.00     0.176 HD
ATOM     45  H5  UNL     1      54.968   4.914  41.911  1.00  0.00     0.180 HD
ENDBRANCH  35  41
ENDBRANCH  30  31
ENDBRANCH  28  30
ENDBRANCH  25  26
ENDBRANCH  24  25
ENDBRANCH   1  24
TORSDOF 20
ENDMDL