MODEL 4
REMARK VINA RESULT: -5.478189351      2.972      5.588
REMARK  22 active torsions:
REMARK  status: ('A' for Active; 'I' for Inactive)
REMARK    1  A    between atoms: N1_1  and  C1_5
REMARK    2  A    between atoms: C1_5  and  C2_6
REMARK    3  A    between atoms: C2_6  and  C3_7
REMARK    4  A    between atoms: C3_7  and  C4_8
REMARK    5  A    between atoms: C4_8  and  N2_9
REMARK    6  A    between atoms: C4_8  and  C5_13
REMARK    7  A    between atoms: C6_14  and  C7_15
REMARK    8  A    between atoms: C7_15  and  O1_16
REMARK    9  A    between atoms: C7_15  and  C8_18
REMARK   10  A    between atoms: C8_18  and  C9_19
REMARK   11  A    between atoms: C9_19  and  O2_20
REMARK   12  A    between atoms: C10_22  and  C11_23
REMARK   13  A    between atoms: C11_23  and  C12_24
REMARK   14  A    between atoms: C12_24  and  C13_25
REMARK   15  A    between atoms: C13_25  and  C14_26
REMARK   16  A    between atoms: C15_29  and  C16_30
REMARK   17  A    between atoms: C16_30  and  C17_31
REMARK   18  A    between atoms: C17_31  and  C18_33
REMARK   19  A    between atoms: C18_33  and  C19_34
REMARK   20  A    between atoms: C18_33  and  N5_40
REMARK   21  A    between atoms: C19_34  and  N4_35
REMARK       I    between atoms: N5_40  and  C24_41
REMARK   22  A    between atoms: C25_44  and  O4_45
ROOT
HETATM    1  C12 UNL     1      54.943   2.653  38.039  1.00  0.00     0.004 C
ENDROOT
BRANCH   1   2
HETATM    2  C11 UNL     1      54.050   1.929  37.121  1.00  0.00     0.003 C
BRANCH   2   3
HETATM    3  C10 UNL     1      53.453   0.897  37.587  1.00  0.00     0.032 C
HETATM    4  C9  UNL     1      53.744  -0.438  37.899  1.00  0.00     0.046 C
BRANCH   4   5
HETATM    5  C8  UNL     1      54.929  -1.164  37.411  1.00  0.00     0.100 C
BRANCH   5   6
HETATM    6  C7  UNL     1      55.932  -1.090  38.579  1.00  0.00     0.146 C
BRANCH   6   7
HETATM    7  C6  UNL     1      56.979  -0.068  38.483  1.00  0.00     0.003 C
HETATM    8  C5  UNL     1      58.112  -0.345  39.170  1.00  0.00     0.004 C
BRANCH   8   9
HETATM    9  C4  UNL     1      59.255   0.603  39.153  1.00  0.00     0.206 C
BRANCH   9  10
HETATM   10  C3  UNL     1      58.861   1.840  38.396  1.00  0.00     0.038 C
BRANCH  10  11
HETATM   11  C2  UNL     1      59.851   2.356  37.433  1.00  0.00     0.029 C
BRANCH  11  12
HETATM   12  C1  UNL     1      61.288   2.050  37.654  1.00  0.00     0.230 C
BRANCH  12  13
HETATM   13  N1  UNL     1      61.813   3.089  38.551  1.00  0.00    -0.079 N
ATOM     14  H13 UNL     1      62.382   3.785  38.070  1.00  0.00     0.274 HD
ATOM     15  H12 UNL     1      61.092   3.724  38.894  1.00  0.00     0.274 HD
ATOM     16  H11 UNL     1      62.312   2.609  39.300  1.00  0.00     0.274 HD
ENDBRANCH  12  13
ENDBRANCH  11  12
ENDBRANCH  10  11
ENDBRANCH   9  10
BRANCH   9  17
HETATM   17  N2  UNL     1      59.363   1.018  40.586  1.00  0.00    -0.072 N
ATOM     18  H23 UNL     1      60.283   1.379  40.839  1.00  0.00     0.275 HD
ATOM     19  H22 UNL     1      58.835   1.864  40.807  1.00  0.00     0.275 HD
ATOM     20  H21 UNL     1      59.078   0.206  41.134  1.00  0.00     0.275 HD
ENDBRANCH   9  17
ENDBRANCH   8   9
ENDBRANCH   6   7
BRANCH   6  21
HETATM   21  O1  UNL     1      55.044  -0.680  39.665  1.00  0.00    -0.391 OA
ATOM     22  H1  UNL     1      54.598  -1.464  39.963  1.00  0.00     0.210 HD
ENDBRANCH   6  21
ENDBRANCH   5   6
ENDBRANCH   4   5
BRANCH   4  23
HETATM   23  O2  UNL     1      52.653  -1.298  38.201  1.00  0.00    -0.365 OA
ATOM     24  H2  UNL     1      52.085  -0.951  38.879  1.00  0.00     0.217 HD
ENDBRANCH   4  23
ENDBRANCH   2   3
ENDBRANCH   1   2
BRANCH   1  25
HETATM   25  C13 UNL     1      54.770   2.801  39.324  1.00  0.00     0.048 C
BRANCH  25  26
HETATM   26  C14 UNL     1      55.799   3.609  40.051  1.00  0.00     0.107 A
HETATM   27  N3  UNL     1      56.781   3.319  40.887  1.00  0.00    -0.342 N
HETATM   28  C15 UNL     1      57.326   4.404  41.421  1.00  0.00     0.069 A
ATOM     29  H3  UNL     1      57.085   2.368  41.099  1.00  0.00     0.167 HD
HETATM   30  C25 UNL     1      56.629   5.493  40.877  1.00  0.00     0.165 A
HETATM   31  N8  UNL     1      55.708   4.987  40.044  1.00  0.00    -0.322 N
ATOM     32  H8  UNL     1      55.046   5.533  39.492  1.00  0.00     0.169 HD
BRANCH  28  33
HETATM   33  C16 UNL     1      58.413   4.698  42.399  1.00  0.00     0.143 C
BRANCH  33  34
HETATM   34  C17 UNL     1      59.651   4.881  41.664  1.00  0.00     0.169 C
HETATM   35  O3  UNL     1      59.926   4.032  40.795  1.00  0.00    -0.294 OA
BRANCH  34  36
HETATM   36  C18 UNL     1      60.656   5.976  41.807  1.00  0.00     0.253 C
BRANCH  36  37
HETATM   37  C19 UNL     1      61.583   6.073  40.637  1.00  0.00     0.169 C
BRANCH  37  38
HETATM   38  N4  UNL     1      62.645   7.076  40.876  1.00  0.00    -0.387 N
HETATM   39  C20 UNL     1      62.914   8.137  39.972  1.00  0.00     0.081 C
HETATM   40  C21 UNL     1      63.715   9.009  40.544  1.00  0.00    -0.008 C
HETATM   41  C22 UNL     1      64.067   8.601  41.907  1.00  0.00     0.048 C
HETATM   42  C23 UNL     1      63.549   7.189  41.971  1.00  0.00     0.126 C
ENDBRANCH  37  38
ENDBRANCH  36  37
BRANCH  36  43
HETATM   43  N5  UNL     1      60.100   7.156  42.160  1.00  0.00    -0.406 NA
HETATM   44  C24 UNL     1      59.633   8.195  42.458  1.00  0.00     0.270 C
HETATM   45  N6  UNL     1      58.404   8.245  43.217  1.00  0.00    -0.053 NA
HETATM   46  N7  UNL     1      60.182   9.498  42.166  1.00  0.00    -0.053 NA
ENDBRANCH  36  43
ENDBRANCH  34  36
ENDBRANCH  33  34
ENDBRANCH  28  33
BRANCH  30  47
HETATM   47  O4  UNL     1      56.832   6.828  41.124  1.00  0.00    -0.345 OA
ATOM     48  H4  UNL     1      57.470   7.404  40.718  1.00  0.00     0.219 HD
ENDBRANCH  30  47
ENDBRANCH  25  26
ENDBRANCH   1  25
TORSDOF 22
ENDMDL