MODEL 2
REMARK VINA RESULT: -6.165923796      3.929      7.734
REMARK  22 active torsions:
REMARK  status: ('A' for Active; 'I' for Inactive)
REMARK    1  A    between atoms: C2_2  and  C3_3
REMARK    2  A    between atoms: C3_3  and  C4_4
REMARK    3  A    between atoms: C4_4  and  C5_5
REMARK    4  A    between atoms: C5_5  and  C6_6
REMARK    5  A    between atoms: C6_6  and  C7_7
REMARK    6  A    between atoms: C7_7  and  C8_8
REMARK    7  A    between atoms: C8_8  and  C9_9
REMARK    8  A    between atoms: C9_9  and  C10_10
REMARK    9  A    between atoms: C10_10  and  N1_11
REMARK   10  A    between atoms: N1_11  and  C11_13
REMARK   11  A    between atoms: C12_16  and  N3_17
REMARK   12  A    between atoms: C14_19  and  O1_20
REMARK   13  A    between atoms: C15_22  and  O2_23
REMARK   14  A    between atoms: C16_25  and  C17_26
REMARK   15  A    between atoms: C17_26  and  O3_27
REMARK   16  A    between atoms: C19_30  and  N4_31
REMARK   17  A    between atoms: N4_31  and  C20_33
REMARK   18  A    between atoms: C20_33  and  C21_34
REMARK   19  A    between atoms: C20_33  and  C24_41
REMARK   20  A    between atoms: C21_34  and  C22_35
REMARK   21  A    between atoms: C22_35  and  C23_36
REMARK   22  A    between atoms: C23_36  and  N5_37
ROOT
HETATM    1  C11 UNL     1      55.633   4.370  40.832  1.00  0.00     0.684 A
HETATM    2  N2  UNL     1      55.714   3.472  41.823  1.00  0.00    -0.176 N
ATOM      3  H2  UNL     1      55.999   3.755  42.761  1.00  0.00     0.186 HD
HETATM    4  C12 UNL     1      55.413   2.193  41.555  1.00  0.00     0.123 A
HETATM    5  C18 UNL     1      55.032   1.820  40.283  1.00  0.00     0.097 A
HETATM    6  C19 UNL     1      54.943   2.728  39.250  1.00  0.00     0.121 A
HETATM    7  N7  UNL     1      55.253   3.996  39.566  1.00  0.00    -0.177 N
ATOM      8  H7  UNL     1      55.204   4.709  38.837  1.00  0.00     0.186 HD
ENDROOT
BRANCH   6   9
HETATM    9  N4  UNL     1      54.595   2.485  38.045  1.00  0.00    -0.363 N
ATOM     10  H4  UNL     1      54.689   3.227  37.352  1.00  0.00     0.162 HD
BRANCH   9  11
HETATM   11  C20 UNL     1      54.081   1.218  37.628  1.00  0.00     0.172 C
BRANCH  11  12
HETATM   12  C21 UNL     1      55.167   0.319  37.062  1.00  0.00     0.036 C
BRANCH  12  13
HETATM   13  C22 UNL     1      54.820  -1.119  37.337  1.00  0.00     0.030 C
BRANCH  13  14
HETATM   14  C23 UNL     1      53.868  -1.253  38.497  1.00  0.00     0.230 C
BRANCH  14  15
HETATM   15  N5  UNL     1      52.648  -1.920  38.196  1.00  0.00    -0.079 N
ATOM     16  H53 UNL     1      51.873  -1.479  38.691  1.00  0.00     0.274 HD
ATOM     17  H52 UNL     1      52.372  -1.733  37.232  1.00  0.00     0.274 HD
ATOM     18  H51 UNL     1      52.653  -2.924  38.373  1.00  0.00     0.274 HD
ENDBRANCH  14  15
ENDBRANCH  13  14
ENDBRANCH  12  13
ENDBRANCH  11  12
BRANCH  11  19
HETATM   19  C24 UNL     1      53.014   1.353  36.599  1.00  0.00     0.253 C
HETATM   20  N6  UNL     1      51.674   0.965  36.862  1.00  0.00    -0.060 NA
HETATM   21  O4  UNL     1      53.293   1.821  35.467  1.00  0.00    -0.275 OA
ENDBRANCH  11  19
ENDBRANCH   9  11
ENDBRANCH   6   9
BRANCH   4  22
HETATM   22  N3  UNL     1      55.480   1.257  42.614  1.00  0.00    -0.355 N
HETATM   23  C13 UNL     1      54.819   1.332  43.908  1.00  0.00     0.159 C
HETATM   24  C14 UNL     1      54.721  -0.083  44.407  1.00  0.00     0.166 C
HETATM   25  C15 UNL     1      55.336  -0.946  43.339  1.00  0.00     0.173 C
HETATM   26  C16 UNL     1      56.235   0.031  42.602  1.00  0.00     0.140 C
BRANCH  24  27
HETATM   27  O1  UNL     1      53.376  -0.449  44.516  1.00  0.00    -0.391 OA
ATOM     28  H1  UNL     1      53.306  -1.396  44.549  1.00  0.00     0.210 HD
ENDBRANCH  24  27
BRANCH  25  29
HETATM   29  O2  UNL     1      56.059  -2.007  43.857  1.00  0.00    -0.391 OA
ATOM     30  H2  UNL     1      56.981  -1.966  43.637  1.00  0.00     0.210 HD
ENDBRANCH  25  29
BRANCH  26  31
HETATM   31  C17 UNL     1      57.566   0.186  43.319  1.00  0.00     0.192 C
BRANCH  31  32
HETATM   32  O3  UNL     1      58.495  -0.744  42.904  1.00  0.00    -0.399 OA
ATOM     33  H3  UNL     1      58.822  -0.563  42.032  1.00  0.00     0.209 HD
ENDBRANCH  31  32
ENDBRANCH  26  31
ENDBRANCH   4  22
BRANCH   1  34
HETATM   34  N1  UNL     1      55.898   5.576  41.022  1.00  0.00    -0.205 N
ATOM     35  H1  UNL     1      55.047   6.106  41.207  1.00  0.00     0.183 HD
BRANCH  34  36
HETATM   36  C10 UNL     1      57.006   6.406  41.055  1.00  0.00     0.079 C
BRANCH  36  37
HETATM   37  C9  UNL     1      58.314   5.853  41.519  1.00  0.00     0.045 C
BRANCH  37  38
HETATM   38  C8  UNL     1      59.478   6.708  41.034  1.00  0.00     0.005 C
BRANCH  38  39
HETATM   39  C7  UNL     1      60.791   5.983  41.019  1.00  0.00     0.000 C
BRANCH  39  40
HETATM   40  C6  UNL     1      60.596   4.513  41.243  1.00  0.00     0.000 C
BRANCH  40  41
HETATM   41  C5  UNL     1      61.096   3.733  40.048  1.00  0.00     0.000 C
BRANCH  41  42
HETATM   42  C4  UNL     1      60.294   2.493  39.791  1.00  0.00     0.000 C
BRANCH  42  43
HETATM   43  C3  UNL     1      58.824   2.719  39.630  1.00  0.00    -0.000 C
BRANCH  43  44
HETATM   44  C2  UNL     1      58.377   1.773  38.499  1.00  0.00    -0.005 C
HETATM   45  C1  UNL     1      58.293   0.376  39.095  1.00  0.00     0.005 C
ENDBRANCH  43  44
ENDBRANCH  42  43
ENDBRANCH  41  42
ENDBRANCH  40  41
ENDBRANCH  39  40
ENDBRANCH  38  39
ENDBRANCH  37  38
ENDBRANCH  36  37
ENDBRANCH  34  36
ENDBRANCH   1  34
TORSDOF 22
ENDMDL