MODEL 4
REMARK VINA RESULT: -6.358191176      3.281      7.874
REMARK  20 active torsions:
REMARK  status: ('A' for Active; 'I' for Inactive)
REMARK       I    between atoms: C2_2  and  N1_4
REMARK    1  A    between atoms: N1_4  and  C3_6
REMARK    2  A    between atoms: C5_11  and  C6_12
REMARK    3  A    between atoms: C6_12  and  N3_13
REMARK    4  A    between atoms: N3_13  and  C7_16
REMARK    5  A    between atoms: C7_16  and  C8_17
REMARK    6  A    between atoms: C7_16  and  C16_29
REMARK    7  A    between atoms: C8_17  and  C9_18
REMARK    8  A    between atoms: C9_18  and  C10_19
REMARK    9  A    between atoms: C10_19  and  C11_20
REMARK   10  A    between atoms: C11_20  and  C12_21
REMARK   11  A    between atoms: C12_21  and  C13_22
REMARK   12  A    between atoms: C13_22  and  C14_23
REMARK   13  A    between atoms: C14_23  and  C15_24
REMARK   14  A    between atoms: C15_24  and  N4_25
REMARK   15  A    between atoms: C16_29  and  O3_30
REMARK   16  A    between atoms: C16_29  and  C17_32
REMARK   17  A    between atoms: C17_32  and  N5_33
REMARK   18  A    between atoms: N5_33  and  C18_35
REMARK   19  A    between atoms: C23_42  and  C24_43
REMARK   20  A    between atoms: C24_43  and  O5_44
ROOT
HETATM    1  C7  UNL     1      56.504  -0.119  39.857  1.00  0.00     0.216 C
ENDROOT
BRANCH   1   2
HETATM    2  N3  UNL     1      55.449   0.743  40.306  1.00  0.00    -0.064 N
ATOM      3  H32 UNL     1      55.141   0.493  41.247  1.00  0.00     0.277 HD
ATOM      4  H31 UNL     1      54.582   0.562  39.802  1.00  0.00     0.277 HD
BRANCH   2   5
HETATM    5  C6  UNL     1      55.819   2.118  40.229  1.00  0.00     0.286 C
BRANCH   5   6
HETATM    6  C5  UNL     1      55.205   3.024  41.238  1.00  0.00     0.249 C
HETATM    7  N2  UNL     1      54.307   4.007  40.662  1.00  0.00    -0.331 N
HETATM    8  C4  UNL     1      53.615   4.788  41.634  1.00  0.00     0.245 C
ATOM      9  H2  UNL     1      54.182   4.128  39.657  1.00  0.00     0.165 HD
HETATM   10  C3  UNL     1      54.229   4.734  42.995  1.00  0.00     0.207 C
HETATM   11  O2  UNL     1      52.589   5.452  41.351  1.00  0.00    -0.271 OA
HETATM   12  C23 UNL     1      55.729   4.692  42.751  1.00  0.00     0.179 C
HETATM   13  O4  UNL     1      56.148   3.556  42.100  1.00  0.00    -0.355 OA
BRANCH  10  14
HETATM   14  N1  UNL     1      53.893   5.897  43.767  1.00  0.00    -0.346 N
HETATM   15  C2  UNL     1      52.914   5.815  44.778  1.00  0.00     0.214 C
HETATM   16  C1  UNL     1      52.554   7.002  45.574  1.00  0.00     0.117 C
HETATM   17  O1  UNL     1      52.338   4.730  45.010  1.00  0.00    -0.274 OA
ATOM     18  H1  UNL     1      54.362   6.784  43.583  1.00  0.00     0.163 HD
ENDBRANCH  10  14
BRANCH  12  19
HETATM   19  C24 UNL     1      56.531   4.957  44.000  1.00  0.00     0.198 C
BRANCH  19  20
HETATM   20  O5  UNL     1      56.037   4.221  45.097  1.00  0.00    -0.398 OA
ATOM     21  H5  UNL     1      56.460   4.479  45.908  1.00  0.00     0.209 HD
ENDBRANCH  19  20
ENDBRANCH  12  19
ENDBRANCH   5   6
ENDBRANCH   2   5
ENDBRANCH   1   2
BRANCH   1  22
HETATM   22  C8  UNL     1      56.419  -0.461  38.424  1.00  0.00     0.036 C
BRANCH  22  23
HETATM   23  C9  UNL     1      55.266  -1.221  37.947  1.00  0.00     0.002 C
BRANCH  23  24
HETATM   24  C10 UNL     1      54.419  -0.475  36.914  1.00  0.00     0.000 C
BRANCH  24  25
HETATM   25  C11 UNL     1      54.994   0.869  36.609  1.00  0.00     0.000 C
BRANCH  25  26
HETATM   26  C12 UNL     1      54.032   1.856  36.007  1.00  0.00     0.000 C
BRANCH  26  27
HETATM   27  C13 UNL     1      52.606   1.425  36.225  1.00  0.00     0.002 C
BRANCH  27  28
HETATM   28  C14 UNL     1      51.626   2.484  35.758  1.00  0.00     0.027 C
BRANCH  28  29
HETATM   29  C15 UNL     1      50.886   1.934  34.559  1.00  0.00     0.229 C
BRANCH  29  30
HETATM   30  N4  UNL     1      49.789   2.855  34.251  1.00  0.00    -0.079 N
ATOM     31  H43 UNL     1      49.482   2.797  33.280  1.00  0.00     0.274 HD
ATOM     32  H42 UNL     1      48.908   2.581  34.688  1.00  0.00     0.274 HD
ATOM     33  H41 UNL     1      50.088   3.793  34.516  1.00  0.00     0.274 HD
ENDBRANCH  29  30
ENDBRANCH  28  29
ENDBRANCH  27  28
ENDBRANCH  26  27
ENDBRANCH  25  26
ENDBRANCH  24  25
ENDBRANCH  23  24
ENDBRANCH  22  23
ENDBRANCH   1  22
BRANCH   1  34
HETATM   34  C16 UNL     1      57.796   0.216  40.472  1.00  0.00     0.166 C
BRANCH  34  35
HETATM   35  O3  UNL     1      57.899  -0.288  41.787  1.00  0.00    -0.392 OA
ATOM     36  H3  UNL     1      57.070  -0.249  42.247  1.00  0.00     0.210 HD
ENDBRANCH  34  35
BRANCH  34  37
HETATM   37  C17 UNL     1      59.044  -0.111  39.688  1.00  0.00     0.148 C
BRANCH  37  38
HETATM   38  N5  UNL     1      60.094   0.837  39.923  1.00  0.00    -0.413 N
ATOM     39  H5  UNL     1      60.957   0.551  40.385  1.00  0.00     0.153 HD
BRANCH  38  40
HETATM   40  C18 UNL     1      59.914   2.169  39.505  1.00  0.00     0.106 C
HETATM   41  C19 UNL     1      59.731   2.084  37.955  1.00  0.00     0.056 C
HETATM   42  C20 UNL     1      61.163   1.756  37.575  1.00  0.00     0.274 C
HETATM   43  N6  UNL     1      61.944   2.630  38.389  1.00  0.00     0.086 N
HETATM   44  C21 UNL     1      62.525   3.753  37.738  1.00  0.00     0.310 C
HETATM   45  C22 UNL     1      61.146   3.031  39.533  1.00  0.00     0.296 C
ENDBRANCH  38  40
ENDBRANCH  37  38
ENDBRANCH  34  37
ENDBRANCH   1  34
TORSDOF 20
ENDMDL