MODEL 2
REMARK VINA RESULT: -5.583206474      1.484      2.280
REMARK  21 active torsions:
REMARK  status: ('A' for Active; 'I' for Inactive)
REMARK    1  A    between atoms: O1_2  and  C2_3
REMARK    2  A    between atoms: C2_3  and  O2_4
REMARK    3  A    between atoms: O2_4  and  C3_5
REMARK    4  A    between atoms: C3_5  and  C4_6
REMARK    5  A    between atoms: C4_6  and  N1_7
REMARK    6  A    between atoms: C8_12  and  N2_13
REMARK    7  A    between atoms: N2_13  and  C9_15
REMARK    8  A    between atoms: C9_15  and  O3_16
REMARK    9  A    between atoms: C9_15  and  C10_18
REMARK   10  A    between atoms: N3_21  and  C12_22
REMARK   11  A    between atoms: C12_22  and  C13_23
REMARK   12  A    between atoms: C12_22  and  C20_44
REMARK   13  A    between atoms: C13_23  and  O5_24
REMARK   14  A    between atoms: C13_23  and  N4_26
REMARK   15  A    between atoms: N4_26  and  C14_28
REMARK   16  A    between atoms: C14_28  and  C15_29
REMARK   17  A    between atoms: C15_29  and  N5_30
REMARK   18  A    between atoms: C15_29  and  C16_34
REMARK   19  A    between atoms: C16_34  and  C17_35
REMARK   20  A    between atoms: C17_35  and  C18_36
REMARK   21  A    between atoms: C18_36  and  N6_37
REMARK       I    between atoms: N6_37  and  C19_39
ROOT
HETATM    1  C12 UNL     1      56.081   3.509  40.447  1.00  0.00     0.163 C
ENDROOT
BRANCH   1   2
HETATM    2  N3  UNL     1      56.258   2.111  40.013  1.00  0.00    -0.353 N
HETATM    3  C5  UNL     1      55.426   1.472  39.065  1.00  0.00     0.076 C
HETATM    4  N1  UNL     1      54.606   2.162  38.342  1.00  0.00    -0.378 N
HETATM    5  C6  UNL     1      55.522  -0.008  38.958  1.00  0.00     0.081 C
ATOM      6  H1  UNL     1      54.552   3.176  38.428  1.00  0.00     0.160 HD
HETATM    7  C7  UNL     1      56.944  -0.484  38.802  1.00  0.00     0.061 C
HETATM    8  C8  UNL     1      57.944   0.453  39.463  1.00  0.00     0.003 C
HETATM    9  C11 UNL     1      57.343   1.264  40.564  1.00  0.00     0.177 C
BRANCH   4  10
HETATM   10  C4  UNL     1      53.769   1.446  37.407  1.00  0.00     0.147 C
BRANCH  10  11
HETATM   11  C3  UNL     1      54.141   1.731  35.973  1.00  0.00     0.190 C
BRANCH  11  12
HETATM   12  O2  UNL     1      53.036   2.036  35.215  1.00  0.00    -0.365 OA
BRANCH  12  13
HETATM   13  C2  UNL     1      51.831   1.789  35.818  1.00  0.00     0.337 C
BRANCH  13  14
HETATM   14  O1  UNL     1      50.843   2.725  35.556  1.00  0.00    -0.372 OA
HETATM   15  C1  UNL     1      50.151   2.426  34.396  1.00  0.00     0.204 C
ENDBRANCH  13  14
ENDBRANCH  12  13
ENDBRANCH  11  12
ENDBRANCH  10  11
ENDBRANCH   4  10
BRANCH   8  16
HETATM   16  N2  UNL     1      59.201  -0.058  39.713  1.00  0.00    -0.364 N
ATOM     17  H2  UNL     1      59.874   0.558  40.170  1.00  0.00     0.162 HD
BRANCH  16  18
HETATM   18  C9  UNL     1      59.629  -1.346  39.394  1.00  0.00     0.280 C
BRANCH  18  19
HETATM   19  O3  UNL     1      60.356  -1.349  38.155  1.00  0.00    -0.370 OA
ATOM     20  H3  UNL     1      60.759  -0.503  37.999  1.00  0.00     0.212 HD
ENDBRANCH  18  19
BRANCH  18  21
HETATM   21  C10 UNL     1      60.523  -1.973  40.376  1.00  0.00     0.284 C
HETATM   22  O4  UNL     1      60.447  -3.207  40.576  1.00  0.00    -0.302 OA
ENDBRANCH  18  21
ENDBRANCH  16  18
ENDBRANCH   8  16
ENDBRANCH   1   2
BRANCH   1  23
HETATM   23  C13 UNL     1      54.803   3.673  41.118  1.00  0.00     0.135 C
BRANCH  23  24
HETATM   24  O5  UNL     1      54.288   2.555  41.583  1.00  0.00    -0.348 OA
ATOM     25  H5  UNL     1      53.500   2.673  42.099  1.00  0.00     0.219 HD
ENDBRANCH  23  24
BRANCH  23  26
HETATM   26  N4  UNL     1      53.997   4.778  41.379  1.00  0.00    -0.371 N
ATOM     27  H4  UNL     1      53.903   5.485  40.650  1.00  0.00     0.161 HD
BRANCH  26  28
HETATM   28  C14 UNL     1      53.281   4.985  42.632  1.00  0.00     0.154 C
BRANCH  28  29
HETATM   29  C15 UNL     1      51.815   5.208  42.465  1.00  0.00     0.201 C
BRANCH  29  30
HETATM   30  N5  UNL     1      51.643   6.669  42.328  1.00  0.00    -0.073 N
ATOM     31  H53 UNL     1      51.916   7.192  43.160  1.00  0.00     0.274 HD
ATOM     32  H52 UNL     1      52.310   7.100  41.689  1.00  0.00     0.274 HD
ATOM     33  H51 UNL     1      50.669   6.810  42.058  1.00  0.00     0.274 HD
ENDBRANCH  29  30
BRANCH  29  34
HETATM   34  C16 UNL     1      51.012   4.826  43.689  1.00  0.00     0.036 C
BRANCH  34  35
HETATM   35  C17 UNL     1      50.329   6.019  44.276  1.00  0.00     0.022 C
BRANCH  35  36
HETATM   36  C18 UNL     1      50.797   6.284  45.704  1.00  0.00     0.122 C
BRANCH  36  37
HETATM   37  N6  UNL     1      52.161   6.701  45.783  1.00  0.00    -0.365 N
HETATM   38  C19 UNL     1      52.595   7.988  45.375  1.00  0.00     0.181 C
HETATM   39  N7  UNL     1      51.901   9.018  45.678  1.00  0.00    -0.374 N
HETATM   40  N8  UNL     1      53.814   8.079  44.629  1.00  0.00    -0.064 NA
ATOM     41  H72 UNL     1      51.033   8.953  46.210  1.00  0.00     0.158 HD
ATOM     42  H71 UNL     1      52.214   9.943  45.385  1.00  0.00     0.158 HD
ATOM     43  H6  UNL     1      52.851   6.046  46.148  1.00  0.00     0.162 HD
ENDBRANCH  36  37
ENDBRANCH  35  36
ENDBRANCH  34  35
ENDBRANCH  29  34
ENDBRANCH  28  29
ENDBRANCH  26  28
ENDBRANCH  23  26
ENDBRANCH   1  23
BRANCH   1  44
HETATM   44  C20 UNL     1      57.328   3.954  41.145  1.00  0.00     0.008 C
HETATM   45  C21 UNL     1      57.235   3.882  42.635  1.00  0.00     0.012 C
HETATM   46  C22 UNL     1      57.567   5.414  40.791  1.00  0.00     0.012 C
ENDBRANCH   1  44
TORSDOF 21
ENDMDL