MODEL 4
REMARK VINA RESULT: -5.295591789      2.589      5.630
REMARK  19 active torsions:
REMARK  status: ('A' for Active; 'I' for Inactive)
REMARK    1  A    between atoms: C2_2  and  O1_3
REMARK    2  A    between atoms: O1_3  and  C3_4
REMARK    3  A    between atoms: C3_4  and  C4_6
REMARK    4  A    between atoms: C4_6  and  N1_8
REMARK    5  A    between atoms: N1_8  and  C6_10
REMARK    6  A    between atoms: C6_10  and  O3_11
REMARK    7  A    between atoms: C6_10  and  C7_13
REMARK    8  A    between atoms: C7_13  and  O4_14
REMARK    9  A    between atoms: C7_13  and  N2_16
REMARK   10  A    between atoms: N2_16  and  C8_18
REMARK   11  A    between atoms: C8_18  and  C9_19
REMARK   12  A    between atoms: C8_18  and  C13_27
REMARK   13  A    between atoms: C10_20  and  C11_21
REMARK   14  A    between atoms: C11_21  and  N3_22
REMARK   15  A    between atoms: C13_27  and  N6_29
REMARK       I    between atoms: N6_29  and  C15_31
REMARK   16  A    between atoms: C15_31  and  C16_33
REMARK   17  A    between atoms: C16_33  and  N7_34
REMARK   18  A    between atoms: C16_33  and  C17_38
REMARK   19  A    between atoms: C17_38  and  C18_39
ROOT
HETATM    1  C8  UNL     1      57.021   2.482  40.692  1.00  0.00     0.033 C
ENDROOT
BRANCH   1   2
HETATM    2  N2  UNL     1      56.277   1.547  39.879  1.00  0.00    -0.335 N
ATOM      3  H2  UNL     1      56.640   1.473  38.928  1.00  0.00     0.168 HD
BRANCH   2   4
HETATM    4  C7  UNL     1      55.231   0.765  40.091  1.00  0.00     0.192 C
BRANCH   4   5
HETATM    5  C6  UNL     1      54.259   0.071  39.294  1.00  0.00     0.193 C
BRANCH   5   6
HETATM    6  N1  UNL     1      54.315  -0.235  37.908  1.00  0.00    -0.332 N
ATOM      7  H1  UNL     1      54.512  -1.210  37.680  1.00  0.00     0.168 HD
BRANCH   6   8
HETATM    8  C4  UNL     1      54.139   0.611  36.823  1.00  0.00     0.083 C
HETATM    9  C5  UNL     1      55.059   1.787  36.591  1.00  0.00     0.075 C
BRANCH   8  10
HETATM   10  C3  UNL     1      52.735   0.994  36.515  1.00  0.00     0.305 C
HETATM   11  O2  UNL     1      51.798   0.515  37.249  1.00  0.00    -0.258 OA
BRANCH  10  12
HETATM   12  O1  UNL     1      52.470   1.870  35.474  1.00  0.00    -0.317 OA
BRANCH  12  13
HETATM   13  C2  UNL     1      51.337   2.682  35.472  1.00  0.00     0.175 C
HETATM   14  C1  UNL     1      50.364   2.230  34.403  1.00  0.00     0.034 C
ENDBRANCH  12  13
ENDBRANCH  10  12
ENDBRANCH   8  10
ENDBRANCH   6   8
ENDBRANCH   5   6
BRANCH   5  15
HETATM   15  O3  UNL     1      53.134  -0.379  39.800  1.00  0.00    -0.343 OA
ATOM     16  H3  UNL     1      52.648   0.340  40.186  1.00  0.00     0.219 HD
ENDBRANCH   5  15
ENDBRANCH   4   5
BRANCH   4  17
HETATM   17  O4  UNL     1      55.588  -0.277  41.100  1.00  0.00    -0.343 OA
ATOM     18  H4  UNL     1      56.393  -0.626  40.737  1.00  0.00     0.219 HD
ENDBRANCH   4  17
ENDBRANCH   2   4
ENDBRANCH   1   2
BRANCH   1  19
HETATM   19  C9  UNL     1      56.399   3.798  40.579  1.00  0.00     0.025 C
HETATM   20  C10 UNL     1      55.709   4.671  41.457  1.00  0.00    -0.005 C
BRANCH  20  21
HETATM   21  C11 UNL     1      54.348   4.343  41.977  1.00  0.00     0.149 C
BRANCH  21  22
HETATM   22  N3  UNL     1      53.301   5.159  41.340  1.00  0.00    -0.363 N
HETATM   23  C12 UNL     1      52.211   5.316  42.029  1.00  0.00     0.197 C
HETATM   24  N4  UNL     1      51.134   6.090  41.514  1.00  0.00    -0.067 NA
HETATM   25  N5  UNL     1      52.061   4.768  43.338  1.00  0.00    -0.067 NA
ATOM     26  H3  UNL     1      53.424   5.576  40.417  1.00  0.00     0.162 HD
ENDBRANCH  21  22
ENDBRANCH  20  21
ENDBRANCH   1  19
BRANCH   1  27
HETATM   27  C13 UNL     1      57.980   1.882  41.585  1.00  0.00     0.130 C
HETATM   28  C14 UNL     1      58.674   2.839  42.585  1.00  0.00     0.039 C
BRANCH  27  29
HETATM   29  N6  UNL     1      59.145   1.398  40.793  1.00  0.00    -0.350 N
HETATM   30  C15 UNL     1      59.302   0.134  40.251  1.00  0.00     0.248 C
HETATM   31  O5  UNL     1      58.434  -0.748  40.409  1.00  0.00    -0.271 OA
ATOM     32  H6  UNL     1      59.902   2.063  40.634  1.00  0.00     0.163 HD
BRANCH  30  33
HETATM   33  C16 UNL     1      60.503  -0.288  39.449  1.00  0.00     0.275 C
BRANCH  33  34
HETATM   34  N7  UNL     1      60.247  -1.725  39.264  1.00  0.00    -0.066 N
ATOM     35  H73 UNL     1      60.757  -2.342  39.894  1.00  0.00     0.275 HD
ATOM     36  H72 UNL     1      59.321  -2.041  39.551  1.00  0.00     0.275 HD
ATOM     37  H71 UNL     1      60.458  -1.845  38.273  1.00  0.00     0.275 HD
ENDBRANCH  33  34
BRANCH  33  38
HETATM   38  C17 UNL     1      60.607   0.275  38.076  1.00  0.00     0.047 C
BRANCH  38  39
HETATM   39  C18 UNL     1      61.778   1.076  37.705  1.00  0.00    -0.012 C
HETATM   40  C19 UNL     1      61.680   2.445  38.351  1.00  0.00     0.005 C
HETATM   41  C20 UNL     1      62.341   3.536  37.528  1.00  0.00     0.000 C
HETATM   42  C21 UNL     1      63.681   3.096  36.962  1.00  0.00     0.000 C
HETATM   43  C22 UNL     1      63.656   1.757  36.317  1.00  0.00     0.000 C
HETATM   44  C23 UNL     1      62.178   1.270  36.298  1.00  0.00     0.005 C
ENDBRANCH  38  39
ENDBRANCH  33  38
ENDBRANCH  30  33
ENDBRANCH  27  29
ENDBRANCH   1  27
TORSDOF 19
ENDMDL