MODEL 4
REMARK VINA RESULT: -1.993136074      9.288     10.425
REMARK  0 active torsions:
REMARK  status: ('A' for Active; 'I' for Inactive)
ROOT
HETATM    1  C1  UNL     1      37.052  18.189  20.567  1.00  0.00     0.168 C
HETATM    2  N1  UNL     1      36.839  19.175  19.530  1.00  0.00    -0.221 N
HETATM    3  C2  UNL     1      37.453  19.130  18.211  1.00  0.00     0.161 A
HETATM    4  C3  UNL     1      36.952  20.294  17.441  1.00  0.00     0.158 A
HETATM    5  N2  UNL     1      36.106  21.015  18.337  1.00  0.00    -0.225 N
ATOM      6  H2  UNL     1      35.630  21.890  18.115  1.00  0.00     0.177 HD
HETATM    7  C4  UNL     1      36.025  20.336  19.583  1.00  0.00     0.669 A
HETATM    8  N3  UNL     1      35.310  20.761  20.560  1.00  0.00    -0.235 N
ATOM      9  H31 UNL     1      34.725  21.596  20.598  1.00  0.00     0.174 HD
ATOM     10  H32 UNL     1      35.252  20.274  21.454  1.00  0.00     0.174 HD
ENDROOT
TORSDOF 0
ENDMDL