MODEL 1
REMARK VINA RESULT: -2.600706250      0.000      0.000
REMARK  0 active torsions:
REMARK  status: ('A' for Active; 'I' for Inactive)
ROOT
HETATM    1  C1  UNL     1      35.539  20.659  19.661  1.00  0.00     0.173 A
HETATM    2  N1  UNL     1      36.224  20.035  20.568  1.00  0.00    -0.376 N
ATOM      3  H1  UNL     1      35.938  19.930  21.542  1.00  0.00     0.160 HD
HETATM    4  C2  UNL     1      37.453  19.505  20.009  1.00  0.00     0.158 A
HETATM    5  C3  UNL     1      37.337  18.054  19.583  1.00  0.00     0.263 A
HETATM    6  N2  UNL     1      37.453  18.501  18.214  1.00  0.00    -0.050 N
ATOM      7  H21 UNL     1      36.763  18.165  17.542  1.00  0.00     0.279 HD
ATOM      8  H22 UNL     1      38.230  18.143  17.658  1.00  0.00     0.279 HD
HETATM    9  C4  UNL     1      37.449  19.891  18.541  1.00  0.00     0.309 A
HETATM   10  N3  UNL     1      36.231  20.611  18.423  1.00  0.00    -0.357 N
ATOM     11  H3  UNL     1      35.896  21.039  17.559  1.00  0.00     0.162 HD
ENDROOT
TORSDOF 0
ENDMDL