MODEL 3
REMARK VINA RESULT: -2.192788129      1.299      2.439
REMARK  0 active torsions:
REMARK  status: ('A' for Active; 'I' for Inactive)
ROOT
HETATM    1  C1  UNL     1      37.299  17.062  11.337  1.00  0.00     0.315 C
HETATM    2  N1  UNL     1      37.031  16.307  10.106  1.00  0.00     0.146 N
HETATM    3  C2  UNL     1      37.169  17.264   8.986  1.00  0.00     0.339 C
HETATM    4  C3  UNL     1      35.728  17.517   8.720  1.00  0.00     0.420 C
HETATM    5  N2  UNL     1      35.143  17.549  10.069  1.00  0.00     0.012 N
ATOM      6  H21 UNL     1      34.185  17.843  10.262  1.00  0.00     0.284 HD
ATOM      7  H22 UNL     1      35.413  18.224  10.785  1.00  0.00     0.284 HD
HETATM    8  C4  UNL     1      35.579  16.141  10.068  1.00  0.00     0.620 C
HETATM    9  N3  UNL     1      35.202  16.141   8.676  1.00  0.00     0.012 N
ATOM     10  H31 UNL     1      35.528  15.440   8.011  1.00  0.00     0.284 HD
ATOM     11  H32 UNL     1      34.262  15.914   8.354  1.00  0.00     0.284 HD
ENDROOT
TORSDOF 0
ENDMDL