MODEL 5
REMARK VINA RESULT: -2.063829134      1.241      2.917
REMARK  0 active torsions:
REMARK  status: ('A' for Active; 'I' for Inactive)
ROOT
HETATM    1  C1  UNL     1      37.453  17.655   8.607  1.00  0.00     0.316 C
HETATM    2  N1  UNL     1      36.375  16.754   8.834  1.00  0.00     0.154 N
HETATM    3  C2  UNL     1      35.040  17.269   8.706  1.00  0.00     0.510 A
HETATM    4  N2  UNL     1      34.729  16.874  10.068  1.00  0.00    -0.004 N
ATOM      5  H21 UNL     1      33.934  16.266  10.267  1.00  0.00     0.283 HD
ATOM      6  H22 UNL     1      34.358  17.549  10.736  1.00  0.00     0.283 HD
HETATM    7  C3  UNL     1      36.090  16.381  10.188  1.00  0.00     0.527 A
HETATM    8  C4  UNL     1      36.851  17.078  11.212  1.00  0.00     0.125 C
HETATM    9  N3  UNL     1      37.453  17.628  12.044  1.00  0.00    -0.193 NA
ENDROOT
TORSDOF 0
ENDMDL