MODEL 5
REMARK VINA RESULT: -2.195236085      1.033      2.116
REMARK  0 active torsions:
REMARK  status: ('A' for Active; 'I' for Inactive)
ROOT
HETATM    1  C1  UNL     1      37.344  18.132  19.902  1.00  0.00     0.107 C
HETATM    2  N1  UNL     1      36.215  18.173  20.568  1.00  0.00    -0.317 N
ATOM      3  H1  UNL     1      36.031  17.525  21.334  1.00  0.00     0.185 HD
HETATM    4  N2  UNL     1      35.272  19.137  20.194  1.00  0.00    -0.312 N
ATOM      5  H2  UNL     1      34.280  18.917  20.101  1.00  0.00     0.182 HD
HETATM    6  C2  UNL     1      35.791  20.470  19.947  1.00  0.00     0.371 C
HETATM    7  N3  UNL     1      37.056  20.475  19.289  1.00  0.00    -0.054 N
ATOM      8  H31 UNL     1      37.778  20.883  19.884  1.00  0.00     0.279 HD
ATOM      9  H32 UNL     1      37.069  21.153  18.527  1.00  0.00     0.279 HD
HETATM   10  C3  UNL     1      37.452  19.147  18.818  1.00  0.00     0.280 C
ENDROOT
TORSDOF 0
ENDMDL