MODEL 4
REMARK VINA RESULT: -2.196173571     14.499     15.371
REMARK  0 active torsions:
REMARK  status: ('A' for Active; 'I' for Inactive)
ROOT
HETATM    1  N1  UNL     1      37.071  20.263  16.506  1.00  0.00    -0.056 NA
HETATM    2  C1  UNL     1      36.962  19.971  17.911  1.00  0.00     0.227 C
HETATM    3  N2  UNL     1      37.453  18.886  18.411  1.00  0.00    -0.359 N
ATOM      4  H2  UNL     1      37.922  18.244  17.771  1.00  0.00     0.162 HD
HETATM    5  C2  UNL     1      37.391  18.515  19.790  1.00  0.00     0.125 C
HETATM    6  C3  UNL     1      36.299  19.161  20.567  1.00  0.00     0.046 C
HETATM    7  C4  UNL     1      35.587  20.265  19.864  1.00  0.00     0.180 C
HETATM    8  O1  UNL     1      36.327  20.830  18.796  1.00  0.00    -0.325 OA
ENDROOT
TORSDOF 0
ENDMDL