MODEL 4
REMARK VINA RESULT: -2.419405225      9.470     10.815
REMARK  1 active torsions:
REMARK  status: ('A' for Active; 'I' for Inactive)
REMARK    1  A    between atoms: C2_6  and  N4_7
ROOT
HETATM    1  C1  UNL     1      34.031  20.133  20.568  1.00  0.00     0.198 C
HETATM    2  N1  UNL     1      35.303  20.223  19.891  1.00  0.00    -0.208 N
HETATM    3  N2  UNL     1      36.474  19.823  20.367  1.00  0.00     0.011 NA
HETATM    4  N3  UNL     1      37.429  20.057  19.481  1.00  0.00    -0.114 N
ATOM      5  H3  UNL     1      38.420  19.844  19.596  1.00  0.00     0.203 HD
HETATM    6  C2  UNL     1      36.863  20.622  18.405  1.00  0.00     0.704 A
HETATM    7  N5  UNL     1      35.554  20.710  18.688  1.00  0.00    -0.117 N
ATOM      8  H5  UNL     1      34.851  21.099  18.061  1.00  0.00     0.207 HD
ENDROOT
BRANCH   6   9
HETATM    9  N4  UNL     1      37.453  21.007  17.303  1.00  0.00    -0.232 N
ATOM     10  H42 UNL     1      37.329  20.611  16.372  1.00  0.00     0.174 HD
ATOM     11  H41 UNL     1      38.132  21.761  17.193  1.00  0.00     0.174 HD
ENDBRANCH   6   9
TORSDOF 1
ENDMDL