MODEL 2
REMARK VINA RESULT: -1.951434402      1.392      2.449
REMARK  1 active torsions:
REMARK  status: ('A' for Active; 'I' for Inactive)
REMARK    1  A    between atoms: N1_1  and  C1_5
ROOT
HETATM    1  C1  UNL     1      36.062  16.867   7.594  1.00  0.00     0.255 C
HETATM    2  C2  UNL     1      35.888  17.898   8.650  1.00  0.00     0.284 C
HETATM    3  C3  UNL     1      34.832  17.639   9.691  1.00  0.00     0.273 C
HETATM    4  N2  UNL     1      35.205  16.372  10.233  1.00  0.00    -0.039 N
ATOM      5  H21 UNL     1      34.609  15.614   9.899  1.00  0.00     0.279 HD
ATOM      6  H22 UNL     1      34.989  16.293  11.226  1.00  0.00     0.279 HD
HETATM    7  C4  UNL     1      36.594  16.141   9.953  1.00  0.00     0.456 A
HETATM    8  C5  UNL     1      37.000  16.158   8.550  1.00  0.00     0.319 A
HETATM    9  N3  UNL     1      37.075  17.412   9.317  1.00  0.00     0.141 N
ENDROOT
BRANCH   1  10
HETATM   10  N1  UNL     1      34.872  16.141   7.247  1.00  0.00    -0.071 N
ATOM     11  H13 UNL     1      34.074  16.504   7.769  1.00  0.00     0.274 HD
ATOM     12  H12 UNL     1      34.584  16.373   6.296  1.00  0.00     0.274 HD
ATOM     13  H11 UNL     1      34.933  15.129   7.358  1.00  0.00     0.274 HD
ENDBRANCH   1  10
TORSDOF 1
ENDMDL