MODEL 1
REMARK VINA RESULT: -2.079075204      0.000      0.000
REMARK  1 active torsions:
REMARK  status: ('A' for Active; 'I' for Inactive)
REMARK    1  A    between atoms: C4_8  and  N3_9
ROOT
HETATM    1  C1  UNL     1      37.182  18.016   8.574  1.00  0.00     0.279 C
HETATM    2  N1  UNL     1      36.227  16.967   8.850  1.00  0.00     0.003 N
HETATM    3  C2  UNL     1      36.029  16.141   7.701  1.00  0.00     0.279 C
HETATM    4  C3  UNL     1      36.496  16.206  10.069  1.00  0.00     0.476 C
HETATM    5  N2  UNL     1      35.033  16.141  10.229  1.00  0.00     0.003 N
ATOM      6  H21 UNL     1      34.596  16.033  11.144  1.00  0.00     0.283 HD
ATOM      7  H22 UNL     1      34.493  15.333   9.919  1.00  0.00     0.283 HD
HETATM    8  C4  UNL     1      35.002  17.421   9.500  1.00  0.00     0.585 C
ENDROOT
BRANCH   8   9
HETATM    9  N3  UNL     1      35.206  18.485  10.443  1.00  0.00    -0.025 N
ATOM     10  H33 UNL     1      35.850  18.194  11.179  1.00  0.00     0.278 HD
ATOM     11  H32 UNL     1      35.752  19.238  10.024  1.00  0.00     0.278 HD
ATOM     12  H31 UNL     1      34.343  18.850  10.846  1.00  0.00     0.278 HD
ENDBRANCH   8   9
TORSDOF 1
ENDMDL