MODEL 1
REMARK VINA RESULT: -2.854508823      0.000      0.000
REMARK  1 active torsions:
REMARK  status: ('A' for Active; 'I' for Inactive)
REMARK    1  A    between atoms: N3_8  and  C3_9
ROOT
HETATM    1  N1  UNL     1      33.943  18.016  10.068  1.00  0.00    -0.371 N
ATOM      2  H11 UNL     1      33.675  18.250  11.024  1.00  0.00     0.159 HD
ATOM      3  H12 UNL     1      33.013  18.255   9.725  1.00  0.00     0.159 HD
HETATM    4  C1  UNL     1      35.011  17.591   9.498  1.00  0.00     0.179 C
HETATM    5  N2  UNL     1      35.384  17.266   8.170  1.00  0.00    -0.345 N
ATOM      6  H2  UNL     1      34.892  17.122   7.289  1.00  0.00     0.164 HD
HETATM    7  C2  UNL     1      36.760  17.227   8.600  1.00  0.00     0.259 C
HETATM    8  N3  UNL     1      36.302  17.260   9.974  1.00  0.00    -0.287 N
ENDROOT
BRANCH   8   9
HETATM    9  C3  UNL     1      36.923  17.042  11.235  1.00  0.00     0.127 A
HETATM   10  N4  UNL     1      37.453  17.502  12.319  1.00  0.00    -0.347 N
HETATM   11  C4  UNL     1      37.453  16.147  12.299  1.00  0.00     0.138 A
ATOM     12  H4  UNL     1      37.706  18.338  12.846  1.00  0.00     0.167 HD
ENDBRANCH   8   9
TORSDOF 1
ENDMDL