MODEL 1
REMARK VINA RESULT: -6.232286738      0.000      0.000
REMARK  6 active torsions:
REMARK  status: ('A' for Active; 'I' for Inactive)
REMARK    1  A    between atoms: C3_6  and  N3_7
REMARK    2  A    between atoms: N3_7  and  C4_9
REMARK    3  A    between atoms: C4_9  and  C5_10
REMARK    4  A    between atoms: C5_10  and  S1_11
REMARK    5  A    between atoms: S1_11  and  C6_12
REMARK    6  A    between atoms: C6_12  and  C7_13
ROOT
HETATM    1  C4  UNL     1       5.606  -8.619  18.650  1.00  0.00     0.148 C
ENDROOT
BRANCH   1   2
HETATM    2  N3  UNL     1       6.898  -9.300  18.574  1.00  0.00    -0.224 N
ATOM      3  H3  UNL     1       7.634  -8.983  17.942  1.00  0.00     0.177 HD
BRANCH   2   4
HETATM    4  C3  UNL     1       7.061 -10.324  19.346  1.00  0.00     0.693 A
HETATM    5  N2  UNL     1       6.981 -10.374  20.707  1.00  0.00    -0.185 N
HETATM    6  C2  UNL     1       7.215 -11.622  21.143  1.00  0.00     0.217 A
ATOM      7  H2  UNL     1       6.774  -9.576  21.308  1.00  0.00     0.185 HD
HETATM    8  N1  UNL     1       7.442 -12.358  20.042  1.00  0.00    -0.277 N
HETATM    9  C1  UNL     1       7.743 -13.779  20.012  1.00  0.00     0.179 C
HETATM   10  N5  UNL     1       7.349 -11.573  18.964  1.00  0.00    -0.130 N
ATOM     11  H5  UNL     1       7.478 -11.879  18.000  1.00  0.00     0.206 HD
ENDBRANCH   2   4
ENDBRANCH   1   2
BRANCH   1  12
HETATM   12  C5  UNL     1       4.644  -9.178  17.599  1.00  0.00     0.094 C
BRANCH  12  13
HETATM   13  S1  UNL     1       5.234  -8.618  16.002  1.00  0.00    -0.165 SA
BRANCH  13  14
HETATM   14  C6  UNL     1       4.471  -9.430  14.606  1.00  0.00     0.106 C
BRANCH  14  15
HETATM   15  C7  UNL     1       5.258 -10.582  14.049  1.00  0.00     0.195 C
HETATM   16  C8  UNL     1       4.774 -11.007  12.690  1.00  0.00     0.035 C
HETATM   17  C9  UNL     1       5.183  -9.859  11.816  1.00  0.00     0.029 C
HETATM   18  C10 UNL     1       6.481  -9.414  12.448  1.00  0.00     0.233 C
HETATM   19  N4  UNL     1       6.592 -10.054  13.723  1.00  0.00    -0.070 N
ATOM     20  H42 UNL     1       6.972  -9.444  14.447  1.00  0.00     0.277 HD
ATOM     21  H41 UNL     1       7.325 -10.762  13.756  1.00  0.00     0.277 HD
ENDBRANCH  14  15
ENDBRANCH  13  14
ENDBRANCH  12  13
ENDBRANCH   1  12
TORSDOF 6
ENDMDL