MODEL 4
REMARK VINA RESULT: -5.100908602      1.899      2.670
REMARK  8 active torsions:
REMARK  status: ('A' for Active; 'I' for Inactive)
REMARK    1  A    between atoms: N2_7  and  C6_8
REMARK    2  A    between atoms: C6_8  and  C7_9
REMARK    3  A    between atoms: C7_9  and  C8_10
REMARK    4  A    between atoms: C8_10  and  C9_11
REMARK    5  A    between atoms: C9_11  and  O1_12
REMARK    6  A    between atoms: C11_15  and  O2_16
REMARK    7  A    between atoms: C11_15  and  C12_18
REMARK    8  A    between atoms: C12_18  and  O3_19
ROOT
HETATM    1  C1  UNL     1       7.177 -14.776  21.862  1.00  0.00     0.276 C
HETATM    2  N1  UNL     1       6.456 -13.908  20.914  1.00  0.00    -0.032 N
HETATM    3  C2  UNL     1       5.946 -14.783  19.900  1.00  0.00     0.276 C
HETATM    4  C3  UNL     1       5.391 -13.308  21.687  1.00  0.00     0.223 C
HETATM    5  C4  UNL     1       6.104 -12.042  22.200  1.00  0.00     0.076 C
HETATM    6  C5  UNL     1       6.531 -11.623  20.805  1.00  0.00     0.290 C
HETATM    7  N2  UNL     1       5.245 -11.595  20.110  1.00  0.00     0.100 N
HETATM    8  C10 UNL     1       4.427 -12.596  20.754  1.00  0.00     0.306 C
HETATM    9  C11 UNL     1       7.315 -12.869  20.444  1.00  0.00     0.280 C
ENDROOT
BRANCH   7  10
HETATM   10  C6  UNL     1       4.722 -10.278  20.320  1.00  0.00     0.273 C
BRANCH  10  11
HETATM   11  C7  UNL     1       5.297  -9.202  19.492  1.00  0.00     0.032 C
BRANCH  11  12
HETATM   12  C8  UNL     1       4.873  -9.090  18.074  1.00  0.00     0.028 C
BRANCH  12  13
HETATM   13  C9  UNL     1       6.010  -8.517  17.209  1.00  0.00     0.164 C
BRANCH  13  14
HETATM   14  O1  UNL     1       6.982  -7.940  18.020  1.00  0.00    -0.401 OA
ATOM     15  H1  UNL     1       7.827  -7.970  17.587  1.00  0.00     0.209 HD
ENDBRANCH  13  14
ENDBRANCH  12  13
ENDBRANCH  11  12
ENDBRANCH  10  11
ENDBRANCH   7  10
BRANCH   9  16
HETATM   16  O2  UNL     1       8.457 -12.846  21.247  1.00  0.00    -0.361 OA
ATOM     17  H2  UNL     1       8.599 -11.954  21.539  1.00  0.00     0.212 HD
ENDBRANCH   9  16
BRANCH   9  18
HETATM   18  C12 UNL     1       7.725 -12.945  19.029  1.00  0.00     0.235 C
BRANCH  18  19
HETATM   19  O3  UNL     1       8.090 -11.674  18.590  1.00  0.00    -0.396 OA
ATOM     20  H3  UNL     1       8.743 -11.757  17.906  1.00  0.00     0.209 HD
ENDBRANCH  18  19
ENDBRANCH   9  18
TORSDOF 8
ENDMDL