MODEL 4
REMARK VINA RESULT: -5.328901244      4.034      7.325
REMARK  6 active torsions:
REMARK  status: ('A' for Active; 'I' for Inactive)
REMARK    1  A    between atoms: N1_1  and  C1_5
REMARK    2  A    between atoms: C1_5  and  C2_6
REMARK    3  A    between atoms: C2_6  and  C3_7
REMARK    4  A    between atoms: C3_7  and  N2_8
REMARK    5  A    between atoms: N2_8  and  C4_10
REMARK    6  A    between atoms: C4_10  and  C5_11
ROOT
HETATM    1  C5  UNL     1       4.874 -10.743  13.013  1.00  0.00     0.042 C
HETATM    2  C6  UNL     1       3.665  -9.959  13.266  1.00  0.00     0.119 C
HETATM    3  S1  UNL     1       3.513  -8.911  11.808  1.00  0.00     0.020 S
HETATM    4  O1  UNL     1       2.014  -8.995  11.119  1.00  0.00    -0.258 OA
HETATM    5  C7  UNL     1       4.761  -9.772  10.827  1.00  0.00     0.087 C
HETATM    6  C8  UNL     1       5.311  -8.882   9.763  1.00  0.00     0.045 C
HETATM    7  C9  UNL     1       5.898  -7.643  10.362  1.00  0.00     0.233 C
HETATM    8  N3  UNL     1       6.815  -7.998  11.399  1.00  0.00    -0.075 N
ATOM      9  H31 UNL     1       7.285  -7.167  11.759  1.00  0.00     0.277 HD
ATOM     10  H32 UNL     1       7.617  -8.496  11.011  1.00  0.00     0.277 HD
HETATM   11  C10 UNL     1       6.222  -8.758  12.486  1.00  0.00     0.238 C
HETATM   12  C11 UNL     1       5.726 -10.051  11.956  1.00  0.00     0.037 C
ENDROOT
BRANCH   1  13
HETATM   13  C4  UNL     1       5.722 -11.056  14.191  1.00  0.00     0.066 C
BRANCH  13  14
HETATM   14  N2  UNL     1       5.496 -10.629  15.452  1.00  0.00    -0.382 N
ATOM     15  H2  UNL     1       5.142 -11.387  16.036  1.00  0.00     0.164 HD
BRANCH  14  16
HETATM   16  C3  UNL     1       5.607  -9.475  16.165  1.00  0.00     0.061 C
BRANCH  16  17
HETATM   17  C2  UNL     1       4.633  -9.066  17.218  1.00  0.00     0.072 C
BRANCH  17  18
HETATM   18  C1  UNL     1       5.395  -8.770  18.534  1.00  0.00     0.234 C
BRANCH  18  19
HETATM   19  N1  UNL     1       6.789  -8.625  18.211  1.00  0.00    -0.079 N
ATOM     20  H13 UNL     1       7.396  -8.707  19.027  1.00  0.00     0.274 HD
ATOM     21  H12 UNL     1       7.160  -9.419  17.688  1.00  0.00     0.274 HD
ATOM     22  H11 UNL     1       6.904  -7.738  17.720  1.00  0.00     0.274 HD
ENDBRANCH  18  19
ENDBRANCH  17  18
ENDBRANCH  16  17
ENDBRANCH  14  16
ENDBRANCH  13  14
ENDBRANCH   1  13
TORSDOF 6
ENDMDL