MODEL 3
REMARK VINA RESULT: -6.035555166      1.707      6.831
REMARK  5 active torsions:
REMARK  status: ('A' for Active; 'I' for Inactive)
REMARK    1  A    between atoms: C2_2  and  N1_3
REMARK    2  A    between atoms: N2_6  and  C5_7
REMARK    3  A    between atoms: C5_7  and  C6_8
REMARK    4  A    between atoms: C6_8  and  N3_9
REMARK    5  A    between atoms: N3_9  and  C7_12
ROOT
HETATM    1  N3  UNL     1       6.294  -9.199  13.722  1.00  0.00    -0.067 N
ATOM      2  H31 UNL     1       7.182  -9.311  14.211  1.00  0.00     0.277 HD
ATOM      3  H32 UNL     1       6.426  -8.228  13.437  1.00  0.00     0.277 HD
ENDROOT
BRANCH   1   4
HETATM    4  C6  UNL     1       5.122  -9.392  14.596  1.00  0.00     0.263 C
BRANCH   4   5
HETATM    5  C5  UNL     1       5.289  -8.579  15.848  1.00  0.00     0.300 C
BRANCH   5   6
HETATM    6  N2  UNL     1       5.081  -9.362  17.011  1.00  0.00     0.093 N
HETATM    7  C4  UNL     1       5.857 -10.559  17.032  1.00  0.00     0.302 C
HETATM    8  C3  UNL     1       6.333 -11.075  18.320  1.00  0.00     0.302 C
HETATM    9  N1  UNL     1       6.779 -10.079  19.261  1.00  0.00     0.091 N
HETATM   10  C12 UNL     1       6.452  -8.744  18.836  1.00  0.00     0.302 C
HETATM   11  C11 UNL     1       5.071  -8.632  18.240  1.00  0.00     0.302 C
BRANCH   9  12
HETATM   12  C2  UNL     1       6.304 -10.367  20.604  1.00  0.00     0.268 C
HETATM   13  C1  UNL     1       7.241 -11.479  21.107  1.00  0.00     0.037 C
ENDBRANCH   9  12
ENDBRANCH   5   6
ENDBRANCH   4   5
ENDBRANCH   1   4
BRANCH   1  14
HETATM   14  C7  UNL     1       6.138 -10.115  12.593  1.00  0.00     0.210 C
HETATM   15  C8  UNL     1       4.747 -10.087  12.086  1.00  0.00     0.154 C
HETATM   16  N4  UNL     1       4.767  -9.198  10.925  1.00  0.00    -0.378 N
HETATM   17  C9  UNL     1       6.061  -8.647  10.773  1.00  0.00     0.072 C
ATOM     18  H4  UNL     1       3.970  -9.005  10.318  1.00  0.00     0.160 HD
HETATM   19  N5  UNL     1       6.378  -7.590  10.128  1.00  0.00    -0.389 N
HETATM   20  C10 UNL     1       7.034  -9.510  11.510  1.00  0.00     0.110 C
ATOM     21  H52 UNL     1       5.714  -7.002   9.624  1.00  0.00     0.157 HD
ATOM     22  H51 UNL     1       7.312  -7.193  10.017  1.00  0.00     0.157 HD
ENDBRANCH   1  14
TORSDOF 5
ENDMDL