MODEL 3
REMARK VINA RESULT: -6.168878515      1.825      2.538
REMARK  6 active torsions:
REMARK  status: ('A' for Active; 'I' for Inactive)
REMARK    1  A    between atoms: C2_2  and  N1_3
REMARK    2  A    between atoms: N1_3  and  C3_4
REMARK    3  A    between atoms: C3_4  and  C4_5
REMARK    4  A    between atoms: C4_5  and  O1_6
REMARK    5  A    between atoms: O1_6  and  N2_7
REMARK    6  A    between atoms: C10_15  and  O3_16
ROOT
HETATM    1  N1  UNL     1       4.512  -9.822  13.343  1.00  0.00    -0.063 N
HETATM    2  C8  UNL     1       4.948 -11.166  13.119  1.00  0.00     0.240 C
HETATM    3  C9  UNL     1       6.465 -11.173  13.203  1.00  0.00     0.061 C
HETATM    4  C10 UNL     1       6.809  -9.772  12.732  1.00  0.00     0.145 C
HETATM    5  C11 UNL     1       5.702  -8.973  13.356  1.00  0.00     0.269 C
ENDROOT
BRANCH   1   6
HETATM    6  C2  UNL     1       3.598  -9.462  12.288  1.00  0.00     0.233 C
HETATM    7  C1  UNL     1       4.162  -9.651  10.908  1.00  0.00     0.035 C
ENDBRANCH   1   6
BRANCH   1   8
HETATM    8  C3  UNL     1       3.861  -9.600  14.603  1.00  0.00     0.266 C
BRANCH   8   9
HETATM    9  C4  UNL     1       4.743  -9.050  15.681  1.00  0.00     0.248 C
BRANCH   9  10
HETATM   10  O1  UNL     1       3.981  -9.112  16.859  1.00  0.00    -0.130 OA
BRANCH  10  11
HETATM   11  N2  UNL     1       4.645  -9.587  17.905  1.00  0.00     0.253 N
HETATM   12  O2  UNL     1       3.748 -10.146  18.757  1.00  0.00    -0.016 OA
HETATM   13  C5  UNL     1       5.379  -8.609  18.661  1.00  0.00     0.381 C
HETATM   14  C6  UNL     1       6.028  -9.500  19.714  1.00  0.00     0.060 C
HETATM   15  C7  UNL     1       6.152 -10.808  18.939  1.00  0.00     0.157 C
HETATM   16  N3  UNL     1       5.627 -10.520  17.605  1.00  0.00     0.045 NA
ENDBRANCH  10  11
ENDBRANCH   9  10
ENDBRANCH   8   9
ENDBRANCH   1   8
BRANCH   4  17
HETATM   17  O3  UNL     1       8.012  -9.318  13.274  1.00  0.00    -0.394 OA
ATOM     18  H3  UNL     1       7.903  -8.993  14.160  1.00  0.00     0.210 HD
ENDBRANCH   4  17
TORSDOF 6
ENDMDL