MODEL 4
REMARK VINA RESULT: -6.787600179      1.112      1.250
REMARK  7 active torsions:
REMARK  status: ('A' for Active; 'I' for Inactive)
REMARK    1  A    between atoms: C2_2  and  N1_3
REMARK    2  A    between atoms: N1_3  and  C3_5
REMARK    3  A    between atoms: C4_10  and  N4_11
REMARK    4  A    between atoms: N4_11  and  C5_13
REMARK    5  A    between atoms: C5_13  and  C6_14
REMARK    6  A    between atoms: C6_14  and  C7_15
REMARK    7  A    between atoms: C7_15  and  N5_16
ROOT
HETATM    1  C3  UNL     1       5.453  -9.601  19.392  1.00  0.00     0.707 A
HETATM    2  N2  UNL     1       6.503  -8.771  19.280  1.00  0.00    -0.117 N
ATOM      3  H2  UNL     1       7.096  -8.470  20.053  1.00  0.00     0.206 HD
HETATM    4  N3  UNL     1       6.656  -8.395  17.998  1.00  0.00    -0.117 N
ATOM      5  H3  UNL     1       7.378  -7.769  17.640  1.00  0.00     0.206 HD
HETATM    6  C4  UNL     1       5.698  -8.986  17.275  1.00  0.00     0.707 A
HETATM    7  N6  UNL     1       4.964  -9.720  18.120  1.00  0.00    -0.020 N
ATOM      8  H6  UNL     1       4.158 -10.285  17.855  1.00  0.00     0.203 HD
ENDROOT
BRANCH   6   9
HETATM    9  N4  UNL     1       5.540  -8.850  16.004  1.00  0.00    -0.224 N
ATOM     10  H4  UNL     1       6.357  -8.789  15.396  1.00  0.00     0.177 HD
BRANCH   9  11
HETATM   11  C5  UNL     1       4.189  -8.782  15.419  1.00  0.00     0.140 C
BRANCH  11  12
HETATM   12  C6  UNL     1       3.997  -9.844  14.402  1.00  0.00     0.050 C
BRANCH  12  13
HETATM   13  C7  UNL     1       5.230 -10.571  14.035  1.00  0.00     0.274 C
BRANCH  13  14
HETATM   14  N5  UNL     1       5.678 -10.540  12.673  1.00  0.00     0.088 N
HETATM   15  C8  UNL     1       6.905  -9.701  12.695  1.00  0.00     0.272 C
HETATM   16  C9  UNL     1       7.042  -9.311  11.246  1.00  0.00     0.032 C
HETATM   17  C10 UNL     1       5.617  -8.967  10.853  1.00  0.00     0.032 C
HETATM   18  C11 UNL     1       4.806  -9.891  11.743  1.00  0.00     0.272 C
ENDBRANCH  13  14
ENDBRANCH  12  13
ENDBRANCH  11  12
ENDBRANCH   9  11
ENDBRANCH   6   9
BRANCH   1  19
HETATM   19  N1  UNL     1       4.936 -10.190  20.393  1.00  0.00    -0.225 N
ATOM     20  H1  UNL     1       4.106  -9.738  20.775  1.00  0.00     0.177 HD
BRANCH  19  21
HETATM   21  C2  UNL     1       5.328 -11.371  21.061  1.00  0.00     0.134 C
HETATM   22  C1  UNL     1       6.772 -11.498  21.425  1.00  0.00     0.027 C
ENDBRANCH  19  21
ENDBRANCH   1  19
TORSDOF 7
ENDMDL