MODEL 2
REMARK VINA RESULT: -5.651539646      1.713      7.120
REMARK  7 active torsions:
REMARK  status: ('A' for Active; 'I' for Inactive)
REMARK    1  A    between atoms: C1_2  and  N1_3
REMARK    2  A    between atoms: C1_2  and  N4_15
REMARK    3  A    between atoms: N1_3  and  C2_5
REMARK    4  A    between atoms: C2_5  and  C3_6
REMARK    5  A    between atoms: C3_6  and  N2_7
REMARK    6  A    between atoms: N4_15  and  C8_17
REMARK    7  A    between atoms: C8_17  and  C9_18
ROOT
HETATM    1  N1  UNL     1       5.919  -8.446  16.138  1.00  0.00    -0.366 N
ATOM      2  H1  UNL     1       6.768  -7.889  16.226  1.00  0.00     0.161 HD
ENDROOT
BRANCH   1   3
HETATM    3  C1  UNL     1       5.506  -8.956  14.891  1.00  0.00     0.167 C
HETATM    4  S1  UNL     1       3.926  -9.327  14.621  1.00  0.00    -0.041 SA
BRANCH   3   5
HETATM    5  N4  UNL     1       6.479  -9.153  13.865  1.00  0.00    -0.367 N
ATOM      6  H4  UNL     1       7.206  -8.452  13.724  1.00  0.00     0.161 HD
BRANCH   5   7
HETATM    7  C8  UNL     1       6.456 -10.322  13.026  1.00  0.00     0.126 C
BRANCH   7   8
HETATM    8  C9  UNL     1       6.495  -9.930  11.581  1.00  0.00     0.003 A
HETATM    9  C10 UNL     1       5.202  -9.455  10.966  1.00  0.00     0.007 A
HETATM   10  C11 UNL     1       6.378  -8.548  11.123  1.00  0.00     0.007 A
ENDBRANCH   7   8
ENDBRANCH   5   7
ENDBRANCH   3   5
ENDBRANCH   1   3
BRANCH   1  11
HETATM   11  C2  UNL     1       5.096  -8.742  17.286  1.00  0.00     0.141 C
BRANCH  11  12
HETATM   12  C3  UNL     1       5.841  -9.041  18.531  1.00  0.00     0.136 C
BRANCH  12  13
HETATM   13  N2  UNL     1       5.570 -10.274  19.165  1.00  0.00    -0.408 N
HETATM   14  C4  UNL     1       5.659 -10.287  20.586  1.00  0.00     0.144 C
HETATM   15  C5  UNL     1       7.078 -10.693  20.988  1.00  0.00     0.251 C
HETATM   16  N3  UNL     1       7.567 -11.832  20.285  1.00  0.00    -0.072 N
HETATM   17  C6  UNL     1       7.501 -11.622  18.851  1.00  0.00     0.251 C
ATOM     18  H32 UNL     1       8.508 -12.085  20.586  1.00  0.00     0.277 HD
ATOM     19  H31 UNL     1       7.082 -12.684  20.564  1.00  0.00     0.277 HD
HETATM   20  C7  UNL     1       6.015 -11.451  18.519  1.00  0.00     0.144 C
ENDBRANCH  12  13
ENDBRANCH  11  12
ENDBRANCH   1  11
TORSDOF 7
ENDMDL