MODEL 5
REMARK VINA RESULT: -5.738144329      1.158      1.667
REMARK  8 active torsions:
REMARK  status: ('A' for Active; 'I' for Inactive)
REMARK    1  A    between atoms: N1_7  and  C8_9
REMARK    2  A    between atoms: C8_9  and  C9_10
REMARK    3  A    between atoms: C9_10  and  O1_11
REMARK    4  A    between atoms: O1_11  and  C10_12
REMARK    5  A    between atoms: C10_12  and  C11_13
REMARK    6  A    between atoms: C11_13  and  O2_15
REMARK    7  A    between atoms: C11_13  and  C13_17
REMARK    8  A    between atoms: C13_17  and  O3_18
ROOT
HETATM    1  C9  UNL     1       4.040  -8.829  14.936  1.00  0.00     0.195 C
ENDROOT
BRANCH   1   2
HETATM    2  C8  UNL     1       5.261  -9.022  14.017  1.00  0.00     0.263 C
BRANCH   2   3
HETATM    3  N1  UNL     1       4.918  -9.784  12.837  1.00  0.00    -0.065 N
HETATM    4  C2  UNL     1       4.904  -8.973  11.659  1.00  0.00     0.186 C
HETATM    5  C1  UNL     1       3.900  -9.594  10.674  1.00  0.00     0.040 C
HETATM    6  C3  UNL     1       6.189  -8.724  10.994  1.00  0.00     0.033 C
HETATM    7  C4  UNL     1       7.324  -9.610  11.313  1.00  0.00     0.004 C
HETATM    8  C5  UNL     1       7.241 -10.321  12.622  1.00  0.00     0.028 C
HETATM    9  C6  UNL     1       5.866 -10.878  12.783  1.00  0.00     0.237 C
HETATM   10  C7  UNL     1       3.628 -10.403  13.085  1.00  0.00     0.273 C
ENDBRANCH   2   3
ENDBRANCH   1   2
BRANCH   1  11
HETATM   11  O1  UNL     1       4.253  -9.420  16.125  1.00  0.00    -0.386 OA
BRANCH  11  12
HETATM   12  C10 UNL     1       5.018  -8.901  17.079  1.00  0.00     0.207 C
BRANCH  12  13
HETATM   13  C11 UNL     1       5.242  -9.586  18.378  1.00  0.00     0.096 C
HETATM   14  C12 UNL     1       5.732  -8.746  19.499  1.00  0.00     0.050 C
BRANCH  13  15
HETATM   15  O2  UNL     1       3.939 -10.133  18.699  1.00  0.00    -0.386 OA
ATOM     16  H2  UNL     1       3.735  -9.740  19.539  1.00  0.00     0.210 HD
ENDBRANCH  13  15
BRANCH  13  17
HETATM   17  C13 UNL     1       6.094 -10.853  18.292  1.00  0.00     0.203 C
BRANCH  17  18
HETATM   18  O3  UNL     1       6.240 -11.080  16.906  1.00  0.00    -0.398 OA
ATOM     19  H3  UNL     1       6.663 -10.293  16.584  1.00  0.00     0.209 HD
ENDBRANCH  17  18
ENDBRANCH  13  17
ENDBRANCH  12  13
ENDBRANCH  11  12
ENDBRANCH   1  11
TORSDOF 8
ENDMDL