MODEL 2
REMARK VINA RESULT: -6.443638513      0.853      1.428
REMARK  5 active torsions:
REMARK  status: ('A' for Active; 'I' for Inactive)
REMARK    1  A    between atoms: N2_6  and  C5_7
REMARK    2  A    between atoms: C5_7  and  C6_8
REMARK    3  A    between atoms: C6_8  and  C7_9
REMARK    4  A    between atoms: C7_9  and  C8_10
REMARK    5  A    between atoms: C8_10  and  N3_11
REMARK       I    between atoms: N3_11  and  C9_13
REMARK       I    between atoms: C9_13  and  N5_17
ROOT
HETATM    1  N3  UNL     1       5.946 -10.382  17.744  1.00  0.00    -0.226 N
ATOM      2  H3  UNL     1       5.671 -11.207  17.210  1.00  0.00     0.177 HD
HETATM    3  C9  UNL     1       6.789 -10.543  18.871  1.00  0.00     0.680 C
HETATM    4  N4  UNL     1       7.880 -11.252  18.781  1.00  0.00    -0.234 N
ATOM      5  H41 UNL     1       8.487 -11.368  19.593  1.00  0.00     0.174 HD
ATOM      6  H42 UNL     1       8.110 -11.684  17.887  1.00  0.00     0.174 HD
HETATM    7  N5  UNL     1       6.470  -9.946  20.107  1.00  0.00    -0.127 N
ATOM      8  H5  UNL     1       7.208  -9.539  20.680  1.00  0.00     0.197 HD
HETATM    9  C10 UNL     1       5.142  -9.911  20.549  1.00  0.00     0.196 C
HETATM   10  N6  UNL     1       4.043  -9.872  20.903  1.00  0.00    -0.171 NA
ENDROOT
BRANCH   1  11
HETATM   11  C8  UNL     1       5.459  -9.072  17.322  1.00  0.00     0.138 C
BRANCH  11  12
HETATM   12  C7  UNL     1       4.112  -9.195  16.648  1.00  0.00     0.022 C
BRANCH  12  13
HETATM   13  C6  UNL     1       4.150  -8.787  15.200  1.00  0.00     0.032 C
BRANCH  13  14
HETATM   14  C5  UNL     1       4.722  -9.962  14.431  1.00  0.00     0.275 C
BRANCH  14  15
HETATM   15  N2  UNL     1       5.768  -9.566  13.524  1.00  0.00     0.116 N
HETATM   16  C4  UNL     1       6.300  -8.250  13.831  1.00  0.00     0.302 C
HETATM   17  C3  UNL     1       6.861  -7.826  12.486  1.00  0.00     0.269 C
HETATM   18  N1  UNL     1       6.335  -8.766  11.513  1.00  0.00    -0.047 N
HETATM   19  C1  UNL     1       5.965  -8.118  10.278  1.00  0.00     0.274 C
HETATM   20  C2  UNL     1       7.244  -9.884  11.285  1.00  0.00     0.274 C
HETATM   21  C11 UNL     1       5.189  -9.308  12.215  1.00  0.00     0.506 C
ENDBRANCH  14  15
ENDBRANCH  13  14
ENDBRANCH  12  13
ENDBRANCH  11  12
ENDBRANCH   1  11
TORSDOF 5
ENDMDL