MODEL 3
REMARK VINA RESULT: -10.251648342      1.647      3.065
REMARK  14 active torsions:
REMARK  status: ('A' for Active; 'I' for Inactive)
REMARK    1  A    between atoms: C1_4  and  C2_5
REMARK    2  A    between atoms: C1_4  and  C19_42
REMARK       I    between atoms: C2_5  and  N2_7
REMARK    3  A    between atoms: C3_9  and  C4_10
REMARK    4  A    between atoms: C4_10  and  S1_11
REMARK    5  A    between atoms: S1_11  and  C5_12
REMARK    6  A    between atoms: C7_14  and  S2_15
REMARK    7  A    between atoms: S2_15  and  S3_16
REMARK    8  A    between atoms: S3_16  and  C8_17
REMARK    9  A    between atoms: N3_21  and  O2_22
REMARK       I    between atoms: N4_24  and  C12_25
REMARK   10  A    between atoms: C12_25  and  C13_27
REMARK   11  A    between atoms: C14_30  and  C15_31
REMARK   12  A    between atoms: C17_35  and  C18_36
REMARK   13  A    between atoms: C20_43  and  O9_44
REMARK   14  A    between atoms: N7_49  and  N8_50
ROOT
HETATM    1  C5  UNL     1       9.755  21.402   5.246  1.00  0.00     0.249 C
HETATM    2  C6  UNL     1      10.545  20.414   4.427  1.00  0.00     0.060 C
HETATM    3  C7  UNL     1      11.948  20.989   4.206  1.00  0.00     0.064 C
HETATM    4  C16 UNL     1      12.519  21.630   5.403  1.00  0.00     0.058 C
HETATM    5  C17 UNL     1      11.587  22.222   6.398  1.00  0.00     0.276 C
HETATM    6  N6  UNL     1      10.373  21.417   6.567  1.00  0.00    -0.050 N
ATOM      7  H61 UNL     1      10.541  20.490   6.959  1.00  0.00     0.279 HD
ATOM      8  H62 UNL     1       9.757  21.745   7.311  1.00  0.00     0.279 HD
ENDROOT
BRANCH   1   9
HETATM    9  S1  UNL     1       8.027  21.010   5.225  1.00  0.00    -0.131 SA
BRANCH   9  10
HETATM   10  C4  UNL     1       7.378  20.437   6.769  1.00  0.00     0.120 C
BRANCH  10  11
HETATM   11  C3  UNL     1       7.634  21.378   7.865  1.00  0.00     0.074 C
HETATM   12  N2  UNL     1       7.901  20.969   9.077  1.00  0.00    -0.335 N
HETATM   13  C2  UNL     1       7.924  19.511   9.243  1.00  0.00     0.273 C
ATOM     14  H2  UNL     1       8.078  21.613   9.847  1.00  0.00     0.168 HD
HETATM   15  O1  UNL     1       9.010  19.018   8.943  1.00  0.00    -0.266 OA
BRANCH  13  16
HETATM   16  C1  UNL     1       6.709  18.904   9.715  1.00  0.00     0.129 C
HETATM   17  N1  UNL     1       6.068  19.621  10.575  1.00  0.00    -0.393 N
ATOM     18  H12 UNL     1       6.459  20.523  10.846  1.00  0.00     0.156 HD
ATOM     19  H11 UNL     1       5.206  19.191  10.910  1.00  0.00     0.156 HD
BRANCH  16  20
HETATM   20  C19 UNL     1       6.145  17.606   9.325  1.00  0.00     0.151 A
HETATM   21  C20 UNL     1       4.807  17.262   9.513  1.00  0.00     0.220 A
HETATM   22  O10 UNL     1       4.667  16.029   9.050  1.00  0.00    -0.234 OA
HETATM   23  C21 UNL     1       5.766  15.586   8.603  1.00  0.00     0.393 A
HETATM   24  O11 UNL     1       5.992  14.461   8.094  1.00  0.00    -0.236 OA
HETATM   25  N7  UNL     1       6.711  16.538   8.756  1.00  0.00    -0.198 N
BRANCH  21  26
HETATM   26  O9  UNL     1       3.757  17.979  10.059  1.00  0.00    -0.339 OA
ATOM     27  H9  UNL     1       3.466  18.066  10.959  1.00  0.00     0.220 HD
ENDBRANCH  21  26
BRANCH  25  28
HETATM   28  N8  UNL     1       8.047  16.367   8.363  1.00  0.00    -0.334 N
ATOM     29  H82 UNL     1       8.502  15.456   8.314  1.00  0.00     0.177 HD
ATOM     30  H81 UNL     1       8.722  17.081   8.089  1.00  0.00     0.177 HD
ENDBRANCH  25  28
ENDBRANCH  16  20
ENDBRANCH  13  16
ENDBRANCH  10  11
ENDBRANCH   9  10
ENDBRANCH   1   9
BRANCH   3  31
HETATM   31  S2  UNL     1      12.089  21.826   2.643  1.00  0.00    -0.092 SA
BRANCH  31  32
HETATM   32  S3  UNL     1      13.964  22.088   1.834  1.00  0.00    -0.088 SA
BRANCH  32  33
HETATM   33  C8  UNL     1      14.750  20.677   1.081  1.00  0.00     0.112 C
HETATM   34  C9  UNL     1      14.167  19.349   1.292  1.00  0.00     0.108 C
HETATM   35  C10 UNL     1      15.023  18.359   0.470  1.00  0.00     0.067 C
HETATM   36  N3  UNL     1      14.616  18.660   2.473  1.00  0.00    -0.170 NA
HETATM   37  C11 UNL     1      15.816  18.300   1.716  1.00  0.00     0.191 C
HETATM   38  N4  UNL     1      16.688  19.480   1.895  1.00  0.00    -0.308 N
HETATM   39  C12 UNL     1      17.893  19.298   2.654  1.00  0.00     0.322 C
HETATM   40  C14 UNL     1      16.246  20.686   1.287  1.00  0.00     0.206 C
HETATM   41  O3  UNL     1      18.156  18.151   3.129  1.00  0.00    -0.261 OA
BRANCH  39  42
HETATM   42  C13 UNL     1      18.806  20.374   2.889  1.00  0.00     0.270 C
HETATM   43  O4  UNL     1      18.791  21.204   3.823  1.00  0.00    -0.640 OA
HETATM   44  O5  UNL     1      19.863  20.514   1.939  1.00  0.00    -0.640 OA
ENDBRANCH  39  42
BRANCH  40  45
HETATM   45  C15 UNL     1      16.946  21.003   0.028  1.00  0.00     0.198 C
HETATM   46  O6  UNL     1      16.748  22.114  -0.514  1.00  0.00    -0.646 OA
HETATM   47  O7  UNL     1      17.800  20.105  -0.550  1.00  0.00    -0.646 OA
ENDBRANCH  40  45
BRANCH  36  48
HETATM   48  O2  UNL     1      13.823  17.590   2.731  1.00  0.00    -0.311 OA
ATOM     49  H2  UNL     1      14.346  16.805   2.841  1.00  0.00     0.237 HD
ENDBRANCH  36  48
ENDBRANCH  32  33
ENDBRANCH  31  32
ENDBRANCH   3  31
BRANCH   5  50
HETATM   50  C18 UNL     1      12.318  22.307   7.705  1.00  0.00     0.262 C
HETATM   51  N5  UNL     1      13.744  22.356   7.706  1.00  0.00    -0.060 NA
HETATM   52  O8  UNL     1      11.715  22.336   8.790  1.00  0.00    -0.275 OA
ENDBRANCH   5  50
TORSDOF 14
ENDMDL