MODEL 1
REMARK VINA RESULT: -9.674753562      0.000      0.000
REMARK  15 active torsions:
REMARK  status: ('A' for Active; 'I' for Inactive)
REMARK    1  A    between atoms: C3_7  and  N3_8
REMARK    2  A    between atoms: N4_11  and  C6_12
REMARK    3  A    between atoms: C8_19  and  S1_20
REMARK    4  A    between atoms: S1_20  and  C9_22
REMARK    5  A    between atoms: C9_22  and  C10_23
REMARK    6  A    between atoms: C10_23  and  O3_24
REMARK    7  A    between atoms: C10_23  and  O4_26
REMARK    8  A    between atoms: C14_38  and  N11_39
REMARK    9  A    between atoms: N11_39  and  C15_41
REMARK   10  A    between atoms: C18_44  and  O5_45
REMARK   11  A    between atoms: O5_45  and  S2_46
REMARK   12  A    between atoms: C20_51  and  O9_52
REMARK   13  A    between atoms: O9_52  and  C21_53
REMARK   14  A    between atoms: C21_53  and  C22_54
REMARK   15  A    between atoms: C22_54  and  O10_55
ROOT
HETATM    1  C1  UNL     1      19.934  20.153   1.870  1.00  0.00     0.180 C
HETATM    2  N1  UNL     1      18.551  20.576   1.797  1.00  0.00    -0.136 N
HETATM    3  C2  UNL     1      17.923  21.153   2.827  1.00  0.00     0.354 A
HETATM    4  O1  UNL     1      18.603  21.323   3.902  1.00  0.00    -0.245 OA
HETATM    5  N2  UNL     1      16.639  21.547   2.776  1.00  0.00    -0.140 N
ATOM      6  H2  UNL     1      16.199  21.982   3.586  1.00  0.00     0.189 HD
HETATM    7  C3  UNL     1      15.927  21.354   1.615  1.00  0.00     0.700 A
HETATM    8  N10 UNL     1      16.573  20.781   0.608  1.00  0.00    -0.022 N
ATOM      9  H10 UNL     1      16.054  20.633  -0.257  1.00  0.00     0.203 HD
HETATM   10  C14 UNL     1      17.851  20.381   0.636  1.00  0.00     0.703 A
ENDROOT
BRANCH   7  11
HETATM   11  N3  UNL     1      14.576  21.747   1.538  1.00  0.00    -0.199 N
HETATM   12  C4  UNL     1      13.443  21.043   0.940  1.00  0.00     0.163 C
HETATM   13  C5  UNL     1      12.284  21.405   1.873  1.00  0.00     0.146 C
HETATM   14  N4  UNL     1      12.901  22.265   2.879  1.00  0.00    -0.346 N
HETATM   15  C13 UNL     1      13.932  22.968   2.088  1.00  0.00     0.269 C
BRANCH  14  16
HETATM   16  C6  UNL     1      12.691  22.438   4.250  1.00  0.00     0.153 A
HETATM   17  N5  UNL     1      13.528  23.186   5.068  1.00  0.00    -0.269 N
HETATM   18  N6  UNL     1      13.120  23.113   6.300  1.00  0.00    -0.234 N
ATOM     19  H5  UNL     1      14.341  23.712   4.750  1.00  0.00     0.190 HD
HETATM   20  N7  UNL     1      12.031  22.348   6.378  1.00  0.00    -0.243 N
ATOM     21  H6  UNL     1      13.567  23.575   7.092  1.00  0.00     0.209 HD
HETATM   22  C7  UNL     1      11.280  22.002   7.441  1.00  0.00     0.157 A
HETATM   23  C12 UNL     1      11.755  21.925   5.109  1.00  0.00     0.146 A
HETATM   24  C8  UNL     1      10.175  21.185   7.271  1.00  0.00     0.119 A
HETATM   25  N8  UNL     1       9.905  20.775   6.031  1.00  0.00    -0.332 N
HETATM   26  C11 UNL     1      10.661  21.119   4.935  1.00  0.00     0.133 A
ATOM     27  H8  UNL     1       9.094  20.173   5.888  1.00  0.00     0.168 HD
HETATM   28  N9  UNL     1      10.308  20.708   3.798  1.00  0.00    -0.383 N
ATOM     29  H92 UNL     1       9.492  20.108   3.669  1.00  0.00     0.157 HD
ATOM     30  H91 UNL     1      10.868  20.963   2.985  1.00  0.00     0.157 HD
BRANCH  24  31
HETATM   31  S1  UNL     1       9.173  20.700   8.590  1.00  0.00     0.072 S
HETATM   32  O2  UNL     1       8.766  21.907   9.644  1.00  0.00    -0.251 OA
BRANCH  31  33
HETATM   33  C9  UNL     1       7.820  19.678   8.151  1.00  0.00     0.176 C
BRANCH  33  34
HETATM   34  C10 UNL     1       7.200  19.183   9.466  1.00  0.00     0.265 C
BRANCH  34  35
HETATM   35  O3  UNL     1       8.164  18.872  10.397  1.00  0.00    -0.371 OA
ATOM     36  H3  UNL     1       7.966  18.061  10.851  1.00  0.00     0.212 HD
ENDBRANCH  34  35
BRANCH  34  37
HETATM   37  O4  UNL     1       6.328  20.166   9.952  1.00  0.00    -0.371 OA
ATOM     38  H4  UNL     1       5.446  19.812   9.969  1.00  0.00     0.212 HD
ENDBRANCH  34  37
ENDBRANCH  33  34
ENDBRANCH  31  33
ENDBRANCH  24  31
ENDBRANCH  14  16
ENDBRANCH   7  11
BRANCH  10  39
HETATM   39  N11 UNL     1      18.469  19.827  -0.335  1.00  0.00    -0.188 N
ATOM     40  H11 UNL     1      19.487  19.842  -0.274  1.00  0.00     0.184 HD
BRANCH  39  41
HETATM   41  C15 UNL     1      17.941  19.204  -1.465  1.00  0.00     0.082 A
HETATM   42  C16 UNL     1      18.042  19.658  -2.744  1.00  0.00     0.036 A
HETATM   43  C17 UNL     1      17.498  18.975  -3.820  1.00  0.00     0.040 A
HETATM   44  C18 UNL     1      16.823  17.790  -3.641  1.00  0.00     0.094 A
HETATM   45  C19 UNL     1      16.722  17.326  -2.323  1.00  0.00     0.077 A
HETATM   46  C20 UNL     1      17.258  17.995  -1.246  1.00  0.00     0.098 A
BRANCH  44  47
HETATM   47  O5  UNL     1      16.267  17.076  -4.690  1.00  0.00    -0.214 OA
BRANCH  47  48
HETATM   48  S2  UNL     1      14.814  17.547  -5.443  1.00  0.00     0.256 S
HETATM   49  O6  UNL     1      13.801  17.822  -4.371  1.00  0.00    -0.572 OA
HETATM   50  O7  UNL     1      14.370  16.447  -6.374  1.00  0.00    -0.572 OA
HETATM   51  O8  UNL     1      15.037  18.937  -6.364  1.00  0.00    -0.572 OA
ENDBRANCH  47  48
ENDBRANCH  44  47
BRANCH  46  52
HETATM   52  O9  UNL     1      17.144  17.520   0.014  1.00  0.00    -0.347 OA
BRANCH  52  53
HETATM   53  C21 UNL     1      16.178  16.880   0.723  1.00  0.00     0.201 C
BRANCH  53  54
HETATM   54  C22 UNL     1      15.160  17.715   1.436  1.00  0.00     0.190 C
BRANCH  54  55
HETATM   55  O10 UNL     1      15.717  18.358   2.545  1.00  0.00    -0.399 OA
ATOM     56  H10 UNL     1      15.155  18.281   3.307  1.00  0.00     0.209 HD
ENDBRANCH  54  55
ENDBRANCH  53  54
ENDBRANCH  52  53
ENDBRANCH  46  52
ENDBRANCH  39  41
ENDBRANCH  10  39
TORSDOF 15
ENDMDL