MODEL 1
REMARK VINA RESULT: -8.786467101      0.000      0.000
REMARK  18 active torsions:
REMARK  status: ('A' for Active; 'I' for Inactive)
REMARK    1  A    between atoms: O1_2  and  C2_3
REMARK    2  A    between atoms: C2_3  and  O2_4
REMARK    3  A    between atoms: C2_3  and  C3_6
REMARK    4  A    between atoms: C5_9  and  C6_10
REMARK    5  A    between atoms: C6_10  and  C7_11
REMARK    6  A    between atoms: C7_11  and  O5_13
REMARK    7  A    between atoms: O5_13  and  C8_14
REMARK    8  A    between atoms: C8_14  and  C9_15
REMARK    9  A    between atoms: C9_15  and  O6_16
REMARK   10  A    between atoms: C9_15  and  C10_18
REMARK   11  A    between atoms: C10_18  and  O7_19
REMARK   12  A    between atoms: C14_27  and  O11_28
REMARK   13  A    between atoms: C16_31  and  O12_32
REMARK   14  A    between atoms: C21_39  and  O14_40
REMARK   15  A    between atoms: O14_40  and  C22_41
REMARK   16  A    between atoms: C22_41  and  C23_43
REMARK   17  A    between atoms: C23_43  and  C24_44
REMARK   18  A    between atoms: C24_44  and  C26_46
ROOT
HETATM    1  C3  UNL     1      15.815  17.094   2.600  1.00  0.00     0.182 C
HETATM    2  O3  UNL     1      15.330  18.208   3.168  1.00  0.00    -0.356 OA
HETATM    3  C4  UNL     1      15.163  19.405   2.899  1.00  0.00     0.206 C
HETATM    4  C5  UNL     1      13.976  20.067   2.266  1.00  0.00     0.105 C
HETATM    5  C11 UNL     1      14.985  21.105   1.791  1.00  0.00     0.199 C
HETATM    6  O8  UNL     1      14.878  22.302   1.623  1.00  0.00    -0.291 OA
HETATM    7  C12 UNL     1      15.923  19.979   1.698  1.00  0.00     0.265 C
HETATM    8  O9  UNL     1      15.721  19.242   0.549  1.00  0.00    -0.270 OA
HETATM    9  C13 UNL     1      15.216  17.978   0.363  1.00  0.00     0.300 C
HETATM   10  O10 UNL     1      14.636  17.767  -0.727  1.00  0.00    -0.262 OA
HETATM   11  C14 UNL     1      15.230  16.763   1.250  1.00  0.00     0.189 C
HETATM   12  C15 UNL     1      15.934  15.684   0.511  1.00  0.00     0.122 C
HETATM   13  C16 UNL     1      16.992  14.938   1.197  1.00  0.00     0.186 C
HETATM   14  O13 UNL     1      17.302  15.379   2.473  1.00  0.00    -0.338 OA
HETATM   15  C17 UNL     1      17.251  16.827   2.549  1.00  0.00     0.218 C
HETATM   16  C18 UNL     1      18.185  17.298   1.531  1.00  0.00     0.045 C
HETATM   17  C19 UNL     1      18.539  18.447   1.030  1.00  0.00    -0.004 C
HETATM   18  C20 UNL     1      19.624  18.504  -0.091  1.00  0.00     0.051 C
HETATM   19  C21 UNL     1      18.124  19.842   1.305  1.00  0.00     0.305 C
HETATM   20  O18 UNL     1      17.196  20.097   2.224  1.00  0.00    -0.311 OA
HETATM   21  N1  UNL     1      18.954  16.180   0.941  1.00  0.00    -0.381 N
ATOM     22  H1  UNL     1      19.967  16.271   0.867  1.00  0.00     0.160 HD
HETATM   23  C27 UNL     1      18.332  14.963   0.465  1.00  0.00     0.140 C
HETATM   24  C28 UNL     1      18.196  14.857  -1.007  1.00  0.00     0.037 C
ENDROOT
BRANCH   4  25
HETATM   25  C6  UNL     1      12.996  20.647   3.268  1.00  0.00     0.126 C
BRANCH  25  26
HETATM   26  C7  UNL     1      11.617  20.343   2.756  1.00  0.00     0.259 C
HETATM   27  O4  UNL     1      11.458  19.614   1.753  1.00  0.00    -0.265 OA
BRANCH  26  28
HETATM   28  O5  UNL     1      10.542  20.866   3.386  1.00  0.00    -0.319 OA
BRANCH  28  29
HETATM   29  C8  UNL     1      10.359  21.232   4.686  1.00  0.00     0.212 C
BRANCH  29  30
HETATM   30  C9  UNL     1       9.278  20.577   5.468  1.00  0.00     0.166 C
BRANCH  30  31
HETATM   31  O6  UNL     1       8.089  20.467   4.809  1.00  0.00    -0.391 OA
ATOM     32  H6  UNL     1       7.352  20.232   5.361  1.00  0.00     0.210 HD
ENDBRANCH  30  31
BRANCH  30  33
HETATM   33  C10 UNL     1       9.014  21.325   6.771  1.00  0.00     0.198 C
BRANCH  33  34
HETATM   34  O7  UNL     1       9.947  21.004   7.739  1.00  0.00    -0.398 OA
ATOM     35  H7  UNL     1      10.176  21.759   8.267  1.00  0.00     0.209 HD
ENDBRANCH  33  34
ENDBRANCH  30  33
ENDBRANCH  29  30
ENDBRANCH  28  29
ENDBRANCH  26  28
ENDBRANCH  25  26
ENDBRANCH   4  25
BRANCH   1  36
HETATM   36  C2  UNL     1      15.167  16.142   3.559  1.00  0.00     0.297 C
BRANCH  36  37
HETATM   37  O1  UNL     1      14.224  15.203   3.320  1.00  0.00    -0.363 OA
HETATM   38  C1  UNL     1      14.200  13.885   3.804  1.00  0.00     0.204 C
ENDBRANCH  36  37
BRANCH  36  39
HETATM   39  O2  UNL     1      15.498  16.144   4.827  1.00  0.00    -0.368 OA
ATOM     40  H2  UNL     1      15.672  17.031   5.122  1.00  0.00     0.212 HD
ENDBRANCH  36  39
ENDBRANCH   1  36
BRANCH  11  41
HETATM   41  O11 UNL     1      13.887  16.452   1.425  1.00  0.00    -0.376 OA
ATOM     42  H11 UNL     1      13.568  16.055   0.623  1.00  0.00     0.211 HD
ENDBRANCH  11  41
BRANCH  19  43
HETATM   43  O14 UNL     1      19.284  20.613   1.721  1.00  0.00    -0.285 OA
BRANCH  43  44
HETATM   44  C22 UNL     1      19.720  20.716   3.007  1.00  0.00     0.262 C
HETATM   45  O15 UNL     1      18.981  21.204   3.875  1.00  0.00    -0.265 OA
BRANCH  44  46
HETATM   46  C23 UNL     1      21.076  20.254   3.410  1.00  0.00     0.126 C
BRANCH  46  47
HETATM   47  C24 UNL     1      21.760  21.213   4.333  1.00  0.00     0.092 C
HETATM   48  C25 UNL     1      22.839  20.399   5.066  1.00  0.00     0.021 C
BRANCH  47  49
HETATM   49  C26 UNL     1      22.545  22.233   3.551  1.00  0.00     0.177 C
HETATM   50  O16 UNL     1      23.624  22.697   3.956  1.00  0.00    -0.648 OA
HETATM   51  O17 UNL     1      22.038  22.665   2.337  1.00  0.00    -0.648 OA
ENDBRANCH  47  49
ENDBRANCH  46  47
ENDBRANCH  44  46
ENDBRANCH  43  44
ENDBRANCH  19  43
BRANCH  13  52
HETATM   52  O12 UNL     1      16.723  13.547   1.270  1.00  0.00    -0.363 OA
ATOM     53  H12 UNL     1      17.301  13.092   1.871  1.00  0.00     0.213 HD
ENDBRANCH  13  52
TORSDOF 18
ENDMDL