MODEL 4
REMARK VINA RESULT: -8.449112961      1.144      1.470
REMARK  15 active torsions:
REMARK  status: ('A' for Active; 'I' for Inactive)
REMARK    1  A    between atoms: C2_2  and  O2_4
REMARK    2  A    between atoms: O2_4  and  C3_5
REMARK    3  A    between atoms: C3_5  and  C4_6
REMARK    4  A    between atoms: C3_5  and  C5_13
REMARK    5  A    between atoms: C4_6  and  N1_7
REMARK    6  A    between atoms: C4_6  and  O3_11
REMARK    7  A    between atoms: C5_13  and  S1_14
REMARK    8  A    between atoms: C5_13  and  C20_49
REMARK    9  A    between atoms: S1_14  and  C6_15
REMARK   10  A    between atoms: C8_18  and  N2_19
REMARK       I    between atoms: N2_19  and  C9_21
REMARK   11  A    between atoms: C9_21  and  C10_23
REMARK   12  A    between atoms: N5_30  and  O6_31
REMARK   13  A    between atoms: O6_31  and  S2_32
REMARK   14  A    between atoms: S2_32  and  N6_35
REMARK       I    between atoms: N6_35  and  C14_37
REMARK   15  A    between atoms: C16_42  and  N8_43
ROOT
HETATM    1  C6  UNL     1      10.924  21.237   5.802  1.00  0.00     0.079 C
HETATM    2  C7  UNL     1      11.943  21.225   4.940  1.00  0.00     0.066 C
HETATM    3  O4  UNL     1      12.404  20.237   4.109  1.00  0.00    -0.326 OA
HETATM    4  C8  UNL     1      13.402  20.669   3.275  1.00  0.00     0.260 C
HETATM    5  C16 UNL     1      13.494  22.144   3.426  1.00  0.00     0.219 C
HETATM    6  C17 UNL     1      12.817  22.421   4.741  1.00  0.00     0.033 C
HETATM    7  C18 UNL     1      13.777  22.483   5.912  1.00  0.00     0.025 C
HETATM    8  C19 UNL     1      11.989  23.691   4.690  1.00  0.00     0.025 C
ENDROOT
BRANCH   4   9
HETATM    9  N2  UNL     1      14.693  20.006   3.433  1.00  0.00    -0.328 N
HETATM   10  C9  UNL     1      15.506  19.681   2.335  1.00  0.00     0.261 C
HETATM   11  O5  UNL     1      15.011  20.024   1.200  1.00  0.00    -0.267 OA
ATOM     12  H2  UNL     1      15.015  19.770   4.372  1.00  0.00     0.165 HD
BRANCH  10  13
HETATM   13  C10 UNL     1      16.793  19.036   2.305  1.00  0.00     0.124 A
HETATM   14  C11 UNL     1      16.927  17.651   2.360  1.00  0.00     0.029 A
HETATM   15  C12 UNL     1      15.740  16.783   2.410  1.00  0.00     0.069 C
HETATM   16  N3  UNL     1      18.144  17.112   2.356  1.00  0.00    -0.331 N
HETATM   17  C13 UNL     1      19.284  17.807   2.303  1.00  0.00     0.224 A
ATOM     18  H3  UNL     1      18.211  16.095   2.397  1.00  0.00     0.168 HD
HETATM   19  N4  UNL     1      20.568  17.202   2.287  1.00  0.00    -0.061 NA
HETATM   20  N5  UNL     1      19.156  19.156   2.249  1.00  0.00    -0.135 N
HETATM   21  C15 UNL     1      17.955  19.774   2.250  1.00  0.00     0.293 A
HETATM   22  O10 UNL     1      17.967  21.043   2.199  1.00  0.00    -0.264 OA
BRANCH  20  23
HETATM   23  O6  UNL     1      20.341  19.895   2.205  1.00  0.00    -0.121 OA
BRANCH  23  24
HETATM   24  S2  UNL     1      21.060  20.232   3.731  1.00  0.00     0.386 S
HETATM   25  O7  UNL     1      20.023  20.224   4.826  1.00  0.00    -0.173 OA
HETATM   26  O8  UNL     1      21.619  21.645   3.719  1.00  0.00    -0.173 OA
BRANCH  24  27
HETATM   27  N6  UNL     1      22.297  19.110   4.115  1.00  0.00    -0.214 N
HETATM   28  C14 UNL     1      23.336  19.425   5.023  1.00  0.00     0.343 C
HETATM   29  N7  UNL     1      24.326  18.462   5.295  1.00  0.00    -0.039 NA
HETATM   30  O9  UNL     1      23.347  20.554   5.558  1.00  0.00    -0.250 OA
ATOM     31  H6  UNL     1      22.284  18.188   3.676  1.00  0.00     0.185 HD
ENDBRANCH  24  27
ENDBRANCH  23  24
ENDBRANCH  20  23
ENDBRANCH  10  13
ENDBRANCH   4   9
BRANCH   5  32
HETATM   32  N8  UNL     1      12.803  22.860   2.356  1.00  0.00    -0.145 N
HETATM   33  O11 UNL     1      13.179  23.967   1.988  1.00  0.00    -0.536 OA
HETATM   34  O12 UNL     1      11.721  22.235   1.787  1.00  0.00    -0.536 OA
ENDBRANCH   5  32
BRANCH   1  35
HETATM   35  S1  UNL     1       9.854  19.834   6.072  1.00  0.00    -0.120 SA
BRANCH  35  36
HETATM   36  C5  UNL     1       8.394  20.431   7.004  1.00  0.00     0.186 C
BRANCH  36  37
HETATM   37  C3  UNL     1       7.939  19.440   8.010  1.00  0.00     0.212 C
BRANCH  37  38
HETATM   38  O2  UNL     1       8.801  18.329   8.034  1.00  0.00    -0.310 OA
BRANCH  38  39
HETATM   39  C2  UNL     1       8.535  17.178   8.759  1.00  0.00     0.255 C
HETATM   40  C1  UNL     1       9.579  16.489   9.558  1.00  0.00     0.126 C
HETATM   41  O1  UNL     1       7.382  16.708   8.738  1.00  0.00    -0.266 OA
ENDBRANCH  38  39
ENDBRANCH  37  38
BRANCH  37  42
HETATM   42  C4  UNL     1       7.641  19.937   9.380  1.00  0.00     0.347 C
BRANCH  42  43
HETATM   43  N1  UNL     1       7.835  21.332   9.609  1.00  0.00    -0.051 N
ATOM     44  H13 UNL     1       8.662  21.650   9.105  1.00  0.00     0.277 HD
ATOM     45  H12 UNL     1       7.108  21.863   9.128  1.00  0.00     0.277 HD
ATOM     46  H11 UNL     1       7.890  21.631  10.583  1.00  0.00     0.277 HD
ENDBRANCH  42  43
BRANCH  42  47
HETATM   47  O3  UNL     1       6.356  19.619   9.809  1.00  0.00    -0.368 OA
ATOM     48  H3  UNL     1       6.345  19.002  10.531  1.00  0.00     0.212 HD
ENDBRANCH  42  47
ENDBRANCH  37  42
ENDBRANCH  36  37
BRANCH  36  49
HETATM   49  C20 UNL     1       7.375  21.020   6.141  1.00  0.00     0.190 C
HETATM   50  O13 UNL     1       6.390  21.703   6.602  1.00  0.00    -0.647 OA
HETATM   51  O14 UNL     1       7.373  20.896   4.761  1.00  0.00    -0.647 OA
ENDBRANCH  36  49
ENDBRANCH  35  36
ENDBRANCH   1  35
TORSDOF 15
ENDMDL