MODEL 1
REMARK VINA RESULT: -8.720406248      0.000      0.000
REMARK  20 active torsions:
REMARK  status: ('A' for Active; 'I' for Inactive)
REMARK    1  A    between atoms: C2_2  and  N1_3
REMARK    2  A    between atoms: C2_2  and  C20_53
REMARK    3  A    between atoms: N1_3  and  C3_5
REMARK    4  A    between atoms: C3_5  and  O1_6
REMARK    5  A    between atoms: C3_5  and  C4_8
REMARK    6  A    between atoms: C4_8  and  O2_12
REMARK    7  A    between atoms: O2_12  and  C5_13
REMARK    8  A    between atoms: N4_17  and  O4_18
REMARK    9  A    between atoms: C6_20  and  S1_21
REMARK   10  A    between atoms: S1_21  and  C7_22
REMARK   11  A    between atoms: C7_22  and  O5_23
REMARK   12  A    between atoms: C7_22  and  C8_25
REMARK   13  A    between atoms: C7_22  and  C14_40
REMARK   14  A    between atoms: C8_25  and  O6_26
REMARK   15  A    between atoms: C8_25  and  N5_28
REMARK   16  A    between atoms: N5_28  and  C9_30
REMARK   17  A    between atoms: N6_33  and  S2_34
REMARK   18  A    between atoms: C16_42  and  O10_43
REMARK   19  A    between atoms: C17_45  and  O11_46
REMARK   20  A    between atoms: C18_48  and  N7_49
ROOT
HETATM    1  C7  UNL     1      17.224  20.449   1.906  1.00  0.00     0.205 C
ENDROOT
BRANCH   1   2
HETATM    2  S1  UNL     1      16.081  19.252   2.399  1.00  0.00    -0.051 SA
BRANCH   2   3
HETATM    3  C6  UNL     1      14.429  19.193   1.919  1.00  0.00     0.183 A
HETATM    4  C5  UNL     1      13.657  20.390   1.822  1.00  0.00     0.210 A
HETATM    5  N3  UNL     1      12.403  19.897   1.481  1.00  0.00    -0.214 N
HETATM    6  O3  UNL     1      12.438  18.673   1.390  1.00  0.00    -0.125 OA
ATOM      7  H3  UNL     1      11.573  20.470   1.329  1.00  0.00     0.199 HD
HETATM    8  N4  UNL     1      13.638  18.169   1.641  1.00  0.00    -0.091 N
BRANCH   4   9
HETATM    9  O2  UNL     1      14.100  21.645   2.029  1.00  0.00    -0.272 OA
BRANCH   9  10
HETATM   10  C4  UNL     1      13.522  22.494   2.915  1.00  0.00     0.168 C
HETATM   11  N2  UNL     1      12.794  23.519   2.597  1.00  0.00    -0.380 N
ATOM     12  H22 UNL     1      12.360  24.157   3.264  1.00  0.00     0.158 HD
ATOM     13  H21 UNL     1      12.657  23.676   1.599  1.00  0.00     0.158 HD
BRANCH  10  14
HETATM   14  C3  UNL     1      13.727  22.260   4.410  1.00  0.00     0.290 C
BRANCH  14  15
HETATM   15  N1  UNL     1      13.130  23.285   5.195  1.00  0.00    -0.377 N
ATOM     16  H1  UNL     1      13.308  24.274   5.021  1.00  0.00     0.157 HD
BRANCH  15  17
HETATM   17  C2  UNL     1      12.274  22.845   6.233  1.00  0.00     0.176 C
HETATM   18  C1  UNL     1      11.408  21.719   5.619  1.00  0.00     0.043 C
BRANCH  17  19
HETATM   19  C20 UNL     1      12.877  22.348   7.468  1.00  0.00     0.196 C
HETATM   20  O14 UNL     1      14.103  22.318   7.689  1.00  0.00    -0.646 OA
HETATM   21  O15 UNL     1      12.018  21.883   8.452  1.00  0.00    -0.646 OA
ENDBRANCH  17  19
ENDBRANCH  15  17
ENDBRANCH  14  15
BRANCH  14  22
HETATM   22  O1  UNL     1      15.055  22.105   4.649  1.00  0.00    -0.369 OA
ATOM     23  H1  UNL     1      15.592  22.760   4.220  1.00  0.00     0.212 HD
ENDBRANCH  14  22
ENDBRANCH  10  14
ENDBRANCH   9  10
ENDBRANCH   4   9
BRANCH   8  24
HETATM   24  O4  UNL     1      13.871  16.844   1.564  1.00  0.00    -0.260 OA
ATOM     25  H4  UNL     1      13.794  16.284   2.328  1.00  0.00     0.247 HD
ENDBRANCH   8  24
ENDBRANCH   2   3
ENDBRANCH   1   2
BRANCH   1  26
HETATM   26  O5  UNL     1      16.952  21.696   2.571  1.00  0.00    -0.368 OA
ATOM     27  H5  UNL     1      17.724  22.251   2.553  1.00  0.00     0.212 HD
ENDBRANCH   1  26
BRANCH   1  28
HETATM   28  C8  UNL     1      17.406  20.750   0.519  1.00  0.00     0.164 C
BRANCH  28  29
HETATM   29  O6  UNL     1      16.823  21.906   0.191  1.00  0.00    -0.346 OA
ATOM     30  H6  UNL     1      17.385  22.646   0.390  1.00  0.00     0.219 HD
ENDBRANCH  28  29
BRANCH  28  31
HETATM   31  N5  UNL     1      18.008  20.194  -0.601  1.00  0.00    -0.357 N
ATOM     32  H5  UNL     1      18.325  20.803  -1.355  1.00  0.00     0.162 HD
BRANCH  31  33
HETATM   33  C9  UNL     1      18.194  18.750  -0.718  1.00  0.00     0.178 C
HETATM   34  C10 UNL     1      19.620  18.310  -0.810  1.00  0.00     0.056 C
HETATM   35  C11 UNL     1      19.389  16.854  -1.286  1.00  0.00     0.147 C
HETATM   36  N6  UNL     1      18.467  17.208  -2.403  1.00  0.00    -0.244 N
HETATM   37  C13 UNL     1      17.519  18.114  -1.870  1.00  0.00     0.256 C
HETATM   38  O9  UNL     1      16.381  18.353  -2.258  1.00  0.00    -0.270 OA
BRANCH  36  39
HETATM   39  S2  UNL     1      18.559  16.631  -4.003  1.00  0.00     0.231 S
HETATM   40  C12 UNL     1      17.360  15.329  -4.258  1.00  0.00     0.186 C
HETATM   41  O7  UNL     1      19.924  16.092  -4.324  1.00  0.00    -0.206 OA
HETATM   42  O8  UNL     1      18.281  17.704  -5.012  1.00  0.00    -0.206 OA
ENDBRANCH  36  39
ENDBRANCH  31  33
ENDBRANCH  28  31
ENDBRANCH   1  28
BRANCH   1  43
HETATM   43  C14 UNL     1      18.576  20.024   2.498  1.00  0.00     0.000 A
HETATM   44  C15 UNL     1      18.791  18.712   2.744  1.00  0.00     0.051 A
HETATM   45  C16 UNL     1      20.048  18.297   3.258  1.00  0.00     0.102 A
HETATM   46  C17 UNL     1      21.028  19.237   3.491  1.00  0.00     0.132 A
HETATM   47  C18 UNL     1      20.770  20.590   3.224  1.00  0.00     0.139 A
HETATM   48  C19 UNL     1      19.522  20.944   2.730  1.00  0.00     0.050 A
BRANCH  45  49
HETATM   49  O10 UNL     1      20.298  16.968   3.527  1.00  0.00    -0.358 OA
ATOM     50  H10 UNL     1      21.111  16.699   3.940  1.00  0.00     0.217 HD
ENDBRANCH  45  49
BRANCH  46  51
HETATM   51  O11 UNL     1      22.275  18.970   3.967  1.00  0.00    -0.356 OA
ATOM     52  H11 UNL     1      23.071  19.409   3.694  1.00  0.00     0.218 HD
ENDBRANCH  46  51
BRANCH  47  53
HETATM   53  N7  UNL     1      21.713  21.600   3.496  1.00  0.00    -0.113 N
HETATM   54  O12 UNL     1      22.213  21.798   4.600  1.00  0.00    -0.532 OA
HETATM   55  O13 UNL     1      22.100  22.404   2.449  1.00  0.00    -0.532 OA
ENDBRANCH  47  53
ENDBRANCH   1  43
TORSDOF 20
ENDMDL