MODEL 5
REMARK VINA RESULT: -8.761157541      2.016      2.975
REMARK  17 active torsions:
REMARK  status: ('A' for Active; 'I' for Inactive)
REMARK    1  A    between atoms: S1_2  and  C2_3
REMARK    2  A    between atoms: C4_8  and  C5_9
REMARK    3  A    between atoms: C5_9  and  C6_10
REMARK    4  A    between atoms: C5_9  and  C15_40
REMARK    5  A    between atoms: N3_14  and  C8_15
REMARK    6  A    between atoms: C8_15  and  C9_16
REMARK    7  A    between atoms: C9_16  and  C10_17
REMARK    8  A    between atoms: C9_16  and  N5_20
REMARK    9  A    between atoms: N7_25  and  C12_26
REMARK   10  A    between atoms: C12_26  and  C13_27
REMARK   11  A    between atoms: C13_27  and  N8_28
REMARK   12  A    between atoms: C13_27  and  N9_32
REMARK   13  A    between atoms: C15_40  and  O5_41
REMARK   14  A    between atoms: C15_40  and  O6_43
REMARK   15  A    between atoms: N11_45  and  C16_46
REMARK   16  A    between atoms: C19_49  and  N12_50
REMARK   17  A    between atoms: C26_60  and  O7_61
ROOT
HETATM    1  C5  UNL     1      19.068  19.964   1.942  1.00  0.00     0.149 C
ENDROOT
BRANCH   1   2
HETATM    2  C4  UNL     1      19.273  18.604   2.412  1.00  0.00     0.102 C
HETATM    3  C3  UNL     1      20.453  18.238   3.163  1.00  0.00     0.271 C
HETATM    4  N1  UNL     1      20.449  16.824   3.174  1.00  0.00    -0.302 N
HETATM    5  O1  UNL     1      21.351  18.897   3.726  1.00  0.00    -0.266 OA
HETATM    6  C2  UNL     1      19.590  16.350   2.249  1.00  0.00     0.154 C
ATOM      7  H1  UNL     1      21.016  16.245   3.793  1.00  0.00     0.171 HD
HETATM    8  N11 UNL     1      19.001  17.465   1.588  1.00  0.00    -0.287 N
BRANCH   6   9
HETATM    9  S1  UNL     1      19.387  14.606   2.046  1.00  0.00    -0.098 SA
HETATM   10  C1  UNL     1      17.755  13.972   2.263  1.00  0.00     0.099 C
ENDBRANCH   6   9
BRANCH   8  11
HETATM   11  C16 UNL     1      18.237  17.407   0.391  1.00  0.00     0.075 A
HETATM   12  C17 UNL     1      18.833  17.580  -0.823  1.00  0.00     0.035 A
HETATM   13  C18 UNL     1      18.144  17.603  -2.037  1.00  0.00     0.032 A
HETATM   14  C19 UNL     1      16.779  17.440  -2.003  1.00  0.00     0.033 A
HETATM   15  C25 UNL     1      16.137  17.258  -0.774  1.00  0.00     0.068 A
HETATM   16  C26 UNL     1      16.844  17.241   0.409  1.00  0.00     0.095 A
BRANCH  14  17
HETATM   17  N12 UNL     1      16.034  17.475  -3.221  1.00  0.00    -0.379 N
HETATM   18  C20 UNL     1      14.789  16.709  -3.253  1.00  0.00     0.124 C
HETATM   19  C21 UNL     1      14.436  16.459  -4.712  1.00  0.00     0.047 C
HETATM   20  C22 UNL     1      15.581  15.778  -5.434  1.00  0.00     0.234 C
HETATM   21  N13 UNL     1      16.455  16.679  -6.127  1.00  0.00    -0.074 N
HETATM   22  C23 UNL     1      17.362  17.405  -5.259  1.00  0.00     0.252 C
ATOM     23 2H13 UNL     1      16.973  16.187  -6.855  1.00  0.00     0.277 HD
ATOM     24 1H13 UNL     1      15.918  17.325  -6.705  1.00  0.00     0.277 HD
HETATM   25  C24 UNL     1      16.558  18.264  -4.312  1.00  0.00     0.150 C
ENDBRANCH  14  17
BRANCH  16  26
HETATM   26  O7  UNL     1      16.182  17.059   1.605  1.00  0.00    -0.358 OA
ATOM     27  H7  UNL     1      15.422  16.491   1.650  1.00  0.00     0.217 HD
ENDBRANCH  16  26
ENDBRANCH   8  11
ENDBRANCH   1   2
BRANCH   1  28
HETATM   28  C6  UNL     1      17.575  20.270   1.859  1.00  0.00     0.059 A
HETATM   29  C7  UNL     1      16.991  20.893   0.769  1.00  0.00     0.136 A
HETATM   30  N2  UNL     1      15.683  20.985   1.044  1.00  0.00    -0.293 N
HETATM   31  N3  UNL     1      15.430  20.463   2.219  1.00  0.00    -0.232 N
ATOM     32  H2  UNL     1      14.985  21.402   0.429  1.00  0.00     0.187 HD
HETATM   33  N10 UNL     1      16.586  20.033   2.703  1.00  0.00    -0.286 N
ATOM     34  H10 UNL     1      16.698  19.579   3.609  1.00  0.00     0.188 HD
BRANCH  31  35
HETATM   35  C8  UNL     1      14.170  20.336   2.910  1.00  0.00     0.206 C
BRANCH  35  36
HETATM   36  C9  UNL     1      13.914  21.574   3.738  1.00  0.00     0.223 C
BRANCH  36  37
HETATM   37  C10 UNL     1      14.165  22.798   2.968  1.00  0.00     0.258 C
HETATM   38  N4  UNL     1      13.113  23.357   2.194  1.00  0.00    -0.060 NA
HETATM   39  O2  UNL     1      15.271  23.417   2.936  1.00  0.00    -0.274 OA
ENDBRANCH  36  37
BRANCH  36  40
HETATM   40  N5  UNL     1      12.589  21.560   4.332  1.00  0.00    -0.223 N
HETATM   41  N6  UNL     1      11.554  20.920   3.809  1.00  0.00    -0.244 N
HETATM   42  C11 UNL     1      10.483  21.100   4.593  1.00  0.00     0.345 A
ATOM     43  H6  UNL     1      11.570  20.376   2.946  1.00  0.00     0.192 HD
HETATM   44  O3  UNL     1       9.307  20.634   4.409  1.00  0.00    -0.245 OA
HETATM   45  N7  UNL     1      10.861  21.864   5.619  1.00  0.00    -0.245 N
HETATM   46  C14 UNL     1      12.165  22.144   5.449  1.00  0.00     0.348 A
HETATM   47  O4  UNL     1      12.879  22.849   6.224  1.00  0.00    -0.245 OA
BRANCH  45  48
HETATM   48  C12 UNL     1      10.036  22.331   6.739  1.00  0.00     0.200 C
BRANCH  48  49
HETATM   49  C13 UNL     1      10.300  21.505   7.967  1.00  0.00     0.396 C
BRANCH  49  50
HETATM   50  N8  UNL     1      11.042  22.365   8.892  1.00  0.00    -0.049 N
ATOM     51  H83 UNL     1      11.922  22.708   8.507  1.00  0.00     0.276 HD
ATOM     52  H82 UNL     1      10.605  23.275   9.036  1.00  0.00     0.276 HD
ATOM     53  H81 UNL     1      11.157  21.830   9.752  1.00  0.00     0.276 HD
ENDBRANCH  49  50
BRANCH  49  54
HETATM   54  N9  UNL     1       9.008  21.180   8.554  1.00  0.00    -0.049 N
ATOM     55  H93 UNL     1       9.063  20.448   9.262  1.00  0.00     0.276 HD
ATOM     56  H92 UNL     1       8.645  21.918   9.157  1.00  0.00     0.276 HD
ATOM     57  H91 UNL     1       8.378  20.946   7.786  1.00  0.00     0.276 HD
ENDBRANCH  49  54
ENDBRANCH  48  49
ENDBRANCH  45  48
ENDBRANCH  36  40
ENDBRANCH  35  36
ENDBRANCH  31  35
ENDBRANCH   1  28
BRANCH   1  58
HETATM   58  C15 UNL     1      19.625  21.051   2.901  1.00  0.00     0.270 C
BRANCH  58  59
HETATM   59  O5  UNL     1      19.837  22.265   2.322  1.00  0.00    -0.370 OA
ATOM     60  H5  UNL     1      19.799  23.002   2.920  1.00  0.00     0.212 HD
ENDBRANCH  58  59
BRANCH  58  61
HETATM   61  O6  UNL     1      18.772  21.202   3.988  1.00  0.00    -0.370 OA
ATOM     62  H6  UNL     1      19.076  21.913   4.541  1.00  0.00     0.212 HD
ENDBRANCH  58  61
ENDBRANCH   1  58
TORSDOF 17
ENDMDL