MODEL 5
REMARK VINA RESULT: -9.276304848      2.403      2.912
REMARK  17 active torsions:
REMARK  status: ('A' for Active; 'I' for Inactive)
REMARK    1  A    between atoms: O1_2  and  C2_3
REMARK       I    between atoms: C2_3  and  N1_5
REMARK    2  A    between atoms: N1_5  and  N2_7
REMARK    3  A    between atoms: N2_7  and  C3_8
REMARK    4  A    between atoms: C3_8  and  O3_9
REMARK    5  A    between atoms: C3_8  and  N3_11
REMARK    6  A    between atoms: N3_11  and  N4_12
REMARK    7  A    between atoms: N3_11  and  C6_16
REMARK       I    between atoms: N4_12  and  C4_13
REMARK    8  A    between atoms: C7_21  and  C8_22
REMARK    9  A    between atoms: C8_22  and  C9_23
REMARK   10  A    between atoms: C8_22  and  C20_48
REMARK   11  A    between atoms: C9_23  and  N7_24
REMARK   12  A    between atoms: C11_30  and  C12_31
REMARK   13  A    between atoms: C12_31  and  O5_32
REMARK   14  A    between atoms: C12_31  and  N10_34
REMARK   15  A    between atoms: N10_34  and  C13_36
REMARK   16  A    between atoms: C15_40  and  C16_41
REMARK   17  A    between atoms: C20_48  and  O10_50
ROOT
HETATM    1  C8  UNL     1      11.495  21.827   4.268  1.00  0.00     0.181 C
ENDROOT
BRANCH   1   2
HETATM    2  C7  UNL     1      10.230  21.234   4.894  1.00  0.00     0.157 A
HETATM    3  N6  UNL     1       9.031  21.038   4.407  1.00  0.00    -0.279 N
HETATM    4  N5  UNL     1       8.294  20.481   5.399  1.00  0.00    -0.261 N
ATOM      5  H6  UNL     1       8.713  21.262   3.463  1.00  0.00     0.189 HD
HETATM    6  C6  UNL     1       9.069  20.340   6.503  1.00  0.00     0.277 A
ATOM      7  H5  UNL     1       7.313  20.210   5.326  1.00  0.00     0.190 HD
HETATM    8  O11 UNL     1      10.234  20.829   6.111  1.00  0.00    -0.261 OA
BRANCH   6   9
HETATM    9  N3  UNL     1       8.818  19.822   7.787  1.00  0.00    -0.137 N
BRANCH   9  10
HETATM   10  C3  UNL     1       8.173  20.828   8.704  1.00  0.00     0.376 C
BRANCH  10  11
HETATM   11  N2  UNL     1       7.840  20.094   9.941  1.00  0.00    -0.081 NA
BRANCH  11  12
HETATM   12  N1  UNL     1       6.533  19.757  10.050  1.00  0.00    -0.245 N
HETATM   13  C2  UNL     1       6.207  18.572  10.785  1.00  0.00     0.376 C
HETATM   14  O2  UNL     1       7.096  17.875  11.302  1.00  0.00    -0.237 OA
ATOM     15  H1  UNL     1       5.804  20.329   9.622  1.00  0.00     0.188 HD
BRANCH  13  16
HETATM   16  O1  UNL     1       4.879  18.220  10.903  1.00  0.00    -0.308 OA
HETATM   17  C1  UNL     1       4.262  17.351   9.934  1.00  0.00     0.215 C
ENDBRANCH  13  16
ENDBRANCH  11  12
ENDBRANCH  10  11
BRANCH  10  18
HETATM   18  O3  UNL     1       6.955  21.228   8.185  1.00  0.00    -0.359 OA
ATOM     19  H3  UNL     1       7.085  22.130   7.917  1.00  0.00     0.213 HD
ENDBRANCH  10  18
ENDBRANCH   9  10
BRANCH   9  20
HETATM   20  N4  UNL     1       9.020  18.621   8.300  1.00  0.00    -0.278 NA
HETATM   21  C4  UNL     1       9.228  17.404   8.821  1.00  0.00     0.309 C
HETATM   22  C5  UNL     1       8.305  16.238   8.238  1.00  0.00     0.137 C
HETATM   23  O4  UNL     1       9.949  16.900   9.647  1.00  0.00    -0.256 OA
ENDBRANCH   9  20
ENDBRANCH   6   9
ENDBRANCH   1   2
BRANCH   1  24
HETATM   24  C9  UNL     1      12.325  20.745   3.726  1.00  0.00     0.162 C
BRANCH  24  25
HETATM   25  N7  UNL     1      13.308  21.274   2.768  1.00  0.00    -0.296 N
HETATM   26  S1  UNL     1      13.367  22.833   2.092  1.00  0.00     0.071 SA
HETATM   27  N8  UNL     1      14.692  22.702   1.166  1.00  0.00    -0.299 N
HETATM   28  C10 UNL     1      15.123  21.462   1.357  1.00  0.00     0.155 A
ATOM     29  H8  UNL     1      15.104  23.418   0.567  1.00  0.00     0.177 HD
HETATM   30  N9  UNL     1      16.321  21.054   0.636  1.00  0.00    -0.080 NA
HETATM   31  C11 UNL     1      14.391  20.671   2.222  1.00  0.00     0.135 A
BRANCH  31  32
HETATM   32  C12 UNL     1      14.822  19.328   2.541  1.00  0.00     0.168 C
BRANCH  32  33
HETATM   33  O5  UNL     1      14.045  18.368   2.111  1.00  0.00    -0.344 OA
ATOM     34  H5  UNL     1      13.969  18.293   1.167  1.00  0.00     0.219 HD
ENDBRANCH  32  33
BRANCH  32  35
HETATM   35  N10 UNL     1      15.936  18.787   3.224  1.00  0.00    -0.353 N
ATOM     36  H10 UNL     1      16.192  19.037   4.180  1.00  0.00     0.162 HD
BRANCH  35  37
HETATM   37  C13 UNL     1      16.722  17.777   2.362  1.00  0.00     0.210 C
HETATM   38  C14 UNL     1      16.509  16.437   2.726  1.00  0.00     0.251 C
HETATM   39  O6  UNL     1      15.501  15.634   2.872  1.00  0.00    -0.271 OA
HETATM   40  N11 UNL     1      17.887  16.192   2.901  1.00  0.00    -0.294 N
HETATM   41  C15 UNL     1      19.014  15.314   2.984  1.00  0.00     0.112 C
HETATM   42  C19 UNL     1      18.088  17.633   3.079  1.00  0.00     0.187 C
HETATM   43  C17 UNL     1      20.149  15.557   2.369  1.00  0.00     0.020 C
HETATM   44  C18 UNL     1      20.409  16.748   1.520  1.00  0.00     0.105 C
HETATM   45  S2  UNL     1      19.445  18.180   1.999  1.00  0.00    -0.137 SA
BRANCH  41  46
HETATM   46  C16 UNL     1      18.897  14.097   3.766  1.00  0.00     0.226 C
HETATM   47  O7  UNL     1      18.213  14.081   4.823  1.00  0.00    -0.643 OA
HETATM   48  O8  UNL     1      19.540  12.952   3.358  1.00  0.00    -0.643 OA
ENDBRANCH  41  46
ENDBRANCH  35  37
ENDBRANCH  32  35
ENDBRANCH  31  32
ENDBRANCH  24  25
ENDBRANCH   1  24
BRANCH   1  49
HETATM   49  C20 UNL     1      12.160  22.461   5.483  1.00  0.00     0.272 C
HETATM   50  O9  UNL     1      11.721  23.474   5.977  1.00  0.00    -0.264 OA
BRANCH  49  51
HETATM   51  O10 UNL     1      13.293  21.852   6.004  1.00  0.00    -0.326 OA
HETATM   52  C21 UNL     1      13.586  22.045   7.384  1.00  0.00     0.213 C
ENDBRANCH  49  51
ENDBRANCH   1  49
TORSDOF 17
ENDMDL