MODEL 3
REMARK VINA RESULT: -8.737739272      2.775      5.051
REMARK  17 active torsions:
REMARK  status: ('A' for Active; 'I' for Inactive)
REMARK    1  A    between atoms: C3_4  and  C4_5
REMARK    2  A    between atoms: C4_5  and  C8_12
REMARK    3  A    between atoms: C5_6  and  C6_7
REMARK    4  A    between atoms: C6_7  and  O1_8
REMARK    5  A    between atoms: O1_8  and  C7_9
REMARK    6  A    between atoms: C8_12  and  C9_14
REMARK    7  A    between atoms: N2_15  and  O5_17
REMARK    8  A    between atoms: C10_20  and  O7_21
REMARK    9  A    between atoms: C10_20  and  C23_54
REMARK   10  A    between atoms: O7_21  and  C11_22
REMARK   11  A    between atoms: C11_22  and  C12_24
REMARK   12  A    between atoms: C14_30  and  C15_31
REMARK   13  A    between atoms: C15_31  and  O10_32
REMARK   14  A    between atoms: C15_31  and  N4_34
REMARK   15  A    between atoms: C17_38  and  N6_39
REMARK       I    between atoms: N6_39  and  C18_41
REMARK   16  A    between atoms: C18_41  and  C19_43
REMARK   17  A    between atoms: C19_43  and  N7_46
ROOT
HETATM    1  C12 UNL     1      11.935  21.804   4.930  1.00  0.00     0.129 A
HETATM    2  N3  UNL     1      12.832  22.462   5.642  1.00  0.00    -0.311 N
ATOM      3  H3  UNL     1      13.652  22.869   5.191  1.00  0.00     0.170 HD
HETATM    4  C13 UNL     1      12.654  22.585   6.942  1.00  0.00     0.289 A
HETATM    5  O9  UNL     1      13.443  23.194   7.750  1.00  0.00    -0.260 OA
HETATM    6  S1  UNL     1      11.193  21.770   7.225  1.00  0.00    -0.027 SA
HETATM    7  C14 UNL     1      10.863  21.290   5.609  1.00  0.00     0.070 A
ENDROOT
BRANCH   1   8
HETATM    8  C11 UNL     1      12.025  21.611   3.444  1.00  0.00     0.315 C
HETATM    9  O8  UNL     1      11.404  22.321   2.634  1.00  0.00    -0.257 OA
BRANCH   8  10
HETATM   10  O7  UNL     1      12.816  20.615   2.887  1.00  0.00    -0.242 OA
BRANCH  10  11
HETATM   11  C10 UNL     1      14.217  20.785   2.760  1.00  0.00     0.471 C
HETATM   12  N1  UNL     1      14.524  20.546   1.364  1.00  0.00     0.162 N
HETATM   13  C1  UNL     1      15.195  21.608   0.703  1.00  0.00     0.318 C
HETATM   14  C2  UNL     1      15.171  19.254   1.276  1.00  0.00     0.317 C
HETATM   15  C3  UNL     1      14.986  18.721   2.645  1.00  0.00     0.193 C
HETATM   16  O6  UNL     1      14.933  19.823   3.498  1.00  0.00    -0.310 OA
BRANCH  15  17
HETATM   17  C4  UNL     1      16.069  17.745   2.984  1.00  0.00     0.022 C
HETATM   18  C5  UNL     1      15.661  16.728   3.724  1.00  0.00     0.013 C
BRANCH  18  19
HETATM   19  C6  UNL     1      16.398  15.595   4.251  1.00  0.00     0.210 C
BRANCH  19  20
HETATM   20  O1  UNL     1      15.783  14.999   5.400  1.00  0.00    -0.292 OA
BRANCH  20  21
HETATM   21  C7  UNL     1      15.948  13.709   5.800  1.00  0.00     0.333 C
HETATM   22  O2  UNL     1      16.172  13.443   7.003  1.00  0.00    -0.624 OA
HETATM   23  O3  UNL     1      15.883  12.617   4.932  1.00  0.00    -0.624 OA
ENDBRANCH  20  21
ENDBRANCH  19  20
ENDBRANCH  18  19
BRANCH  17  24
HETATM   24  C8  UNL     1      17.418  17.905   2.502  1.00  0.00     0.197 C
HETATM   25  O4  UNL     1      17.889  17.157   1.624  1.00  0.00    -0.286 OA
BRANCH  24  26
HETATM   26  C9  UNL     1      18.310  18.935   3.000  1.00  0.00     0.169 C
HETATM   27  N2  UNL     1      17.858  20.119   3.319  1.00  0.00    -0.277 N
ATOM     28  H2  UNL     1      16.861  20.306   3.210  1.00  0.00     0.193 HD
BRANCH  27  29
HETATM   29  O5  UNL     1      18.661  21.121   3.794  1.00  0.00    -0.290 OA
ATOM     30  H5  UNL     1      18.845  21.912   3.303  1.00  0.00     0.244 HD
ENDBRANCH  27  29
ENDBRANCH  24  26
ENDBRANCH  17  24
ENDBRANCH  15  17
BRANCH  11  31
HETATM   31  C23 UNL     1      14.660  22.113   3.227  1.00  0.00     0.274 C
HETATM   32  O13 UNL     1      14.221  23.188   2.751  1.00  0.00    -0.642 OA
HETATM   33  O14 UNL     1      15.619  22.207   4.252  1.00  0.00    -0.642 OA
ENDBRANCH  11  31
ENDBRANCH  10  11
ENDBRANCH   8  10
ENDBRANCH   1   8
BRANCH   7  34
HETATM   34  C15 UNL     1       9.688  20.485   5.103  1.00  0.00     0.289 C
BRANCH  34  35
HETATM   35  O10 UNL     1       8.850  21.430   4.453  1.00  0.00    -0.370 OA
ATOM     36  H10 UNL     1       9.239  21.551   3.594  1.00  0.00     0.212 HD
ENDBRANCH  34  35
BRANCH  34  37
HETATM   37  N4  UNL     1       8.904  19.974   6.205  1.00  0.00    -0.208 N
HETATM   38  N5  UNL     1       9.256  18.874   6.837  1.00  0.00    -0.299 N
HETATM   39  C16 UNL     1       8.517  18.399   7.883  1.00  0.00     0.156 A
ATOM     40  H5  UNL     1      10.091  18.369   6.541  1.00  0.00     0.186 HD
HETATM   41  C17 UNL     1       7.383  19.053   8.312  1.00  0.00     0.129 A
HETATM   42  N8  UNL     1       7.050  20.181   7.642  1.00  0.00    -0.292 N
HETATM   43  C22 UNL     1       7.803  20.615   6.616  1.00  0.00     0.345 A
ATOM     44  H8  UNL     1       6.220  20.707   7.918  1.00  0.00     0.172 HD
HETATM   45  O12 UNL     1       7.489  21.677   5.986  1.00  0.00    -0.245 OA
BRANCH  41  46
HETATM   46  N6  UNL     1       6.643  18.662   9.291  1.00  0.00    -0.310 N
HETATM   47  C18 UNL     1       5.959  17.444   9.365  1.00  0.00     0.258 C
HETATM   48  O11 UNL     1       4.989  17.232   8.592  1.00  0.00    -0.270 OA
ATOM     49  H6  UNL     1       6.547  19.298  10.084  1.00  0.00     0.170 HD
BRANCH  47  50
HETATM   50  C19 UNL     1       6.343  16.389  10.331  1.00  0.00     0.196 C
HETATM   51  C20 UNL     1       5.190  16.062  11.273  1.00  0.00     0.056 C
HETATM   52  C21 UNL     1       7.511  16.817  11.203  1.00  0.00     0.056 C
BRANCH  50  53
HETATM   53  N7  UNL     1       6.671  15.192   9.582  1.00  0.00    -0.062 N
ATOM     54  H73 UNL     1       6.614  15.331   8.573  1.00  0.00     0.275 HD
ATOM     55  H72 UNL     1       7.662  14.955   9.632  1.00  0.00     0.275 HD
ATOM     56  H71 UNL     1       6.068  14.439   9.912  1.00  0.00     0.275 HD
ENDBRANCH  50  53
ENDBRANCH  47  50
ENDBRANCH  41  46
ENDBRANCH  34  37
ENDBRANCH   7  34
TORSDOF 17
ENDMDL