MODEL 4
REMARK VINA RESULT: -6.621091816      1.753      3.008
REMARK  15 active torsions:
REMARK  status: ('A' for Active; 'I' for Inactive)
REMARK    1  A    between atoms: O1_2  and  C2_3
REMARK    2  A    between atoms: C2_3  and  O2_4
REMARK    3  A    between atoms: N1_9  and  C5_10
REMARK    4  A    between atoms: C6_16  and  C7_17
REMARK    5  A    between atoms: C7_17  and  O4_18
REMARK    6  A    between atoms: C7_17  and  N4_20
REMARK    7  A    between atoms: N4_20  and  C8_22
REMARK    8  A    between atoms: C9_23  and  N5_24
REMARK       I    between atoms: N5_24  and  C10_26
REMARK    9  A    between atoms: C10_26  and  C11_28
REMARK   10  A    between atoms: C14_34  and  C15_35
REMARK   11  A    between atoms: N7_41  and  C18_42
REMARK   12  A    between atoms: C18_42  and  O10_43
REMARK   13  A    between atoms: C18_42  and  C19_45
REMARK   14  A    between atoms: C19_45  and  O11_46
REMARK   15  A    between atoms: C20_48  and  C21_49
ROOT
HETATM    1  C5  UNL     1      15.478  14.619  -0.058  1.00  0.00     0.179 A
HETATM    2  N2  UNL     1      14.751  13.545   0.309  1.00  0.00    -0.222 N
ATOM      3  H2  UNL     1      14.840  12.598  -0.057  1.00  0.00     0.198 HD
HETATM    4  O3  UNL     1      13.920  13.944   1.208  1.00  0.00    -0.155 OA
HETATM    5  N3  UNL     1      14.049  15.206   1.461  1.00  0.00    -0.238 N
ATOM      6  H3  UNL     1      13.505  15.747   2.133  1.00  0.00     0.196 HD
HETATM    7  C6  UNL     1      15.033  15.669   0.673  1.00  0.00     0.129 A
ENDROOT
BRANCH   7   8
HETATM    8  C7  UNL     1      15.509  17.113   0.668  1.00  0.00     0.271 C
BRANCH   8   9
HETATM    9  O4  UNL     1      14.626  17.751  -0.179  1.00  0.00    -0.371 OA
ATOM     10  H4  UNL     1      14.027  17.063  -0.445  1.00  0.00     0.212 HD
ENDBRANCH   8   9
BRANCH   8  11
HETATM   11  N4  UNL     1      15.430  17.549   1.991  1.00  0.00    -0.382 N
ATOM     12  H4  UNL     1      15.063  16.883   2.671  1.00  0.00     0.156 HD
BRANCH  11  13
HETATM   13  C8  UNL     1      15.793  18.775   2.470  1.00  0.00     0.144 C
HETATM   14  C9  UNL     1      17.043  19.400   1.859  1.00  0.00     0.202 C
HETATM   15  C13 UNL     1      16.444  20.429   0.925  1.00  0.00     0.246 C
HETATM   16  O7  UNL     1      17.027  20.831  -0.110  1.00  0.00    -0.271 OA
HETATM   17  N6  UNL     1      15.177  20.819   1.424  1.00  0.00    -0.319 N
HETATM   18  C14 UNL     1      14.114  21.745   1.202  1.00  0.00     0.199 C
HETATM   19  C17 UNL     1      14.917  19.948   2.578  1.00  0.00     0.175 C
HETATM   20  C16 UNL     1      12.797  21.048   1.251  1.00  0.00     0.112 C
HETATM   21  S3  UNL     1      13.145  19.667   2.410  1.00  0.00    -0.139 SA
BRANCH  14  22
HETATM   22  N5  UNL     1      17.791  20.150   2.835  1.00  0.00    -0.339 N
HETATM   23  C10 UNL     1      19.205  20.112   2.817  1.00  0.00     0.287 C
HETATM   24  O5  UNL     1      19.784  19.417   1.943  1.00  0.00    -0.264 OA
ATOM     25  H5  UNL     1      17.303  20.708   3.535  1.00  0.00     0.163 HD
BRANCH  23  26
HETATM   26  C11 UNL     1      20.030  20.836   3.764  1.00  0.00     0.212 C
HETATM   27  C12 UNL     1      21.190  21.631   3.319  1.00  0.00     0.102 C
HETATM   28  O6  UNL     1      19.753  20.790   4.982  1.00  0.00    -0.288 OA
ENDBRANCH  23  26
ENDBRANCH  14  22
BRANCH  18  29
HETATM   29  C15 UNL     1      14.182  22.925   2.093  1.00  0.00     0.197 C
HETATM   30  O8  UNL     1      13.228  23.739   2.108  1.00  0.00    -0.646 OA
HETATM   31  O9  UNL     1      15.255  23.192   2.927  1.00  0.00    -0.646 OA
ENDBRANCH  18  29
ENDBRANCH  11  13
ENDBRANCH   8  11
ENDBRANCH   7   8
BRANCH   1  32
HETATM   32  N1  UNL     1      16.503  14.608  -1.060  1.00  0.00    -0.217 N
HETATM   33  C4  UNL     1      17.780  14.188  -0.604  1.00  0.00     0.167 C
HETATM   34  S1  UNL     1      19.167  14.421  -1.709  1.00  0.00    -0.028 SA
HETATM   35  S2  UNL     1      18.079  13.519   0.840  1.00  0.00    -0.050 SA
HETATM   36  C2  UNL     1      18.488  15.704  -2.876  1.00  0.00     0.256 C
HETATM   37  C20 UNL     1      17.170  15.100  -3.297  1.00  0.00     0.280 C
HETATM   38  N7  UNL     1      16.184  15.004  -2.313  1.00  0.00    -0.266 N
BRANCH  36  39
HETATM   39  O1  UNL     1      18.394  16.837  -2.103  1.00  0.00    -0.349 OA
HETATM   40  C1  UNL     1      17.990  17.978  -2.737  1.00  0.00     0.206 C
ENDBRANCH  36  39
BRANCH  36  41
HETATM   41  O2  UNL     1      19.371  15.831  -3.945  1.00  0.00    -0.349 OA
HETATM   42  C3  UNL     1      20.655  15.616  -3.506  1.00  0.00     0.206 C
ENDBRANCH  36  41
BRANCH  37  43
HETATM   43  C21 UNL     1      17.516  13.792  -3.946  1.00  0.00     0.205 C
HETATM   44  O12 UNL     1      17.296  12.671  -3.441  1.00  0.00    -0.646 OA
HETATM   45  O13 UNL     1      18.126  13.810  -5.196  1.00  0.00    -0.646 OA
ENDBRANCH  37  43
BRANCH  38  46
HETATM   46  C18 UNL     1      14.845  14.964  -2.729  1.00  0.00     0.261 C
BRANCH  46  47
HETATM   47  O10 UNL     1      14.426  13.771  -3.332  1.00  0.00    -0.373 OA
ATOM     48  H10 UNL     1      15.114  13.160  -3.567  1.00  0.00     0.212 HD
ENDBRANCH  46  47
BRANCH  46  49
HETATM   49  C19 UNL     1      14.498  16.054  -3.719  1.00  0.00     0.219 C
BRANCH  49  50
HETATM   50  O11 UNL     1      14.479  17.250  -2.986  1.00  0.00    -0.397 OA
ATOM     51  H11 UNL     1      14.035  17.049  -2.170  1.00  0.00     0.209 HD
ENDBRANCH  49  50
ENDBRANCH  46  49
ENDBRANCH  38  46
ENDBRANCH   1  32
TORSDOF 15
ENDMDL