MODEL 1
REMARK VINA RESULT: -9.192882598      0.000      0.000
REMARK  21 active torsions:
REMARK  status: ('A' for Active; 'I' for Inactive)
REMARK    1  A    between atoms: N1_1  and  C1_5
REMARK    2  A    between atoms: C1_5  and  C2_6
REMARK    3  A    between atoms: C2_6  and  O1_7
REMARK    4  A    between atoms: O1_7  and  C3_8
REMARK    5  A    between atoms: C4_11  and  N3_12
REMARK    6  A    between atoms: C6_14  and  O2_15
REMARK    7  A    between atoms: C7_17  and  O3_18
REMARK    8  A    between atoms: O3_18  and  C8_19
REMARK    9  A    between atoms: C8_19  and  C9_20
REMARK   10  A    between atoms: C9_20  and  O4_21
REMARK   11  A    between atoms: C11_26  and  N5_27
REMARK   12  A    between atoms: N5_27  and  C12_28
REMARK   13  A    between atoms: C12_28  and  O5_29
REMARK   14  A    between atoms: C12_28  and  C13_31
REMARK   15  A    between atoms: C13_31  and  C14_32
REMARK   16  A    between atoms: C14_32  and  C15_33
REMARK   17  A    between atoms: C16_34  and  C17_35
REMARK   18  A    between atoms: C17_35  and  S1_36
REMARK   19  A    between atoms: S1_36  and  N6_37
REMARK   20  A    between atoms: C18_42  and  O8_43
REMARK   21  A    between atoms: C23_53  and  O10_54
ROOT
HETATM    1  C12 UNL     1      12.794  22.632   2.904  1.00  0.00     0.218 C
ENDROOT
BRANCH   1   2
HETATM    2  N5  UNL     1      13.938  22.032   2.710  1.00  0.00    -0.345 NA
BRANCH   2   3
HETATM    3  C11 UNL     1      14.965  21.398   2.662  1.00  0.00     0.279 A
HETATM    4  N4  UNL     1      14.910  20.036   2.425  1.00  0.00    -0.148 N
HETATM    5  C4  UNL     1      15.970  19.228   2.442  1.00  0.00     0.687 A
ATOM      6  H4  UNL     1      13.999  19.623   2.224  1.00  0.00     0.188 HD
HETATM    7  N2  UNL     1      17.151  19.770   2.699  1.00  0.00    -0.154 N
HETATM    8  C3  UNL     1      17.315  21.103   2.946  1.00  0.00     0.241 A
ATOM      9  H2  UNL     1      17.974  19.166   2.712  1.00  0.00     0.188 HD
HETATM   10  N9  UNL     1      16.222  21.873   2.922  1.00  0.00    -0.281 N
ATOM     11  H9  UNL     1      16.332  22.870   3.107  1.00  0.00     0.173 HD
BRANCH   5  12
HETATM   12  N3  UNL     1      15.876  17.827   2.169  1.00  0.00    -0.212 N
HETATM   13  C5  UNL     1      14.554  17.260   1.794  1.00  0.00     0.175 C
HETATM   14  C6  UNL     1      14.762  15.828   1.561  1.00  0.00     0.167 C
HETATM   15  C7  UNL     1      15.984  15.599   2.625  1.00  0.00     0.170 C
HETATM   16  C10 UNL     1      16.844  16.774   2.180  1.00  0.00     0.175 C
BRANCH  14  17
HETATM   17  O2  UNL     1      13.754  15.000   1.953  1.00  0.00    -0.391 OA
ATOM     18  H2  UNL     1      13.977  14.082   2.048  1.00  0.00     0.210 HD
ENDBRANCH  14  17
BRANCH  15  19
HETATM   19  O3  UNL     1      15.519  15.474   3.756  1.00  0.00    -0.380 OA
BRANCH  19  20
HETATM   20  C8  UNL     1      15.064  15.336   4.914  1.00  0.00     0.194 C
BRANCH  20  21
HETATM   21  C9  UNL     1      14.500  13.940   5.232  1.00  0.00     0.190 C
BRANCH  21  22
HETATM   22  O4  UNL     1      13.232  13.736   4.795  1.00  0.00    -0.399 OA
ATOM     23  H4  UNL     1      12.559  13.958   5.428  1.00  0.00     0.209 HD
ENDBRANCH  21  22
ENDBRANCH  20  21
ENDBRANCH  19  20
ENDBRANCH  15  19
ENDBRANCH   5  12
BRANCH   8  24
HETATM   24  O1  UNL     1      18.595  21.619   3.217  1.00  0.00    -0.320 OA
BRANCH  24  25
HETATM   25  C2  UNL     1      19.574  20.692   3.699  1.00  0.00     0.206 C
BRANCH  25  26
HETATM   26  C1  UNL     1      20.954  21.081   3.294  1.00  0.00     0.256 C
BRANCH  26  27
HETATM   27  N1  UNL     1      20.936  21.974   2.129  1.00  0.00    -0.077 N
ATOM     28  H13 UNL     1      20.630  21.485   1.287  1.00  0.00     0.274 HD
ATOM     29  H12 UNL     1      20.183  22.659   2.195  1.00  0.00     0.274 HD
ATOM     30  H11 UNL     1      21.841  22.424   1.993  1.00  0.00     0.274 HD
ENDBRANCH  26  27
ENDBRANCH  25  26
ENDBRANCH  24  25
ENDBRANCH   8  24
ENDBRANCH   2   3
ENDBRANCH   1   2
BRANCH   1  31
HETATM   31  O5  UNL     1      12.694  23.825   2.260  1.00  0.00    -0.335 OA
ATOM     32  H5  UNL     1      12.422  24.538   2.827  1.00  0.00     0.220 HD
ENDBRANCH   1  31
BRANCH   1  33
HETATM   33  C13 UNL     1      11.626  22.270   3.648  1.00  0.00     0.072 C
BRANCH  33  34
HETATM   34  C14 UNL     1      11.495  21.218   4.416  1.00  0.00     0.020 C
BRANCH  34  35
HETATM   35  C15 UNL     1      10.592  21.218   5.571  1.00  0.00     0.009 A
HETATM   36  C16 UNL     1      10.922  22.058   6.681  1.00  0.00     0.005 A
HETATM   37  C18 UNL     1      10.182  21.944   7.773  1.00  0.00     0.092 A
HETATM   38  C19 UNL     1       9.120  21.032   7.910  1.00  0.00     0.098 A
HETATM   39  C20 UNL     1       8.461  20.881   9.108  1.00  0.00     0.290 A
HETATM   40  C22 UNL     1       8.800  20.209   6.869  1.00  0.00     0.088 A
HETATM   41  O9  UNL     1       8.756  21.634  10.048  1.00  0.00    -0.265 OA
HETATM   42  N7  UNL     1       7.522  19.953   9.299  1.00  0.00    -0.144 N
HETATM   43  C21 UNL     1       7.233  19.143   8.265  1.00  0.00     0.254 A
HETATM   44  O12 UNL     1       6.822  19.756  10.476  1.00  0.00    -0.265 OA
HETATM   45  N8  UNL     1       7.840  19.246   7.058  1.00  0.00    -0.317 N
HETATM   46  O11 UNL     1       6.239  18.184   8.576  1.00  0.00    -0.318 OA
ATOM     47  H8  UNL     1       7.586  18.615   6.298  1.00  0.00     0.169 HD
HETATM   48  C24 UNL     1       6.380  17.479   9.843  1.00  0.00     0.207 C
HETATM   49  C25 UNL     1       6.598  18.451  10.991  1.00  0.00     0.229 C
HETATM   50  C23 UNL     1       9.536  20.318   5.707  1.00  0.00     0.104 A
BRANCH  36  51
HETATM   51  C17 UNL     1      12.101  22.907   6.452  1.00  0.00     0.205 C
BRANCH  51  52
HETATM   52  S1  UNL     1      13.583  22.306   7.178  1.00  0.00     0.228 S
HETATM   53  O6  UNL     1      13.630  21.254   8.202  1.00  0.00    -0.206 OA
HETATM   54  O7  UNL     1      14.553  21.882   6.027  1.00  0.00    -0.206 OA
BRANCH  52  55
HETATM   55  N6  UNL     1      14.480  23.641   8.006  1.00  0.00    -0.328 N
ATOM     56  H62 UNL     1      14.026  24.396   8.521  1.00  0.00     0.168 HD
ATOM     57  H61 UNL     1      15.488  23.530   7.886  1.00  0.00     0.168 HD
ENDBRANCH  52  55
ENDBRANCH  51  52
ENDBRANCH  36  51
BRANCH  37  58
HETATM   58  O8  UNL     1      10.298  22.728   8.918  1.00  0.00    -0.359 OA
ATOM     59  H8  UNL     1       9.725  22.690   9.675  1.00  0.00     0.217 HD
ENDBRANCH  37  58
BRANCH  50  60
HETATM   60  O10 UNL     1       9.190  19.476   4.656  1.00  0.00    -0.357 OA
ATOM     61  H10 UNL     1       8.294  19.178   4.553  1.00  0.00     0.217 HD
ENDBRANCH  50  60
ENDBRANCH  34  35
ENDBRANCH  33  34
ENDBRANCH   1  33
TORSDOF 21
ENDMDL