MODEL 2
REMARK VINA RESULT: -8.460108159      0.761      1.954
REMARK  3 active torsions:
REMARK  status: ('A' for Active; 'I' for Inactive)
REMARK    1  A    between atoms: C1_2  and  C2_4
REMARK    2  A    between atoms: C5_10  and  N3_11
REMARK    3  A    between atoms: N3_11  and  C6_13
ROOT
HETATM    1  N3  UNL     1      19.793  67.154  33.585  1.00  0.00    -0.022 N
ATOM      2  H3  UNL     1      20.577  66.688  33.126  1.00  0.00     0.203 HD
ENDROOT
BRANCH   1   3
HETATM    3  C5  UNL     1      18.843  67.670  32.887  1.00  0.00     0.700 A
HETATM    4  N2  UNL     1      18.845  67.508  31.553  1.00  0.00    -0.155 N
HETATM    5  C4  UNL     1      17.891  68.014  30.759  1.00  0.00     0.261 A
ATOM      6  H2  UNL     1      19.605  66.977  31.127  1.00  0.00     0.187 HD
HETATM    7  C3  UNL     1      16.869  68.731  31.339  1.00  0.00     0.110 A
HETATM    8  O2  UNL     1      17.948  67.826  29.500  1.00  0.00    -0.268 OA
HETATM    9  C2  UNL     1      16.864  68.900  32.709  1.00  0.00     0.119 A
HETATM   10  N7  UNL     1      17.840  68.375  33.467  1.00  0.00    -0.186 N
ATOM     11  H7  UNL     1      17.827  68.507  34.478  1.00  0.00     0.184 HD
BRANCH   9  12
HETATM   12  C1  UNL     1      15.757  69.672  33.312  1.00  0.00     0.282 C
HETATM   13  N1  UNL     1      15.309  70.874  32.714  1.00  0.00    -0.056 NA
HETATM   14  O1  UNL     1      15.246  69.214  34.363  1.00  0.00    -0.269 OA
ENDBRANCH   9  12
ENDBRANCH   1   3
BRANCH   1  15
HETATM   15  C6  UNL     1      19.740  67.239  35.001  1.00  0.00     0.704 A
HETATM   16  N4  UNL     1      20.161  68.331  35.672  1.00  0.00    -0.140 N
HETATM   17  C7  UNL     1      20.092  68.368  37.014  1.00  0.00     0.342 A
ATOM     18  H4  UNL     1      20.534  69.131  35.160  1.00  0.00     0.189 HD
HETATM   19  O3  UNL     1      20.479  69.382  37.680  1.00  0.00    -0.246 OA
HETATM   20  N5  UNL     1      19.606  67.328  37.708  1.00  0.00    -0.260 N
HETATM   21  C8  UNL     1      19.193  66.254  37.024  1.00  0.00     0.342 A
ATOM     22  H5  UNL     1      19.553  67.355  38.726  1.00  0.00     0.175 HD
HETATM   23  O4  UNL     1      18.729  65.262  37.684  1.00  0.00    -0.246 OA
HETATM   24  N6  UNL     1      19.243  66.173  35.684  1.00  0.00    -0.140 N
ATOM     25  H6  UNL     1      18.919  65.339  35.194  1.00  0.00     0.189 HD
ENDBRANCH   1  15
TORSDOF 3
ENDMDL