MODEL 1
REMARK VINA RESULT: -6.325259600      0.000      0.000
REMARK  7 active torsions:
REMARK  status: ('A' for Active; 'I' for Inactive)
REMARK    1  A    between atoms: C2_3  and  C3_4
REMARK    2  A    between atoms: C4_5  and  C5_6
REMARK    3  A    between atoms: C5_6  and  O1_7
REMARK    4  A    between atoms: O1_7  and  S1_8
REMARK    5  A    between atoms: S1_8  and  N2_9
REMARK    6  A    between atoms: C7_16  and  N4_17
REMARK    7  A    between atoms: C8_22  and  N6_23
ROOT
HETATM    1  C1  UNL     1      14.937  67.225  35.118  1.00  0.00     0.176 C
HETATM    2  N1  UNL     1      16.374  67.312  35.223  1.00  0.00    -0.178 N
HETATM    3  C2  UNL     1      17.023  66.777  36.298  1.00  0.00     0.133 A
HETATM    4  C6  UNL     1      18.403  66.854  36.410  1.00  0.00     0.126 A
HETATM    5  N3  UNL     1      19.129  66.316  37.507  1.00  0.00    -0.095 NA
HETATM    6  C7  UNL     1      19.107  67.483  35.409  1.00  0.00     0.142 A
HETATM    7  N5  UNL     1      18.438  67.996  34.369  1.00  0.00    -0.175 N
ATOM      8  H5  UNL     1      18.963  68.461  33.628  1.00  0.00     0.186 HD
HETATM    9  C8  UNL     1      17.093  67.919  34.265  1.00  0.00     0.680 A
ENDROOT
BRANCH   3  10
HETATM   10  C3  UNL     1      16.274  66.128  37.325  1.00  0.00    -0.044 C
HETATM   11  C4  UNL     1      15.636  65.577  38.188  1.00  0.00    -0.072 C
BRANCH  11  12
HETATM   12  C5  UNL     1      14.861  64.928  39.246  1.00  0.00     0.286 C
BRANCH  12  13
HETATM   13  O1  UNL     1      13.824  65.780  39.665  1.00  0.00    -0.248 OA
BRANCH  13  14
HETATM   14  S1  UNL     1      12.888  64.900  40.752  1.00  0.00     0.356 S
HETATM   15  O2  UNL     1      11.740  64.326  39.978  1.00  0.00    -0.176 OA
HETATM   16  O3  UNL     1      13.723  63.774  41.255  1.00  0.00    -0.176 OA
BRANCH  14  17
HETATM   17  N2  UNL     1      12.362  65.901  42.055  1.00  0.00    -0.306 N
ATOM     18  H22 UNL     1      12.730  66.835  42.238  1.00  0.00     0.171 HD
ATOM     19  H21 UNL     1      11.643  65.431  42.604  1.00  0.00     0.171 HD
ENDBRANCH  14  17
ENDBRANCH  13  14
ENDBRANCH  12  13
ENDBRANCH  11  12
ENDBRANCH   3  10
BRANCH   9  20
HETATM   20  N6  UNL     1      16.458  68.419  33.253  1.00  0.00    -0.234 N
ATOM     21  H62 UNL     1      16.797  68.307  32.297  1.00  0.00     0.174 HD
ATOM     22  H61 UNL     1      15.597  68.935  33.435  1.00  0.00     0.174 HD
ENDBRANCH   9  20
BRANCH   6  23
HETATM   23  N4  UNL     1      20.386  67.567  35.491  1.00  0.00    -0.383 N
ATOM     24  H42 UNL     1      20.888  68.391  35.159  1.00  0.00     0.157 HD
ATOM     25  H41 UNL     1      20.914  66.795  35.896  1.00  0.00     0.157 HD
ENDBRANCH   6  23
TORSDOF 7
ENDMDL