MODEL 2
REMARK VINA RESULT: -7.630133722      4.202      6.084
REMARK  4 active torsions:
REMARK  status: ('A' for Active; 'I' for Inactive)
REMARK    1  A    between atoms: N1_2  and  N2_4
REMARK    2  A    between atoms: N2_4  and  C2_6
REMARK    3  A    between atoms: N6_13  and  N7_14
REMARK       I    between atoms: N7_14  and  C3_16
REMARK       I    between atoms: C3_16  and  N8_18
REMARK    4  A    between atoms: N8_18  and  C4_20
ROOT
HETATM    1  N7  UNL     1      17.636  69.246  32.903  1.00  0.00    -0.213 N
ATOM      2  H7  UNL     1      18.512  69.747  32.756  1.00  0.00     0.194 HD
HETATM    3  C3  UNL     1      17.629  67.991  33.562  1.00  0.00     0.342 C
HETATM    4  O1  UNL     1      16.552  67.346  33.758  1.00  0.00    -0.245 OA
HETATM    5  N8  UNL     1      18.858  67.438  34.015  1.00  0.00    -0.292 N
ATOM      6  H8  UNL     1      19.529  67.024  33.368  1.00  0.00     0.172 HD
ENDROOT
BRANCH   1   7
HETATM    7  N6  UNL     1      16.419  69.793  32.454  1.00  0.00     0.003 N
HETATM    8  C2  UNL     1      16.090  70.162  31.205  1.00  0.00     0.750 A
HETATM    9  N3  UNL     1      14.832  70.637  31.201  1.00  0.00    -0.112 N
HETATM   10  N4  UNL     1      14.399  70.556  32.439  1.00  0.00    -0.212 N
ATOM     11  H3  UNL     1      14.315  70.989  30.395  1.00  0.00     0.207 HD
HETATM   12  N5  UNL     1      15.354  70.048  33.194  1.00  0.00    -0.191 N
ATOM     13  H4  UNL     1      13.475  70.841  32.763  1.00  0.00     0.210 HD
ATOM     14  H5  UNL     1      15.281  69.880  34.197  1.00  0.00     0.212 HD
BRANCH   8  15
HETATM   15  N2  UNL     1      16.897  70.055  30.203  1.00  0.00    -0.129 N
ATOM     16  H2  UNL     1      17.610  70.763  30.027  1.00  0.00     0.205 HD
BRANCH  15  17
HETATM   17  N1  UNL     1      16.765  68.949  29.369  1.00  0.00    -0.308 N
HETATM   18  C1  UNL     1      17.354  67.820  29.608  1.00  0.00     0.139 C
ATOM     19  H1  UNL     1      16.181  69.030  28.537  1.00  0.00     0.185 HD
ENDBRANCH  15  17
ENDBRANCH   8  15
ENDBRANCH   1   7
BRANCH   5  20
HETATM   20  C4  UNL     1      19.082  67.487  35.285  1.00  0.00     0.123 A
HETATM   21  C5  UNL     1      18.384  66.745  36.212  1.00  0.00     0.055 A
HETATM   22  C6  UNL     1      18.656  66.825  37.574  1.00  0.00     0.079 A
HETATM   23  C7  UNL     1      19.663  67.689  37.953  1.00  0.00     0.259 A
HETATM   24  O2  UNL     1      19.925  67.774  39.199  1.00  0.00    -0.267 OA
HETATM   25  N9  UNL     1      20.335  68.405  37.035  1.00  0.00    -0.265 N
HETATM   26  N10 UNL     1      20.045  68.298  35.757  1.00  0.00    -0.283 N
ATOM     27  H9  UNL     1      21.078  69.038  37.332  1.00  0.00     0.190 HD
ATOM     28  H10 UNL     1      20.577  68.857  35.091  1.00  0.00     0.188 HD
ENDBRANCH   5  20
TORSDOF 4
ENDMDL