MODEL 3
REMARK VINA RESULT: -6.525839538      1.002      1.117
REMARK  8 active torsions:
REMARK  status: ('A' for Active; 'I' for Inactive)
REMARK    1  A    between atoms: N1_2  and  C2_4
REMARK    2  A    between atoms: C2_4  and  O1_5
REMARK    3  A    between atoms: C2_4  and  N2_7
REMARK    4  A    between atoms: N2_7  and  C3_9
REMARK    5  A    between atoms: C3_9  and  O2_10
REMARK    6  A    between atoms: C3_9  and  C4_12
REMARK    7  A    between atoms: N5_20  and  C8_22
REMARK    8  A    between atoms: C8_22  and  N6_23
ROOT
HETATM    1  C4  UNL     1      18.059  66.998  35.648  1.00  0.00     0.132 A
HETATM    2  C5  UNL     1      18.264  66.308  36.876  1.00  0.00     0.146 A
HETATM    3  N3  UNL     1      19.571  65.891  37.242  1.00  0.00    -0.094 NA
HETATM    4  C6  UNL     1      17.180  66.060  37.668  1.00  0.00     0.286 A
HETATM    5  O3  UNL     1      17.397  65.441  38.760  1.00  0.00    -0.266 OA
HETATM    6  N4  UNL     1      15.927  66.419  37.377  1.00  0.00    -0.154 N
ATOM      7  H4  UNL     1      15.152  66.206  38.004  1.00  0.00     0.187 HD
HETATM    8  C7  UNL     1      15.739  67.070  36.226  1.00  0.00     0.684 A
HETATM    9  N5  UNL     1      14.570  67.453  35.863  1.00  0.00    -0.202 N
ATOM     10  H5  UNL     1      14.481  67.946  34.974  1.00  0.00     0.179 HD
HETATM   11  N7  UNL     1      16.793  67.346  35.398  1.00  0.00    -0.181 N
HETATM   12  C9  UNL     1      16.458  68.249  34.307  1.00  0.00     0.176 C
ENDROOT
BRANCH   1  13
HETATM   13  C3  UNL     1      19.232  67.364  34.925  1.00  0.00     0.173 C
BRANCH  13  14
HETATM   14  N2  UNL     1      19.857  67.068  33.736  1.00  0.00    -0.301 N
ATOM     15  H2  UNL     1      20.700  66.508  33.869  1.00  0.00     0.171 HD
BRANCH  14  16
HETATM   16  C2  UNL     1      19.613  67.350  32.398  1.00  0.00     0.218 C
BRANCH  16  17
HETATM   17  N1  UNL     1      18.708  68.207  31.767  1.00  0.00    -0.361 N
HETATM   18  C1  UNL     1      17.925  67.772  30.598  1.00  0.00     0.150 C
ATOM     19  H1  UNL     1      18.588  69.155  32.124  1.00  0.00     0.162 HD
ENDBRANCH  16  17
BRANCH  16  20
HETATM   20  O1  UNL     1      20.379  66.664  31.552  1.00  0.00    -0.333 OA
ATOM     21  H1  UNL     1      20.911  65.998  31.972  1.00  0.00     0.220 HD
ENDBRANCH  16  20
ENDBRANCH  14  16
ENDBRANCH  13  14
BRANCH  13  22
HETATM   22  O2  UNL     1      19.968  68.281  35.604  1.00  0.00    -0.344 OA
ATOM     23  H2  UNL     1      19.581  68.425  36.460  1.00  0.00     0.219 HD
ENDBRANCH  13  22
ENDBRANCH   1  13
BRANCH   9  24
HETATM   24  C8  UNL     1      13.373  67.228  36.636  1.00  0.00     0.368 C
BRANCH  24  25
HETATM   25  N6  UNL     1      12.525  68.413  36.702  1.00  0.00    -0.063 N
ATOM     26  H63 UNL     1      13.068  69.263  36.546  1.00  0.00     0.276 HD
ATOM     27  H62 UNL     1      11.903  68.466  35.896  1.00  0.00     0.276 HD
ATOM     28  H61 UNL     1      12.002  68.467  37.576  1.00  0.00     0.276 HD
ENDBRANCH  24  25
ENDBRANCH   9  24
TORSDOF 8
ENDMDL