MODEL 1
REMARK VINA RESULT: -7.039806181      0.000      0.000
REMARK  4 active torsions:
REMARK  status: ('A' for Active; 'I' for Inactive)
REMARK    1  A    between atoms: N4_12  and  C5_13
REMARK    2  A    between atoms: C5_13  and  C6_14
REMARK    3  A    between atoms: C7_17  and  N6_18
REMARK       I    between atoms: N6_18  and  C8_20
REMARK       I    between atoms: C8_20  and  N7_22
REMARK    4  A    between atoms: N7_22  and  N8_24
ROOT
HETATM    1  N1  UNL     1      20.271  67.961  35.385  1.00  0.00    -0.234 N
ATOM      2  H11 UNL     1      20.052  68.300  34.449  1.00  0.00     0.174 HD
ATOM      3  H12 UNL     1      21.268  68.139  35.514  1.00  0.00     0.174 HD
HETATM    4  C1  UNL     1      19.450  67.422  36.222  1.00  0.00     0.698 A
HETATM    5  N2  UNL     1      19.745  66.967  37.478  1.00  0.00    -0.198 N
ATOM      6  H2  UNL     1      20.664  66.998  37.918  1.00  0.00     0.183 HD
HETATM    7  C2  UNL     1      18.631  66.476  38.036  1.00  0.00     0.156 A
HETATM    8  C3  UNL     1      17.599  66.619  37.116  1.00  0.00     0.164 A
HETATM    9  N3  UNL     1      16.300  66.280  37.211  1.00  0.00    -0.335 N
ATOM     10  H3  UNL     1      15.926  65.843  38.054  1.00  0.00     0.168 HD
HETATM   11  C4  UNL     1      15.522  66.536  36.161  1.00  0.00     0.203 A
HETATM   12  N4  UNL     1      16.018  67.121  35.033  1.00  0.00    -0.170 N
HETATM   13  C7  UNL     1      17.317  67.457  34.950  1.00  0.00     0.712 A
HETATM   14  N9  UNL     1      18.134  67.187  36.052  1.00  0.00     0.040 N
ENDROOT
BRANCH  13  15
HETATM   15  N6  UNL     1      17.863  67.994  33.999  1.00  0.00    -0.139 N
HETATM   16  C8  UNL     1      17.805  68.322  32.707  1.00  0.00     0.352 C
HETATM   17  O2  UNL     1      18.178  67.512  31.775  1.00  0.00    -0.245 OA
HETATM   18  N7  UNL     1      17.336  69.588  32.203  1.00  0.00    -0.258 N
ATOM     19  H7  UNL     1      17.017  70.303  32.855  1.00  0.00     0.191 HD
ATOM     20  H6  UNL     1      18.757  68.345  34.343  1.00  0.00     0.189 HD
BRANCH  18  21
HETATM   21  N8  UNL     1      17.313  69.845  30.836  1.00  0.00    -0.341 N
ATOM     22  H82 UNL     1      18.197  70.022  30.357  1.00  0.00     0.177 HD
ATOM     23  H81 UNL     1      16.432  69.857  30.321  1.00  0.00     0.177 HD
ENDBRANCH  18  21
ENDBRANCH  13  15
BRANCH  12  24
HETATM   24  C5  UNL     1      15.055  67.323  33.964  1.00  0.00     0.247 C
BRANCH  24  25
HETATM   25  C6  UNL     1      14.311  68.604  34.149  1.00  0.00     0.249 C
HETATM   26  N5  UNL     1      12.984  68.657  34.602  1.00  0.00    -0.061 NA
HETATM   27  O1  UNL     1      14.911  69.677  33.883  1.00  0.00    -0.275 OA
ENDBRANCH  24  25
ENDBRANCH  12  24
TORSDOF 4
ENDMDL