MODEL 1
REMARK VINA RESULT: -6.810048627      0.000      0.000
REMARK  5 active torsions:
REMARK  status: ('A' for Active; 'I' for Inactive)
REMARK    1  A    between atoms: N1_2  and  C2_4
REMARK    2  A    between atoms: C4_8  and  N3_9
REMARK    3  A    between atoms: N6_20  and  C8_21
REMARK    4  A    between atoms: C8_21  and  C9_22
REMARK       I    between atoms: C9_22  and  N7_24
REMARK    5  A    between atoms: N7_24  and  N8_26
ROOT
HETATM    1  C2  UNL     1      17.983  68.047  33.314  1.00  0.00     0.138 A
HETATM    2  C3  UNL     1      17.031  68.824  32.655  1.00  0.00     0.125 A
HETATM    3  N2  UNL     1      17.199  69.392  31.473  1.00  0.00    -0.186 N
ATOM      4  H2  UNL     1      18.089  69.263  30.990  1.00  0.00     0.184 HD
HETATM    5  C4  UNL     1      16.236  70.141  30.877  1.00  0.00     0.679 A
HETATM    6  N4  UNL     1      15.047  70.346  31.464  1.00  0.00    -0.154 N
ATOM      7  H4  UNL     1      14.325  70.909  31.013  1.00  0.00     0.187 HD
HETATM    8  C5  UNL     1      14.844  69.789  32.655  1.00  0.00     0.288 A
HETATM    9  O1  UNL     1      13.743  69.945  33.263  1.00  0.00    -0.265 OA
HETATM   10  C6  UNL     1      15.823  69.014  33.288  1.00  0.00     0.133 A
HETATM   11  N5  UNL     1      15.543  68.485  34.490  1.00  0.00    -0.346 N
ATOM     12  H5  UNL     1      14.638  68.645  34.932  1.00  0.00     0.167 HD
HETATM   13  C7  UNL     1      16.481  67.741  35.097  1.00  0.00     0.185 A
HETATM   14  N6  UNL     1      17.657  67.521  34.549  1.00  0.00    -0.319 N
ENDROOT
BRANCH  14  15
HETATM   15  C8  UNL     1      18.640  66.728  35.211  1.00  0.00     0.235 C
BRANCH  15  16
HETATM   16  C9  UNL     1      19.326  67.432  36.323  1.00  0.00     0.253 C
HETATM   17  O2  UNL     1      19.088  67.212  37.533  1.00  0.00    -0.270 OA
HETATM   18  N7  UNL     1      20.297  68.401  35.983  1.00  0.00    -0.275 N
ATOM     19  H7  UNL     1      20.510  68.600  35.006  1.00  0.00     0.189 HD
BRANCH  18  20
HETATM   20  N8  UNL     1      20.959  69.081  37.004  1.00  0.00    -0.343 N
ATOM     21  H82 UNL     1      21.591  68.571  37.621  1.00  0.00     0.176 HD
ATOM     22  H81 UNL     1      20.797  70.081  37.116  1.00  0.00     0.176 HD
ENDBRANCH  18  20
ENDBRANCH  15  16
ENDBRANCH  14  15
BRANCH   1  23
HETATM   23  N1  UNL     1      19.076  67.826  32.834  1.00  0.00    -0.360 N
HETATM   24  C1  UNL     1      19.898  67.104  32.033  1.00  0.00     0.120 C
ATOM     25  H1  UNL     1      19.679  68.544  33.236  1.00  0.00     0.165 HD
ENDBRANCH   1  23
BRANCH   5  26
HETATM   26  N3  UNL     1      16.500  70.658  29.709  1.00  0.00    -0.234 N
ATOM     27  H32 UNL     1      16.173  70.206  28.854  1.00  0.00     0.174 HD
ATOM     28  H31 UNL     1      17.041  71.522  29.680  1.00  0.00     0.174 HD
ENDBRANCH   5  26
TORSDOF 5
ENDMDL