MODEL 2
REMARK VINA RESULT: -6.603460447      0.910      3.014
REMARK  5 active torsions:
REMARK  status: ('A' for Active; 'I' for Inactive)
REMARK    1  A    between atoms: C4_9  and  N4_10
REMARK    2  A    between atoms: C5_15  and  N6_16
REMARK    3  A    between atoms: N6_16  and  N7_18
REMARK    4  A    between atoms: N7_18  and  S1_20
REMARK    5  A    between atoms: S1_20  and  N8_21
ROOT
HETATM    1  C1  UNL     1      16.579  69.158  33.403  1.00  0.00     0.157 C
HETATM    2  N1  UNL     1      16.958  68.645  32.084  1.00  0.00    -0.341 N
HETATM    3  C2  UNL     1      16.278  68.788  30.926  1.00  0.00     0.184 A
HETATM    4  N2  UNL     1      16.990  68.160  29.973  1.00  0.00    -0.336 N
ATOM      5  H2  UNL     1      16.729  68.096  28.989  1.00  0.00     0.168 HD
HETATM    6  C3  UNL     1      18.103  67.630  30.520  1.00  0.00     0.152 A
HETATM    7  N3  UNL     1      19.145  66.916  30.045  1.00  0.00    -0.174 N
ATOM      8  H3  UNL     1      19.181  66.676  29.054  1.00  0.00     0.186 HD
HETATM    9  C4  UNL     1      20.135  66.514  30.861  1.00  0.00     0.679 A
HETATM   10  N5  UNL     1      20.110  66.821  32.181  1.00  0.00    -0.173 N
ATOM     11  H5  UNL     1      20.873  66.506  32.779  1.00  0.00     0.186 HD
HETATM   12  C5  UNL     1      19.103  67.529  32.720  1.00  0.00     0.167 A
HETATM   13  C6  UNL     1      18.083  67.941  31.877  1.00  0.00     0.126 A
ENDROOT
BRANCH  12  14
HETATM   14  N6  UNL     1      19.038  67.843  33.969  1.00  0.00    -0.272 N
ATOM     15  H6  UNL     1      18.325  68.515  34.254  1.00  0.00     0.189 HD
BRANCH  14  16
HETATM   16  N7  UNL     1      19.867  67.332  34.944  1.00  0.00    -0.208 N
ATOM     17  H7  UNL     1      20.877  67.369  34.809  1.00  0.00     0.201 HD
BRANCH  16  18
HETATM   18  S1  UNL     1      19.234  66.629  36.391  1.00  0.00     0.330 S
HETATM   19  O1  UNL     1      19.761  65.229  36.524  1.00  0.00    -0.181 OA
HETATM   20  O2  UNL     1      17.742  66.690  36.422  1.00  0.00    -0.181 OA
BRANCH  18  21
HETATM   21  N8  UNL     1      19.841  67.552  37.720  1.00  0.00    -0.310 N
ATOM     22  H82 UNL     1      19.456  68.437  38.054  1.00  0.00     0.170 HD
ATOM     23  H81 UNL     1      20.645  67.050  38.097  1.00  0.00     0.170 HD
ENDBRANCH  18  21
ENDBRANCH  16  18
ENDBRANCH  14  16
ENDBRANCH  12  14
BRANCH   9  24
HETATM   24  N4  UNL     1      21.139  65.829  30.420  1.00  0.00    -0.234 N
ATOM     25  H42 UNL     1      21.269  65.772  29.409  1.00  0.00     0.174 HD
ATOM     26  H41 UNL     1      21.784  65.358  31.054  1.00  0.00     0.174 HD
ENDBRANCH   9  24
TORSDOF 5
ENDMDL