MODEL 4
REMARK VINA RESULT: -7.001463853      1.067      1.320
REMARK  3 active torsions:
REMARK  status: ('A' for Active; 'I' for Inactive)
REMARK    1  A    between atoms: N1_1  and  C1_4
REMARK    2  A    between atoms: C5_10  and  S1_11
REMARK    3  A    between atoms: S1_11  and  N3_14
ROOT
HETATM    1  C1  UNL     1      18.845  66.849  36.997  1.00  0.00     0.125 A
HETATM    2  C2  UNL     1      17.559  66.654  37.499  1.00  0.00     0.067 A
HETATM    3  C3  UNL     1      16.510  66.792  36.628  1.00  0.00     0.093 A
HETATM    4  N2  UNL     1      16.721  67.103  35.335  1.00  0.00    -0.348 N
ATOM      5  H2  UNL     1      15.923  67.198  34.708  1.00  0.00     0.167 HD
HETATM    6  C4  UNL     1      17.959  67.290  34.857  1.00  0.00     0.172 A
HETATM    7  C5  UNL     1      18.473  67.605  33.628  1.00  0.00     0.211 A
HETATM    8  N6  UNL     1      19.808  67.651  33.783  1.00  0.00    -0.270 N
ATOM      9  H6  UNL     1      20.471  67.864  33.039  1.00  0.00     0.189 HD
HETATM   10  N7  UNL     1      20.141  67.382  35.031  1.00  0.00    -0.232 N
ATOM     11  H7  UNL     1      21.087  67.352  35.410  1.00  0.00     0.209 HD
HETATM   12  N8  UNL     1      19.023  67.160  35.697  1.00  0.00    -0.207 N
ENDROOT
BRANCH   7  13
HETATM   13  S1  UNL     1      17.593  67.895  32.149  1.00  0.00     0.285 S
HETATM   14  O1  UNL     1      18.490  67.704  30.953  1.00  0.00    -0.198 OA
HETATM   15  O2  UNL     1      16.477  66.889  32.012  1.00  0.00    -0.198 OA
BRANCH  13  16
HETATM   16  N3  UNL     1      16.861  69.457  32.146  1.00  0.00    -0.255 N
HETATM   17  C6  UNL     1      15.770  69.726  32.744  1.00  0.00     0.210 C
HETATM   18  N4  UNL     1      15.251  71.032  32.683  1.00  0.00    -0.066 NA
HETATM   19  N5  UNL     1      15.091  68.725  33.459  1.00  0.00    -0.066 NA
ATOM     20  H3  UNL     1      17.328  70.206  31.636  1.00  0.00     0.181 HD
ENDBRANCH  13  16
ENDBRANCH   7  13
BRANCH   1  21
HETATM   21  N1  UNL     1      19.855  66.729  37.778  1.00  0.00    -0.384 N
ATOM     22  H12 UNL     1      20.556  66.008  37.607  1.00  0.00     0.157 HD
ATOM     23  H11 UNL     1      19.954  67.360  38.574  1.00  0.00     0.157 HD
ENDBRANCH   1  21
TORSDOF 3
ENDMDL