MODEL 2
REMARK VINA RESULT: -7.128781781      3.216      7.537
REMARK  3 active torsions:
REMARK  status: ('A' for Active; 'I' for Inactive)
REMARK    1  A    between atoms: N3_12  and  N4_14
REMARK       I    between atoms: N4_14  and  C8_16
REMARK       I    between atoms: C8_16  and  N5_18
REMARK    2  A    between atoms: N5_18  and  N6_20
REMARK    3  A    between atoms: N6_20  and  N7_21
ROOT
HETATM    1  C1  UNL     1      19.458  65.921  36.887  1.00  0.00     0.050 C
HETATM    2  C2  UNL     1      18.007  65.882  37.219  1.00  0.00    -0.026 A
HETATM    3  C3  UNL     1      17.515  65.166  38.289  1.00  0.00     0.083 A
HETATM    4  C4  UNL     1      16.153  65.150  38.570  1.00  0.00     0.249 A
HETATM    5  O1  UNL     1      15.681  64.506  39.537  1.00  0.00    -0.268 OA
HETATM    6  N1  UNL     1      15.270  65.833  37.810  1.00  0.00    -0.302 N
HETATM    7  C5  UNL     1      13.852  65.817  38.105  1.00  0.00     0.161 C
HETATM    8  C6  UNL     1      15.727  66.537  36.765  1.00  0.00     0.153 A
HETATM    9  N2  UNL     1      15.066  67.281  35.878  1.00  0.00    -0.173 N
ATOM     10  H2  UNL     1      14.059  67.440  35.855  1.00  0.00     0.186 HD
HETATM   11  C7  UNL     1      15.969  67.785  35.020  1.00  0.00     0.699 A
HETATM   12  N3  UNL     1      15.637  68.552  34.039  1.00  0.00    -0.128 N
ATOM     13  H3  UNL     1      14.655  68.792  33.902  1.00  0.00     0.205 HD
HETATM   14  N8  UNL     1      17.206  67.355  35.366  1.00  0.00    -0.186 N
ATOM     15  H8  UNL     1      18.076  67.585  34.885  1.00  0.00     0.184 HD
HETATM   16  C9  UNL     1      17.092  66.574  36.452  1.00  0.00     0.100 A
ENDROOT
BRANCH  12  17
HETATM   17  N4  UNL     1      16.592  69.061  33.162  1.00  0.00    -0.236 N
HETATM   18  C8  UNL     1      16.149  69.821  32.048  1.00  0.00     0.352 C
HETATM   19  O2  UNL     1      14.930  70.010  31.887  1.00  0.00    -0.244 OA
HETATM   20  N5  UNL     1      17.084  70.366  31.119  1.00  0.00    -0.234 N
ATOM     21  H5  UNL     1      18.086  70.219  31.240  1.00  0.00     0.189 HD
ATOM     22  H4  UNL     1      17.585  68.891  33.317  1.00  0.00     0.192 HD
BRANCH  20  23
HETATM   23  N6  UNL     1      16.599  71.105  30.043  1.00  0.00    -0.026 NA
BRANCH  23  24
HETATM   24  N7  UNL     1      16.105  70.292  29.021  1.00  0.00    -0.329 N
ATOM     25  H72 UNL     1      15.535  70.649  28.254  1.00  0.00     0.174 HD
ATOM     26  H71 UNL     1      16.380  69.317  29.133  1.00  0.00     0.174 HD
ENDBRANCH  23  24
ENDBRANCH  20  23
ENDBRANCH  12  17
TORSDOF 3
ENDMDL