MODEL 4
REMARK VINA RESULT: -9.924374112      7.136     11.515
REMARK  12 active torsions:
REMARK  status: ('A' for Active; 'I' for Inactive)
REMARK       I    between atoms: C2_2  and  N1_4
REMARK    1  A    between atoms: N2_6  and  C4_8
REMARK    2  A    between atoms: C6_12  and  S1_13
REMARK    3  A    between atoms: S1_13  and  N4_16
REMARK       I    between atoms: N4_16  and  C7_18
REMARK    4  A    between atoms: C7_18  and  C8_20
REMARK    5  A    between atoms: C8_20  and  C9_21
REMARK    6  A    between atoms: C9_21  and  C10_22
REMARK    7  A    between atoms: C10_22  and  S2_23
REMARK    8  A    between atoms: S2_23  and  C11_24
REMARK    9  A    between atoms: N6_32  and  N7_33
REMARK   10  A    between atoms: C18_44  and  N12_45
REMARK   11  A    between atoms: N12_45  and  C19_47
REMARK   12  A    between atoms: C19_47  and  C20_48
ROOT
HETATM    1  C4  UNL     1       5.288  11.142  30.804  1.00  0.00     0.701 A
HETATM    2  N3  UNL     1       5.538  10.011  31.547  1.00  0.00    -0.170 N
ATOM      3  H3  UNL     1       6.354   9.407  31.465  1.00  0.00     0.186 HD
HETATM    4  C5  UNL     1       4.517   9.847  32.397  1.00  0.00     0.188 A
HETATM    5  C6  UNL     1       4.044   9.021  33.422  1.00  0.00     0.170 A
HETATM    6  C16 UNL     1       2.843   9.539  33.857  1.00  0.00     0.160 A
HETATM    7  N8  UNL     1       2.027   9.006  34.891  1.00  0.00    -0.079 NA
HETATM    8  N9  UNL     1       2.609  10.642  33.106  1.00  0.00    -0.263 N
ATOM      9  H9  UNL     1       1.791  11.245  33.192  1.00  0.00     0.190 HD
HETATM   10  N10 UNL     1       3.612  10.828  32.232  1.00  0.00    -0.162 N
HETATM   11  N11 UNL     1       4.104  11.586  31.270  1.00  0.00    -0.109 N
ATOM     12  H11 UNL     1       3.637  12.422  30.917  1.00  0.00     0.208 HD
ENDROOT
BRANCH   5  13
HETATM   13  S1  UNL     1       4.847   7.595  33.983  1.00  0.00     0.272 S
HETATM   14  O2  UNL     1       6.029   7.251  33.082  1.00  0.00    -0.200 OA
HETATM   15  O3  UNL     1       5.451   7.813  35.367  1.00  0.00    -0.200 OA
BRANCH  13  16
HETATM   16  N4  UNL     1       3.812   6.232  34.087  1.00  0.00    -0.250 N
HETATM   17  C7  UNL     1       3.081   5.724  32.981  1.00  0.00     0.231 C
HETATM   18  O4  UNL     1       3.186   6.295  31.876  1.00  0.00    -0.273 OA
ATOM     19  H4  UNL     1       3.717   5.763  34.988  1.00  0.00     0.181 HD
BRANCH  17  20
HETATM   20  C8  UNL     1       2.220   4.542  33.145  1.00  0.00     0.104 C
BRANCH  20  21
HETATM   21  C9  UNL     1       1.901   3.787  31.914  1.00  0.00     0.020 C
BRANCH  21  22
HETATM   22  C10 UNL     1       2.724   2.572  31.645  1.00  0.00     0.081 C
BRANCH  22  23
HETATM   23  S2  UNL     1       3.307   2.641  29.900  1.00  0.00    -0.110 SA
BRANCH  23  24
HETATM   24  C11 UNL     1       4.459   4.006  29.720  1.00  0.00     0.102 A
HETATM   25  C12 UNL     1       5.612   3.988  30.459  1.00  0.00     0.113 A
HETATM   26  C13 UNL     1       6.469   5.058  30.292  1.00  0.00     0.253 A
HETATM   27  O5  UNL     1       7.547   5.079  30.958  1.00  0.00    -0.268 OA
HETATM   28  N5  UNL     1       6.128   6.027  29.434  1.00  0.00    -0.269 N
HETATM   29  C14 UNL     1       7.048   7.151  29.269  1.00  0.00     0.164 C
HETATM   30  C15 UNL     1       4.994   6.040  28.709  1.00  0.00     0.350 A
HETATM   31  O6  UNL     1       4.703   6.967  27.912  1.00  0.00    -0.244 OA
HETATM   32  N6  UNL     1       4.156   5.006  28.866  1.00  0.00    -0.205 N
BRANCH  32  33
HETATM   33  N7  UNL     1       2.978   4.987  28.119  1.00  0.00    -0.334 N
ATOM     34  H72 UNL     1       3.025   4.682  27.147  1.00  0.00     0.177 HD
ATOM     35  H71 UNL     1       2.087   5.261  28.531  1.00  0.00     0.177 HD
ENDBRANCH  32  33
ENDBRANCH  23  24
ENDBRANCH  22  23
ENDBRANCH  21  22
ENDBRANCH  20  21
ENDBRANCH  17  20
ENDBRANCH  13  16
ENDBRANCH   5  13
BRANCH   1  36
HETATM   36  N2  UNL     1       6.146  11.650  29.846  1.00  0.00    -0.174 N
HETATM   37  C3  UNL     1       6.497  11.397  28.692  1.00  0.00     0.138 A
HETATM   38  N1  UNL     1       7.426  12.220  28.096  1.00  0.00    -0.218 N
HETATM   39  C17 UNL     1       6.020  10.332  27.970  1.00  0.00     0.098 A
HETATM   40  C2  UNL     1       7.935  13.337  28.839  1.00  0.00     0.229 C
HETATM   41  C21 UNL     1       7.816  11.943  26.859  1.00  0.00     0.336 A
HETATM   42  C1  UNL     1       8.927  14.284  28.289  1.00  0.00     0.118 C
HETATM   43  O1  UNL     1       7.528  13.542  30.030  1.00  0.00    -0.273 OA
HETATM   44  N14 UNL     1       7.356  10.890  26.127  1.00  0.00    -0.294 N
HETATM   45  O8  UNL     1       8.675  12.678  26.270  1.00  0.00    -0.246 OA
HETATM   46  C18 UNL     1       6.439  10.052  26.666  1.00  0.00     0.108 A
ATOM     47  H14 UNL     1       7.700  10.735  25.179  1.00  0.00     0.172 HD
ATOM     48  H2  UNL     1       6.629  12.477  30.197  1.00  0.00     0.186 HD
BRANCH  46  49
HETATM   49  N12 UNL     1       5.944   8.939  25.952  1.00  0.00    -0.368 N
ATOM     50  H12 UNL     1       6.118   8.002  26.317  1.00  0.00     0.161 HD
BRANCH  49  51
HETATM   51  C19 UNL     1       5.210   9.079  24.739  1.00  0.00     0.220 C
BRANCH  51  52
HETATM   52  C20 UNL     1       3.752   9.214  25.073  1.00  0.00     0.248 C
HETATM   53  N13 UNL     1       3.206  10.545  25.034  1.00  0.00    -0.061 NA
HETATM   54  O7  UNL     1       3.014   8.256  25.374  1.00  0.00    -0.275 OA
ENDBRANCH  51  52
ENDBRANCH  49  51
ENDBRANCH  46  49
ENDBRANCH   1  36
TORSDOF 12
ENDMDL