MODEL 2
REMARK VINA RESULT: -9.009614585      2.860     10.129
REMARK  16 active torsions:
REMARK  status: ('A' for Active; 'I' for Inactive)
REMARK    1  A    between atoms: O1_2  and  C2_3
REMARK    2  A    between atoms: C2_3  and  C3_4
REMARK    3  A    between atoms: C3_4  and  N1_5
REMARK    4  A    between atoms: C3_4  and  C26_59
REMARK       I    between atoms: N1_5  and  C4_7
REMARK    5  A    between atoms: C4_7  and  C5_9
REMARK    6  A    between atoms: C6_10  and  N2_11
REMARK    7  A    between atoms: C8_13  and  C9_14
REMARK    8  A    between atoms: C9_14  and  C10_16
REMARK    9  A    between atoms: C10_16  and  N3_17
REMARK   10  A    between atoms: C11_22  and  C12_23
REMARK   11  A    between atoms: C15_29  and  C16_30
REMARK   12  A    between atoms: C16_30  and  C17_31
REMARK   13  A    between atoms: C19_38  and  O6_39
REMARK   14  A    between atoms: C23_44  and  O7_45
REMARK   15  A    between atoms: C24_51  and  N11_52
REMARK   16  A    between atoms: C26_59  and  O9_61
ROOT
HETATM    1  C9  UNL     1       3.570   4.971  28.277  1.00  0.00     0.198 C
HETATM    2  O3  UNL     1       2.663   4.303  27.652  1.00  0.00    -0.289 OA
ENDROOT
BRANCH   1   3
HETATM    3  C8  UNL     1       3.751   6.364  27.912  1.00  0.00     0.114 A
HETATM    4  C7  UNL     1       4.948   6.970  27.514  1.00  0.00     0.153 A
HETATM    5  N2  UNL     1       4.729   8.278  27.256  1.00  0.00    -0.245 N
HETATM    6  N10 UNL     1       3.452   8.500  27.479  1.00  0.00    -0.235 N
HETATM    7  N9  UNL     1       2.858   7.364  27.871  1.00  0.00    -0.281 N
ATOM      8  H10 UNL     1       2.985   9.400  27.370  1.00  0.00     0.209 HD
ATOM      9  H9  UNL     1       1.870   7.272  28.104  1.00  0.00     0.188 HD
BRANCH   5  10
HETATM   10  C6  UNL     1       5.693   9.236  26.828  1.00  0.00     0.136 A
HETATM   11  C5  UNL     1       6.510  10.032  27.664  1.00  0.00     0.151 A
HETATM   12  N13 UNL     1       7.294  10.787  26.890  1.00  0.00    -0.288 N
HETATM   13  N12 UNL     1       7.012  10.505  25.605  1.00  0.00    -0.281 N
HETATM   14  C25 UNL     1       8.289  11.766  27.275  1.00  0.00     0.178 C
HETATM   15  C24 UNL     1       6.054   9.578  25.552  1.00  0.00     0.145 A
ATOM     16  H12 UNL     1       7.461  10.935  24.796  1.00  0.00     0.189 HD
BRANCH  11  17
HETATM   17  C4  UNL     1       6.397   9.967  29.088  1.00  0.00     0.273 C
HETATM   18  N1  UNL     1       6.472   8.808  29.918  1.00  0.00    -0.340 N
ATOM     19  H1  UNL     1       6.622   7.896  29.484  1.00  0.00     0.163 HD
HETATM   20  O2  UNL     1       6.199  11.046  29.758  1.00  0.00    -0.266 OA
BRANCH  18  21
HETATM   21  C3  UNL     1       6.344   8.890  31.339  1.00  0.00     0.208 C
BRANCH  21  22
HETATM   22  C2  UNL     1       7.191   7.966  32.111  1.00  0.00     0.202 C
BRANCH  22  23
HETATM   23  O1  UNL     1       6.947   6.636  32.092  1.00  0.00    -0.393 OA
HETATM   24  C1  UNL     1       7.583   5.772  31.285  1.00  0.00     0.201 C
ENDBRANCH  22  23
ENDBRANCH  21  22
BRANCH  21  25
HETATM   25  C26 UNL     1       4.915   8.552  31.740  1.00  0.00     0.283 C
HETATM   26  O8  UNL     1       4.260   7.867  30.939  1.00  0.00    -0.263 OA
BRANCH  25  27
HETATM   27  O9  UNL     1       4.364   8.971  32.916  1.00  0.00    -0.325 OA
HETATM   28  C27 UNL     1       3.612   8.091  33.760  1.00  0.00     0.213 C
ENDBRANCH  25  27
ENDBRANCH  21  25
ENDBRANCH  18  21
ENDBRANCH  11  17
BRANCH  15  29
HETATM   29  N11 UNL     1       5.543   9.069  24.472  1.00  0.00    -0.382 N
ATOM     30 2H11 UNL     1       6.057   8.591  23.732  1.00  0.00     0.157 HD
ATOM     31 1H11 UNL     1       4.551   9.080  24.232  1.00  0.00     0.157 HD
ENDBRANCH  15  29
ENDBRANCH   5  10
ENDBRANCH   1   3
BRANCH   1  32
HETATM   32  C10 UNL     1       4.306   4.220  29.284  1.00  0.00     0.238 C
BRANCH  32  33
HETATM   33  N3  UNL     1       3.388   3.840  30.357  1.00  0.00    -0.247 N
HETATM   34  N4  UNL     1       2.340   3.021  30.202  1.00  0.00    -0.238 N
HETATM   35  N5  UNL     1       1.711   2.905  31.348  1.00  0.00    -0.282 N
ATOM     36  H4  UNL     1       2.074   2.561  29.331  1.00  0.00     0.208 HD
HETATM   37  C11 UNL     1       2.294   3.624  32.309  1.00  0.00     0.102 A
ATOM     38  H5  UNL     1       0.877   2.334  31.486  1.00  0.00     0.188 HD
HETATM   39  C23 UNL     1       3.387   4.224  31.628  1.00  0.00     0.187 A
BRANCH  37  40
HETATM   40  C12 UNL     1       2.022   3.839  33.714  1.00  0.00     0.053 C
HETATM   41  C13 UNL     1       1.372   4.697  34.406  1.00  0.00     0.040 A
HETATM   42  C14 UNL     1       1.377   4.511  35.875  1.00  0.00     0.256 A
HETATM   43  C21 UNL     1       0.600   5.833  33.945  1.00  0.00    -0.044 A
HETATM   44  O4  UNL     1       1.989   3.585  36.453  1.00  0.00    -0.267 OA
HETATM   45  N6  UNL     1       0.662   5.414  36.687  1.00  0.00    -0.326 N
HETATM   46  C15 UNL     1      -0.008   6.405  36.238  1.00  0.00     0.018 A
ATOM     47  H6  UNL     1       0.680   5.267  37.696  1.00  0.00     0.169 HD
HETATM   48  C20 UNL     1      -0.041   6.626  34.811  1.00  0.00     0.033 A
HETATM   49  C22 UNL     1       0.447   6.134  32.507  1.00  0.00     0.049 C
BRANCH  46  50
HETATM   50  C16 UNL     1      -0.722   7.297  37.163  1.00  0.00     0.118 C
BRANCH  50  51
HETATM   51  C17 UNL     1      -0.831   6.602  38.492  1.00  0.00     0.070 A
HETATM   52  N7  UNL     1      -0.274   6.979  39.649  1.00  0.00    -0.308 N
HETATM   53  C18 UNL     1      -0.610   6.096  40.609  1.00  0.00     0.326 A
ATOM     54  H7  UNL     1       0.312   7.804  39.782  1.00  0.00     0.170 HD
HETATM   55  O5  UNL     1      -0.252   6.153  41.820  1.00  0.00    -0.247 OA
HETATM   56  N8  UNL     1      -1.387   5.143  40.081  1.00  0.00    -0.287 N
HETATM   57  C19 UNL     1      -1.533   5.445  38.761  1.00  0.00     0.167 A
ATOM     58  H8  UNL     1      -1.790   4.346  40.572  1.00  0.00     0.172 HD
BRANCH  57  59
HETATM   59  O6  UNL     1      -2.274   4.683  37.893  1.00  0.00    -0.345 OA
ATOM     60  H6  UNL     1      -2.754   4.969  37.125  1.00  0.00     0.219 HD
ENDBRANCH  57  59
ENDBRANCH  50  51
ENDBRANCH  46  50
ENDBRANCH  37  40
BRANCH  39  61
HETATM   61  O7  UNL     1       4.285   5.072  32.251  1.00  0.00    -0.343 OA
ATOM     62  H7  UNL     1       4.101   5.709  32.932  1.00  0.00     0.219 HD
ENDBRANCH  39  61
ENDBRANCH  32  33
ENDBRANCH   1  32
TORSDOF 16
ENDMDL