MODEL 5
REMARK VINA RESULT: -8.296163011      2.796      5.413
REMARK  17 active torsions:
REMARK  status: ('A' for Active; 'I' for Inactive)
REMARK    1  A    between atoms: C2_2  and  O2_4
REMARK    2  A    between atoms: O2_4  and  C3_5
REMARK    3  A    between atoms: C3_5  and  C4_6
REMARK    4  A    between atoms: C4_6  and  O3_7
REMARK    5  A    between atoms: O3_7  and  C5_8
REMARK       I    between atoms: C5_8  and  N1_10
REMARK    6  A    between atoms: N1_10  and  C6_12
REMARK    7  A    between atoms: C6_12  and  C7_13
REMARK    8  A    between atoms: C6_12  and  C9_20
REMARK       I    between atoms: C7_13  and  N2_15
REMARK       I    between atoms: N2_15  and  C8_17
REMARK    9  A    between atoms: C11_23  and  N5_24
REMARK   10  A    between atoms: N5_24  and  C12_26
REMARK   11  A    between atoms: N10_42  and  C20_43
REMARK   12  A    between atoms: C20_43  and  C21_44
REMARK   13  A    between atoms: C21_44  and  O8_45
REMARK   14  A    between atoms: C21_44  and  C22_47
REMARK   15  A    between atoms: C22_47  and  O9_48
REMARK   16  A    between atoms: C22_47  and  C23_50
REMARK   17  A    between atoms: C23_50  and  O10_51
ROOT
HETATM    1  C9  UNL     1       4.063   6.043  31.027  1.00  0.00     0.084 A
HETATM    2  C10 UNL     1       4.172   6.756  32.182  1.00  0.00     0.155 A
HETATM    3  N4  UNL     1       3.661   7.981  31.942  1.00  0.00    -0.086 N
HETATM    4  C11 UNL     1       3.459   8.977  32.833  1.00  0.00     0.700 A
HETATM    5  N6  UNL     1       2.803  10.087  32.435  1.00  0.00    -0.184 N
ATOM      6  H6  UNL     1       2.639  10.840  33.103  1.00  0.00     0.184 HD
HETATM    7  C15 UNL     1       2.369  10.212  31.190  1.00  0.00     0.126 A
HETATM    8  C16 UNL     1       1.677  11.333  30.832  1.00  0.00     0.117 A
HETATM    9  C17 UNL     1       1.294  12.444  31.529  1.00  0.00     0.054 A
HETATM   10  C18 UNL     1       1.460  12.881  32.915  1.00  0.00     0.072 C
HETATM   11  N7  UNL     1       0.595  13.193  30.614  1.00  0.00    -0.288 N
ATOM     12  H7  UNL     1       0.161  14.097  30.801  1.00  0.00     0.188 HD
HETATM   13  N8  UNL     1       0.571  12.567  29.469  1.00  0.00    -0.231 N
ATOM     14  H8  UNL     1       0.118  12.907  28.621  1.00  0.00     0.209 HD
HETATM   15  N9  UNL     1       1.236  11.407  29.582  1.00  0.00    -0.186 N
HETATM   16  C19 UNL     1       1.462  10.445  28.696  1.00  0.00     0.351 A
HETATM   17  O7  UNL     1       1.037  10.544  27.534  1.00  0.00    -0.244 OA
HETATM   18  N10 UNL     1       2.165   9.285  29.015  1.00  0.00    -0.278 N
HETATM   19  C24 UNL     1       2.597   9.165  30.251  1.00  0.00     0.168 A
HETATM   20  N11 UNL     1       3.254   8.043  30.683  1.00  0.00    -0.179 N
HETATM   21  C25 UNL     1       3.463   6.884  30.071  1.00  0.00     0.283 A
HETATM   22  O11 UNL     1       3.281   6.381  28.989  1.00  0.00    -0.265 OA
ENDROOT
BRANCH   1  23
HETATM   23  C6  UNL     1       4.545   4.671  30.840  1.00  0.00     0.122 C
BRANCH  23  24
HETATM   24  N1  UNL     1       5.672   4.457  30.063  1.00  0.00    -0.297 N
HETATM   25  C5  UNL     1       7.023   4.799  30.344  1.00  0.00     0.365 C
HETATM   26  O4  UNL     1       7.475   5.359  31.377  1.00  0.00    -0.238 OA
ATOM     27  H1  UNL     1       5.511   3.992  29.169  1.00  0.00     0.171 HD
BRANCH  25  28
HETATM   28  O3  UNL     1       8.016   4.495  29.392  1.00  0.00    -0.302 OA
BRANCH  28  29
HETATM   29  C4  UNL     1       7.938   4.479  28.026  1.00  0.00     0.207 C
BRANCH  29  30
HETATM   30  C3  UNL     1       8.743   3.394  27.379  1.00  0.00     0.205 C
BRANCH  30  31
HETATM   31  O2  UNL     1      10.129   3.466  27.537  1.00  0.00    -0.320 OA
BRANCH  31  32
HETATM   32  C2  UNL     1      11.053   2.884  26.758  1.00  0.00     0.254 C
HETATM   33  C1  UNL     1      11.492   1.457  26.939  1.00  0.00     0.126 C
HETATM   34  O1  UNL     1      11.603   3.521  25.814  1.00  0.00    -0.266 OA
ENDBRANCH  31  32
ENDBRANCH  30  31
ENDBRANCH  29  30
ENDBRANCH  28  29
ENDBRANCH  25  28
ENDBRANCH  23  24
BRANCH  23  35
HETATM   35  C7  UNL     1       3.392   3.763  30.841  1.00  0.00     0.277 C
HETATM   36  O5  UNL     1       2.985   3.184  31.863  1.00  0.00    -0.266 OA
HETATM   37  N2  UNL     1       2.669   3.492  29.624  1.00  0.00    -0.276 N
HETATM   38  C8  UNL     1       1.534   2.617  29.657  1.00  0.00     0.335 C
ATOM     39  H2  UNL     1       2.963   3.921  28.747  1.00  0.00     0.173 HD
HETATM   40  N3  UNL     1       0.841   2.344  28.437  1.00  0.00    -0.040 NA
HETATM   41  O6  UNL     1       1.181   2.116  30.752  1.00  0.00    -0.251 OA
ENDBRANCH  23  35
ENDBRANCH   1  23
BRANCH   4  42
HETATM   42  N5  UNL     1       3.863   8.926  33.984  1.00  0.00    -0.220 N
ATOM     43  H5  UNL     1       4.684   9.530  33.935  1.00  0.00     0.178 HD
BRANCH  42  44
HETATM   44  C12 UNL     1       3.884   8.559  35.270  1.00  0.00     0.091 C
HETATM   45  C13 UNL     1       5.087   7.774  35.771  1.00  0.00     0.032 C
HETATM   46  C14 UNL     1       2.681   7.676  35.705  1.00  0.00     0.032 C
ENDBRANCH  42  44
ENDBRANCH   4  42
BRANCH  18  47
HETATM   47  C20 UNL     1       2.509   8.528  27.865  1.00  0.00     0.170 C
BRANCH  47  48
HETATM   48  C21 UNL     1       3.623   9.320  27.116  1.00  0.00     0.167 C
BRANCH  48  49
HETATM   49  O8  UNL     1       3.189   9.800  25.873  1.00  0.00    -0.391 OA
ATOM     50  H8  UNL     1       2.392  10.310  25.944  1.00  0.00     0.210 HD
ENDBRANCH  48  49
BRANCH  48  51
HETATM   51  C22 UNL     1       4.756   8.350  26.701  1.00  0.00     0.172 C
BRANCH  51  52
HETATM   52  O9  UNL     1       5.596   8.020  27.764  1.00  0.00    -0.391 OA
ATOM     53  H9  UNL     1       6.341   7.497  27.492  1.00  0.00     0.210 HD
ENDBRANCH  51  52
BRANCH  51  54
HETATM   54  C23 UNL     1       5.622   9.031  25.678  1.00  0.00     0.198 C
BRANCH  54  55
HETATM   55  O10 UNL     1       5.504   8.616  24.387  1.00  0.00    -0.398 OA
ATOM     56  H10 UNL     1       6.162   8.920  23.772  1.00  0.00     0.209 HD
ENDBRANCH  54  55
ENDBRANCH  51  54
ENDBRANCH  48  51
ENDBRANCH  47  48
ENDBRANCH  18  47
TORSDOF 17
ENDMDL