MODEL 5
REMARK VINA RESULT: -7.310523057      4.326      8.754
REMARK  20 active torsions:
REMARK  status: ('A' for Active; 'I' for Inactive)
REMARK    1  A    between atoms: O1_2  and  C2_3
REMARK    2  A    between atoms: C2_3  and  C3_5
REMARK    3  A    between atoms: C6_8  and  O3_9
REMARK    4  A    between atoms: O3_9  and  C7_10
REMARK    5  A    between atoms: C8_11  and  C9_12
REMARK    6  A    between atoms: C9_12  and  O4_13
REMARK    7  A    between atoms: C13_20  and  O7_21
REMARK    8  A    between atoms: C14_23  and  O8_24
REMARK    9  A    between atoms: O8_24  and  C15_25
REMARK   10  A    between atoms: C15_25  and  C16_26
REMARK   11  A    between atoms: C16_26  and  C17_27
REMARK   12  A    between atoms: C17_27  and  C18_28
REMARK   13  A    between atoms: C18_28  and  O9_30
REMARK   14  A    between atoms: C20_33  and  C21_34
REMARK   15  A    between atoms: C21_34  and  O11_35
REMARK   16  A    between atoms: C21_34  and  C22_37
REMARK   17  A    between atoms: C23_39  and  N1_40
REMARK   18  A    between atoms: C24_44  and  C25_45
REMARK   19  A    between atoms: C25_45  and  O14_47
REMARK   20  A    between atoms: C27_50  and  O16_51
ROOT
HETATM    1  C7  UNL     1       3.303   5.463  29.403  1.00  0.00     0.195 C
HETATM    2  C8  UNL     1       4.033   4.317  28.673  1.00  0.00     0.180 C
HETATM    3  O5  UNL     1       5.264   4.862  28.443  1.00  0.00    -0.348 OA
HETATM    4  C10 UNL     1       5.056   6.193  28.063  1.00  0.00     0.298 C
HETATM    5  O6  UNL     1       5.777   6.995  28.916  1.00  0.00    -0.339 OA
HETATM    6  C11 UNL     1       5.153   8.202  28.989  1.00  0.00     0.144 C
HETATM    7  C12 UNL     1       3.686   7.926  28.858  1.00  0.00     0.091 C
HETATM    8  C13 UNL     1       3.614   6.530  28.392  1.00  0.00     0.139 C
HETATM    9  C14 UNL     1       5.718   9.199  28.051  1.00  0.00     0.297 C
HETATM   10  O10 UNL     1       6.792   9.807  28.711  1.00  0.00    -0.347 OA
HETATM   11  C20 UNL     1       6.435   9.875  30.049  1.00  0.00     0.190 C
HETATM   12  C27 UNL     1       5.353   8.892  30.330  1.00  0.00     0.189 C
ENDROOT
BRANCH   9  13
HETATM   13  O8  UNL     1       6.224   8.596  26.916  1.00  0.00    -0.358 OA
BRANCH  13  14
HETATM   14  C15 UNL     1       6.982   9.481  26.145  1.00  0.00     0.171 C
BRANCH  14  15
HETATM   15  C16 UNL     1       6.047  10.230  25.254  1.00  0.00     0.029 C
BRANCH  15  16
HETATM   16  C17 UNL     1       5.450   9.370  24.164  1.00  0.00     0.033 C
BRANCH  16  17
HETATM   17  C18 UNL     1       3.952   9.339  24.402  1.00  0.00     0.114 C
HETATM   18  C19 UNL     1       3.575  10.688  25.003  1.00  0.00     0.039 C
BRANCH  17  19
HETATM   19  O9  UNL     1       3.594   8.302  25.263  1.00  0.00    -0.396 OA
ATOM     20  H9  UNL     1       2.689   8.043  25.137  1.00  0.00     0.210 HD
ENDBRANCH  17  19
ENDBRANCH  16  17
ENDBRANCH  15  16
ENDBRANCH  14  15
ENDBRANCH  13  14
ENDBRANCH   9  13
BRANCH  12  21
HETATM   21  O16 UNL     1       4.196   9.632  30.667  1.00  0.00    -0.390 OA
ATOM     22  H16 UNL     1       3.493   9.041  30.910  1.00  0.00     0.210 HD
ENDBRANCH  12  21
BRANCH   8  23
HETATM   23  O7  UNL     1       2.804   6.382  27.250  1.00  0.00    -0.382 OA
ATOM     24  H7  UNL     1       2.689   5.463  27.040  1.00  0.00     0.210 HD
ENDBRANCH   8  23
BRANCH  11  25
HETATM   25  C21 UNL     1       5.963  11.320  30.263  1.00  0.00     0.205 C
BRANCH  25  26
HETATM   26  O11 UNL     1       5.992  11.694  31.592  1.00  0.00    -0.388 OA
ATOM     27  H11 UNL     1       6.877  11.792  31.923  1.00  0.00     0.210 HD
ENDBRANCH  25  26
BRANCH  25  28
HETATM   28  C22 UNL     1       6.931  12.198  29.501  1.00  0.00     0.295 C
HETATM   29  O12 UNL     1       7.230  13.284  30.273  1.00  0.00    -0.323 OA
HETATM   30  C23 UNL     1       7.567  14.291  29.407  1.00  0.00     0.360 C
HETATM   31  C24 UNL     1       7.087  13.821  28.071  1.00  0.00     0.280 C
HETATM   32  O15 UNL     1       6.402  12.625  28.290  1.00  0.00    -0.339 OA
BRANCH  30  33
HETATM   33  N1  UNL     1       6.891  15.497  29.847  1.00  0.00    -0.050 N
ATOM     34  H13 UNL     1       6.079  15.728  29.275  1.00  0.00     0.277 HD
ATOM     35  H12 UNL     1       6.400  15.376  30.733  1.00  0.00     0.277 HD
ATOM     36  H11 UNL     1       7.581  16.247  29.877  1.00  0.00     0.277 HD
ENDBRANCH  30  33
BRANCH  31  37
HETATM   37  C25 UNL     1       6.199  14.759  27.379  1.00  0.00     0.292 C
HETATM   38  O13 UNL     1       4.955  14.641  27.514  1.00  0.00    -0.262 OA
BRANCH  37  39
HETATM   39  O14 UNL     1       6.652  15.789  26.566  1.00  0.00    -0.324 OA
HETATM   40  C26 UNL     1       5.729  16.681  26.015  1.00  0.00     0.213 C
ENDBRANCH  37  39
ENDBRANCH  31  37
ENDBRANCH  25  28
ENDBRANCH  11  25
BRANCH   1  41
HETATM   41  O3  UNL     1       3.904   5.698  30.600  1.00  0.00    -0.350 OA
BRANCH  41  42
HETATM   42  C6  UNL     1       3.038   5.643  31.689  1.00  0.00     0.260 C
HETATM   43  C5  UNL     1       3.778   5.893  32.975  1.00  0.00     0.061 C
HETATM   44  C4  UNL     1       2.910   5.682  34.194  1.00  0.00     0.021 C
HETATM   45  C3  UNL     1       2.280   4.323  34.157  1.00  0.00     0.109 C
HETATM   46  C28 UNL     1       1.657   4.140  32.766  1.00  0.00     0.185 C
HETATM   47  O17 UNL     1       2.592   4.307  31.774  1.00  0.00    -0.360 OA
BRANCH  45  48
HETATM   48  C2  UNL     1       1.171   4.179  35.117  1.00  0.00     0.264 C
HETATM   49  O2  UNL     1       1.396   3.734  36.256  1.00  0.00    -0.265 OA
BRANCH  48  50
HETATM   50  O1  UNL     1      -0.104   4.537  34.754  1.00  0.00    -0.326 OA
HETATM   51  C1  UNL     1      -0.773   5.658  35.298  1.00  0.00     0.213 C
ENDBRANCH  48  50
ENDBRANCH  45  48
ENDBRANCH  41  42
ENDBRANCH   1  41
BRANCH   2  52
HETATM   52  C9  UNL     1       3.993   3.016  29.366  1.00  0.00     0.198 C
BRANCH  52  53
HETATM   53  O4  UNL     1       5.017   3.058  30.352  1.00  0.00    -0.398 OA
ATOM     54  H4  UNL     1       5.565   2.297  30.201  1.00  0.00     0.209 HD
ENDBRANCH  52  53
ENDBRANCH   2  52
TORSDOF 20
ENDMDL