MODEL 5
REMARK VINA RESULT: -8.537455555      4.566     11.395
REMARK  14 active torsions:
REMARK  status: ('A' for Active; 'I' for Inactive)
REMARK    1  A    between atoms: O1_2  and  N1_3
REMARK    2  A    between atoms: N1_3  and  C2_5
REMARK    3  A    between atoms: C2_5  and  C3_6
REMARK    4  A    between atoms: C2_5  and  C13_32
REMARK       I    between atoms: C3_6  and  N2_8
REMARK    5  A    between atoms: C6_13  and  N4_14
REMARK    6  A    between atoms: N6_21  and  C8_22
REMARK    7  A    between atoms: C8_22  and  O4_23
REMARK    8  A    between atoms: C9_25  and  O5_26
REMARK    9  A    between atoms: C11_28  and  C12_29
REMARK   10  A    between atoms: C14_35  and  O8_36
REMARK   11  A    between atoms: O8_36  and  S1_37
REMARK   12  A    between atoms: N8_41  and  C15_42
REMARK   13  A    between atoms: C18_45  and  S2_46
REMARK   14  A    between atoms: S2_46  and  N9_47
ROOT
HETATM    1  C2  UNL     1       6.294   6.788  30.328  1.00  0.00     0.168 C
ENDROOT
BRANCH   1   2
HETATM    2  N1  UNL     1       7.310   6.041  30.407  1.00  0.00    -0.258 N
ATOM      3  H1  UNL     1       8.162   6.452  30.789  1.00  0.00     0.194 HD
BRANCH   2   4
HETATM    4  O1  UNL     1       7.366   4.739  30.028  1.00  0.00    -0.285 OA
HETATM    5  C1  UNL     1       8.210   4.235  29.026  1.00  0.00     0.237 C
ENDBRANCH   2   4
ENDBRANCH   1   2
BRANCH   1   6
HETATM    6  C3  UNL     1       6.299   8.155  29.908  1.00  0.00     0.281 C
HETATM    7  O2  UNL     1       7.075   8.998  30.500  1.00  0.00    -0.265 OA
HETATM    8  N2  UNL     1       5.474   8.685  28.847  1.00  0.00    -0.285 N
HETATM    9  C4  UNL     1       5.036  10.035  28.914  1.00  0.00     0.152 A
HETATM   10  C11 UNL     1       5.214   7.872  27.708  1.00  0.00     0.243 C
HETATM   11  C5  UNL     1       4.899  10.762  27.751  1.00  0.00     0.155 A
HETATM   12  C7  UNL     1       4.782  10.662  30.123  1.00  0.00     0.290 A
HETATM   13  N3  UNL     1       4.538  12.050  27.761  1.00  0.00    -0.174 N
HETATM   14  N6  UNL     1       5.082  10.036  26.514  1.00  0.00    -0.314 N
HETATM   15  C6  UNL     1       4.304  12.626  28.947  1.00  0.00     0.680 A
ATOM     16  H3  UNL     1       4.443  12.577  26.892  1.00  0.00     0.186 HD
HETATM   17  N5  UNL     1       4.421  11.956  30.104  1.00  0.00    -0.154 N
ATOM     18  H5  UNL     1       4.233  12.437  30.983  1.00  0.00     0.187 HD
HETATM   19  C9  UNL     1       4.729   8.647  26.499  1.00  0.00     0.259 C
HETATM   20  O3  UNL     1       4.870  10.085  31.211  1.00  0.00    -0.265 OA
BRANCH  15  21
HETATM   21  N4  UNL     1       3.954  13.873  28.974  1.00  0.00    -0.234 N
ATOM     22  H42 UNL     1       3.422  14.257  28.193  1.00  0.00     0.174 HD
ATOM     23  H41 UNL     1       4.221  14.438  29.780  1.00  0.00     0.174 HD
ENDBRANCH  15  21
BRANCH  14  24
HETATM   24  C8  UNL     1       5.583  10.714  25.367  1.00  0.00     0.294 C
BRANCH  24  25
HETATM   25  O4  UNL     1       6.529   9.890  24.714  1.00  0.00    -0.382 OA
ATOM     26  H4  UNL     1       7.339  10.374  24.598  1.00  0.00     0.211 HD
ENDBRANCH  24  25
ENDBRANCH  14  24
BRANCH  19  27
HETATM   27  O5  UNL     1       3.343   8.516  26.351  1.00  0.00    -0.369 OA
HETATM   28  C10 UNL     1       2.796   7.609  27.258  1.00  0.00     0.204 C
ENDBRANCH  19  27
BRANCH  10  29
HETATM   29  C12 UNL     1       6.510   7.246  27.223  1.00  0.00     0.201 C
HETATM   30  O6  UNL     1       6.589   5.997  27.121  1.00  0.00    -0.646 OA
HETATM   31  O7  UNL     1       7.619   7.996  26.883  1.00  0.00    -0.646 OA
ENDBRANCH  10  29
ENDBRANCH   1   6
BRANCH   1  32
HETATM   32  C13 UNL     1       4.986   6.193  30.705  1.00  0.00     0.158 A
HETATM   33  N7  UNL     1       4.195   5.407  29.940  1.00  0.00    -0.302 N
HETATM   34  C14 UNL     1       3.085   5.056  30.615  1.00  0.00     0.266 A
ATOM     35  H7  UNL     1       4.409   5.120  28.985  1.00  0.00     0.171 HD
HETATM   36  N8  UNL     1       3.195   5.639  31.822  1.00  0.00    -0.217 N
HETATM   37  N10 UNL     1       4.332   6.317  31.873  1.00  0.00    -0.273 N
ATOM     38  H10 UNL     1       4.662   6.852  32.676  1.00  0.00     0.189 HD
BRANCH  34  39
HETATM   39  O8  UNL     1       2.027   4.257  30.178  1.00  0.00    -0.177 OA
BRANCH  39  40
HETATM   40  S1  UNL     1       2.279   3.291  28.801  1.00  0.00     0.259 S
HETATM   41  O9  UNL     1       2.445   4.163  27.572  1.00  0.00    -0.572 OA
HETATM   42  O10 UNL     1       1.150   2.355  28.584  1.00  0.00    -0.572 OA
HETATM   43  O11 UNL     1       3.746   2.483  29.024  1.00  0.00    -0.572 OA
ENDBRANCH  39  40
ENDBRANCH  34  39
BRANCH  36  44
HETATM   44  C15 UNL     1       2.201   5.498  32.829  1.00  0.00     0.060 A
HETATM   45  C16 UNL     1       2.216   4.410  33.677  1.00  0.00     0.033 A
HETATM   46  C17 UNL     1       1.249   4.254  34.672  1.00  0.00     0.027 A
HETATM   47  C18 UNL     1       0.246   5.184  34.837  1.00  0.00     0.079 A
HETATM   48  C19 UNL     1       0.224   6.271  33.996  1.00  0.00     0.027 A
HETATM   49  C20 UNL     1       1.186   6.411  33.019  1.00  0.00     0.033 A
BRANCH  47  50
HETATM   50  S2  UNL     1      -0.944   4.945  36.098  1.00  0.00     0.256 S
HETATM   51  O12 UNL     1      -0.286   5.097  37.450  1.00  0.00    -0.201 OA
HETATM   52  O13 UNL     1      -1.487   3.552  35.935  1.00  0.00    -0.201 OA
BRANCH  50  53
HETATM   53  N9  UNL     1      -2.250   6.065  35.949  1.00  0.00    -0.324 N
ATOM     54  H92 UNL     1      -3.210   5.787  35.744  1.00  0.00     0.169 HD
ATOM     55  H91 UNL     1      -1.933   7.024  36.091  1.00  0.00     0.169 HD
ENDBRANCH  50  53
ENDBRANCH  47  50
ENDBRANCH  36  44
ENDBRANCH   1  32
TORSDOF 14
ENDMDL