MODEL 5
REMARK VINA RESULT: -7.378126192      1.813      2.805
REMARK  16 active torsions:
REMARK  status: ('A' for Active; 'I' for Inactive)
REMARK    1  A    between atoms: O1_2  and  C2_3
REMARK    2  A    between atoms: C2_3  and  C3_5
REMARK    3  A    between atoms: C4_6  and  C5_7
REMARK    4  A    between atoms: C5_7  and  O4_9
REMARK    5  A    between atoms: C10_17  and  C11_18
REMARK    6  A    between atoms: C11_18  and  N2_19
REMARK    7  A    between atoms: C11_18  and  O6_28
REMARK       I    between atoms: N2_19  and  C12_21
REMARK       I    between atoms: C12_21  and  N3_23
REMARK    8  A    between atoms: N3_23  and  N4_25
REMARK    9  A    between atoms: C13_32  and  O8_33
REMARK   10  A    between atoms: O8_33  and  C14_34
REMARK   11  A    between atoms: C14_34  and  C16_36
REMARK   12  A    between atoms: C16_36  and  O9_37
REMARK   13  A    between atoms: O9_37  and  C17_38
REMARK   14  A    between atoms: C17_38  and  C18_39
REMARK   15  A    between atoms: C18_39  and  O10_40
REMARK   16  A    between atoms: C22_50  and  N8_51
ROOT
HETATM    1  C3  UNL     1       3.493   8.999  27.500  1.00  0.00     0.130 A
HETATM    2  C4  UNL     1       4.088  10.139  27.224  1.00  0.00     0.112 A
HETATM    3  C7  UNL     1       5.296  10.565  27.989  1.00  0.00     0.227 A
HETATM    4  N1  UNL     1       5.656   9.663  29.008  1.00  0.00    -0.338 N
ATOM      5  H1  UNL     1       6.455   9.919  29.587  1.00  0.00     0.164 HD
HETATM    6  C8  UNL     1       5.066   8.526  29.287  1.00  0.00     0.093 A
HETATM    7  C9  UNL     1       5.548   7.654  30.404  1.00  0.00     0.152 C
HETATM    8  S1  UNL     1       4.024   6.736  30.717  1.00  0.00    -0.131 SA
HETATM    9  C10 UNL     1       3.420   6.828  28.948  1.00  0.00     0.203 C
HETATM   10  N5  UNL     1       3.952   8.093  28.573  1.00  0.00    -0.312 N
HETATM   11  O7  UNL     1       4.970  11.770  28.633  1.00  0.00    -0.317 OA
HETATM   12  C13 UNL     1       6.136  12.302  29.246  1.00  0.00     0.293 C
HETATM   13  C19 UNL     1       7.083  12.798  28.246  1.00  0.00     0.194 C
HETATM   14  N6  UNL     1       8.417  13.027  28.748  1.00  0.00    -0.328 N
ATOM     15  H6  UNL     1       8.692  13.225  29.710  1.00  0.00     0.165 HD
HETATM   16  C20 UNL     1       9.294  12.915  27.578  1.00  0.00     0.321 C
HETATM   17  O11 UNL     1      10.416  13.425  27.424  1.00  0.00    -0.247 OA
HETATM   18  N7  UNL     1       8.576  12.086  26.637  1.00  0.00    -0.308 N
ATOM     19  H7  UNL     1       8.902  11.810  25.712  1.00  0.00     0.170 HD
HETATM   20  C21 UNL     1       7.322  11.721  27.236  1.00  0.00     0.075 C
HETATM   21  C22 UNL     1       6.507  10.730  27.133  1.00  0.00     0.166 C
ENDROOT
BRANCH   2  22
HETATM   22  C5  UNL     1       3.638  11.083  26.165  1.00  0.00     0.296 C
HETATM   23  O3  UNL     1       3.098  12.159  26.207  1.00  0.00    -0.259 OA
BRANCH  22  24
HETATM   24  O4  UNL     1       3.885  10.645  24.823  1.00  0.00    -0.323 OA
HETATM   25  C6  UNL     1       3.431  11.423  23.719  1.00  0.00     0.213 C
ENDBRANCH  22  24
ENDBRANCH   2  22
BRANCH  21  26
HETATM   26  N8  UNL     1       6.787   9.729  26.126  1.00  0.00    -0.112 N
HETATM   27  O12 UNL     1       6.863   9.960  24.927  1.00  0.00    -0.532 OA
HETATM   28  O13 UNL     1       6.971   8.450  26.577  1.00  0.00    -0.532 OA
ENDBRANCH  21  26
BRANCH   1  29
HETATM   29  C2  UNL     1       2.326   8.553  26.784  1.00  0.00     0.310 C
HETATM   30  O2  UNL     1       2.361   7.892  25.746  1.00  0.00    -0.258 OA
BRANCH  29  31
HETATM   31  O1  UNL     1       1.039   8.838  27.207  1.00  0.00    -0.321 OA
HETATM   32  C1  UNL     1       0.825   9.852  28.150  1.00  0.00     0.213 C
ENDBRANCH  29  31
ENDBRANCH   1  29
BRANCH  12  33
HETATM   33  O8  UNL     1       5.693  13.361  30.033  1.00  0.00    -0.352 OA
BRANCH  33  34
HETATM   34  C14 UNL     1       5.893  13.135  31.387  1.00  0.00     0.144 C
HETATM   35  C15 UNL     1       6.064  11.707  31.762  1.00  0.00     0.042 C
BRANCH  34  36
HETATM   36  C16 UNL     1       7.070  13.912  31.935  1.00  0.00     0.199 C
BRANCH  36  37
HETATM   37  O9  UNL     1       7.204  13.551  33.287  1.00  0.00    -0.387 OA
BRANCH  37  38
HETATM   38  C17 UNL     1       6.988  14.693  34.078  1.00  0.00     0.193 C
BRANCH  38  39
HETATM   39  C18 UNL     1       8.021  15.736  33.698  1.00  0.00     0.190 C
BRANCH  39  40
HETATM   40  O10 UNL     1       8.913  15.941  34.744  1.00  0.00    -0.399 OA
ATOM     41  H10 UNL     1       9.759  15.559  34.540  1.00  0.00     0.209 HD
ENDBRANCH  39  40
ENDBRANCH  38  39
ENDBRANCH  37  38
ENDBRANCH  36  37
ENDBRANCH  34  36
ENDBRANCH  33  34
ENDBRANCH  12  33
BRANCH   9  42
HETATM   42  C11 UNL     1       3.918   5.609  28.275  1.00  0.00     0.274 C
BRANCH  42  43
HETATM   43  N2  UNL     1       4.878   4.822  29.036  1.00  0.00    -0.311 N
HETATM   44  C12 UNL     1       6.190   4.693  28.490  1.00  0.00     0.336 C
HETATM   45  O5  UNL     1       6.486   5.254  27.379  1.00  0.00    -0.246 OA
HETATM   46  N3  UNL     1       7.205   3.957  29.132  1.00  0.00    -0.258 N
ATOM     47  H3  UNL     1       7.010   3.496  30.021  1.00  0.00     0.191 HD
ATOM     48  H2  UNL     1       4.624   4.382  29.920  1.00  0.00     0.167 HD
BRANCH  46  49
HETATM   49  N4  UNL     1       8.463   3.855  28.569  1.00  0.00    -0.341 N
ATOM     50  H42 UNL     1       9.015   4.703  28.446  1.00  0.00     0.177 HD
ATOM     51  H41 UNL     1       8.831   2.947  28.282  1.00  0.00     0.177 HD
ENDBRANCH  46  49
ENDBRANCH  42  43
BRANCH  42  52
HETATM   52  O6  UNL     1       2.795   4.735  28.200  1.00  0.00    -0.279 OA
HETATM   53  S2  UNL     1       2.866   3.498  29.351  1.00  0.00     0.095 SA
ENDBRANCH  42  52
ENDBRANCH   9  42
TORSDOF 16
ENDMDL