MODEL 1
REMARK VINA RESULT: -8.173167833      0.000      0.000
REMARK  15 active torsions:
REMARK  status: ('A' for Active; 'I' for Inactive)
REMARK    1  A    between atoms: O1_2  and  C2_3
REMARK       I    between atoms: C2_3  and  N1_5
REMARK    2  A    between atoms: C3_6  and  C4_7
REMARK    3  A    between atoms: C5_10  and  N2_11
REMARK    4  A    between atoms: C9_20  and  N5_21
REMARK    5  A    between atoms: C11_28  and  C12_29
REMARK    6  A    between atoms: C12_29  and  S1_30
REMARK    7  A    between atoms: S1_30  and  S2_31
REMARK    8  A    between atoms: S2_31  and  C13_32
REMARK    9  A    between atoms: C15_39  and  C16_40
REMARK   10  A    between atoms: C16_40  and  O8_41
REMARK   11  A    between atoms: C16_40  and  C17_43
REMARK   12  A    between atoms: C17_43  and  O9_44
REMARK   13  A    between atoms: O9_44  and  N9_45
REMARK   14  A    between atoms: N9_45  and  N10_46
REMARK   15  A    between atoms: N9_45  and  O11_51
REMARK       I    between atoms: N10_46  and  C18_48
ROOT
HETATM    1  C2  UNL     1       0.847   5.981  33.642  1.00  0.00     0.369 C
HETATM    2  O2  UNL     1       0.224   6.975  34.182  1.00  0.00    -0.238 OA
HETATM    3  N1  UNL     1       1.642   6.245  32.520  1.00  0.00    -0.255 N
HETATM    4  C3  UNL     1       2.374   5.249  31.748  1.00  0.00     0.170 C
HETATM    5  C5  UNL     1       3.450   5.877  31.260  1.00  0.00     0.188 C
HETATM    6  O6  UNL     1       3.415   7.203  31.689  1.00  0.00    -0.306 OA
HETATM    7  C11 UNL     1       2.008   7.457  31.827  1.00  0.00     0.252 C
ENDROOT
BRANCH   7   8
HETATM    8  C12 UNL     1       1.696   8.734  32.442  1.00  0.00     0.141 C
BRANCH   8   9
HETATM    9  S1  UNL     1       1.663  10.193  31.400  1.00  0.00    -0.086 SA
BRANCH   9  10
HETATM   10  S2  UNL     1       3.614  10.594  30.608  1.00  0.00    -0.036 SA
BRANCH  10  11
HETATM   11  C13 UNL     1       3.969   9.489  29.250  1.00  0.00     0.133 C
HETATM   12  N7  UNL     1       3.036   9.297  28.364  1.00  0.00    -0.299 N
HETATM   13  C14 UNL     1       3.258   8.429  27.262  1.00  0.00     0.321 C
ATOM     14  H7  UNL     1       2.139   9.773  28.461  1.00  0.00     0.171 HD
HETATM   15  O7  UNL     1       2.360   8.226  26.382  1.00  0.00    -0.247 OA
HETATM   16  N8  UNL     1       4.485   7.763  27.109  1.00  0.00    -0.328 N
HETATM   17  C15 UNL     1       5.513   7.819  28.116  1.00  0.00     0.194 C
ATOM     18  H8  UNL     1       4.652   7.223  26.260  1.00  0.00     0.165 HD
HETATM   19  C21 UNL     1       5.241   8.814  29.133  1.00  0.00     0.208 C
HETATM   20  O12 UNL     1       6.175   9.117  29.983  1.00  0.00    -0.288 OA
BRANCH  17  21
HETATM   21  C16 UNL     1       6.814   8.030  27.363  1.00  0.00     0.174 C
BRANCH  21  22
HETATM   22  O8  UNL     1       7.198   6.907  26.680  1.00  0.00    -0.391 OA
ATOM     23  H8  UNL     1       7.272   6.152  27.252  1.00  0.00     0.210 HD
ENDBRANCH  21  22
BRANCH  21  24
HETATM   24  C17 UNL     1       6.882   9.310  26.596  1.00  0.00     0.232 C
BRANCH  24  25
HETATM   25  O9  UNL     1       6.347   9.134  25.304  1.00  0.00    -0.258 OA
BRANCH  25  26
HETATM   26  N9  UNL     1       5.398   9.999  24.978  1.00  0.00     0.040 NA
BRANCH  26  27
HETATM   27  N10 UNL     1       5.502  11.266  25.529  1.00  0.00    -0.241 N
HETATM   28  C18 UNL     1       4.394  12.016  26.006  1.00  0.00     0.231 C
HETATM   29  C19 UNL     1       4.543  13.363  26.590  1.00  0.00     0.118 C
HETATM   30  O10 UNL     1       3.245  11.466  25.907  1.00  0.00    -0.273 OA
ATOM     31  H10 UNL     1       6.430  11.686  25.596  1.00  0.00     0.188 HD
ENDBRANCH  26  27
BRANCH  26  32
HETATM   32  O11 UNL     1       5.283  10.100  23.645  1.00  0.00    -0.266 OA
HETATM   33  C20 UNL     1       4.173   9.429  23.151  1.00  0.00     0.234 C
ENDBRANCH  26  32
ENDBRANCH  25  26
ENDBRANCH  24  25
ENDBRANCH  21  24
ENDBRANCH  17  21
ENDBRANCH  10  11
ENDBRANCH   9  10
ENDBRANCH   8   9
ENDBRANCH   7   8
BRANCH   1  34
HETATM   34  O1  UNL     1       0.645   4.772  34.255  1.00  0.00    -0.309 OA
HETATM   35  C1  UNL     1       1.452   4.205  35.260  1.00  0.00     0.215 C
ENDBRANCH   1  34
BRANCH   4  36
HETATM   36  C4  UNL     1       2.019   3.875  31.507  1.00  0.00     0.231 C
HETATM   37  O3  UNL     1       2.632   2.975  32.157  1.00  0.00    -0.643 OA
HETATM   38  O4  UNL     1       1.064   3.462  30.623  1.00  0.00    -0.643 OA
ENDBRANCH   4  36
BRANCH   5  39
HETATM   39  N2  UNL     1       4.433   5.247  30.445  1.00  0.00    -0.269 N
HETATM   40  C6  UNL     1       4.278   4.356  29.452  1.00  0.00     0.193 A
HETATM   41  N3  UNL     1       5.490   4.000  28.929  1.00  0.00    -0.344 N
HETATM   42  C7  UNL     1       6.436   4.672  29.595  1.00  0.00     0.148 A
ATOM     43  H3  UNL     1       5.645   3.340  28.167  1.00  0.00     0.167 HD
HETATM   44  C8  UNL     1       7.828   4.694  29.481  1.00  0.00     0.290 A
HETATM   45  C10 UNL     1       5.786   5.441  30.530  1.00  0.00     0.163 A
HETATM   46  O5  UNL     1       8.447   4.015  28.649  1.00  0.00    -0.265 OA
HETATM   47  N4  UNL     1       8.477   5.498  30.325  1.00  0.00    -0.154 N
HETATM   48  C9  UNL     1       7.848   6.248  31.237  1.00  0.00     0.680 A
ATOM     49  H4  UNL     1       9.495   5.543  30.273  1.00  0.00     0.187 HD
HETATM   50  N6  UNL     1       6.485   6.225  31.347  1.00  0.00    -0.174 N
ATOM     51  H6  UNL     1       6.012   6.800  32.045  1.00  0.00     0.186 HD
BRANCH  48  52
HETATM   52  N5  UNL     1       8.504   7.010  32.036  1.00  0.00    -0.234 N
ATOM     53  H52 UNL     1       9.523   6.978  31.999  1.00  0.00     0.174 HD
ATOM     54  H51 UNL     1       8.022   7.630  32.687  1.00  0.00     0.174 HD
ENDBRANCH  48  52
ENDBRANCH   5  39
TORSDOF 15
ENDMDL