MODEL 3
REMARK VINA RESULT: -8.244504293      3.087      5.322
REMARK  16 active torsions:
REMARK  status: ('A' for Active; 'I' for Inactive)
REMARK    1  A    between atoms: C1_2  and  C2_4
REMARK    2  A    between atoms: C2_4  and  C3_5
REMARK    3  A    between atoms: C3_5  and  O3_6
REMARK    4  A    between atoms: C3_5  and  C18_38
REMARK    5  A    between atoms: O3_6  and  C4_7
REMARK    6  A    between atoms: C4_7  and  C5_9
REMARK    7  A    between atoms: C6_10  and  O5_11
REMARK    8  A    between atoms: C7_13  and  O6_14
REMARK    9  A    between atoms: O6_14  and  S1_15
REMARK   10  A    between atoms: C8_19  and  O10_20
REMARK   11  A    between atoms: C12_27  and  C13_28
REMARK   12  A    between atoms: C18_38  and  O17_40
REMARK   13  A    between atoms: O17_40  and  C19_41
REMARK   14  A    between atoms: C19_41  and  C20_42
REMARK   15  A    between atoms: C20_42  and  O19_44
REMARK   16  A    between atoms: O19_44  and  S2_45
ROOT
HETATM    1  C5  UNL     1       6.548   9.542  27.909  1.00  0.00     0.103 A
HETATM    2  C6  UNL     1       6.702  10.856  27.504  1.00  0.00     0.122 A
HETATM    3  C7  UNL     1       6.589  11.904  28.440  1.00  0.00     0.160 A
HETATM    4  C8  UNL     1       6.328  11.626  29.750  1.00  0.00     0.120 A
HETATM    5  C9  UNL     1       6.171  10.325  30.184  1.00  0.00     0.081 A
HETATM    6  C10 UNL     1       5.907  10.104  31.517  1.00  0.00     0.223 A
HETATM    7  O11 UNL     1       5.810  11.051  32.343  1.00  0.00    -0.284 OA
HETATM    8  C11 UNL     1       5.741   8.825  31.989  1.00  0.00     0.158 A
HETATM    9  O12 UNL     1       5.489   8.592  33.257  1.00  0.00    -0.297 OA
HETATM   10  C12 UNL     1       5.323   7.374  33.745  1.00  0.00     0.156 A
HETATM   11  C14 UNL     1       5.425   6.321  32.855  1.00  0.00     0.101 A
HETATM   12  C15 UNL     1       5.688   6.519  31.517  1.00  0.00     0.204 A
HETATM   13  O15 UNL     1       5.783   5.558  30.696  1.00  0.00    -0.286 OA
HETATM   14  C16 UNL     1       5.854   7.820  31.059  1.00  0.00     0.121 A
HETATM   15  N1  UNL     1       6.115   8.061  29.746  1.00  0.00    -0.349 N
ATOM     16  H1  UNL     1       6.186   7.265  29.113  1.00  0.00     0.166 HD
HETATM   17  C17 UNL     1       6.285   9.295  29.242  1.00  0.00     0.069 A
ENDROOT
BRANCH   1  18
HETATM   18  C4  UNL     1       6.673   8.467  26.936  1.00  0.00     0.299 C
HETATM   19  O4  UNL     1       7.561   7.585  26.897  1.00  0.00    -0.259 OA
BRANCH  18  20
HETATM   20  O3  UNL     1       5.757   8.317  25.897  1.00  0.00    -0.301 OA
BRANCH  20  21
HETATM   21  C3  UNL     1       4.443   8.888  26.036  1.00  0.00     0.241 C
BRANCH  21  22
HETATM   22  C2  UNL     1       4.065   9.232  24.618  1.00  0.00     0.156 C
BRANCH  22  23
HETATM   23  C1  UNL     1       3.828  10.635  24.370  1.00  0.00     0.175 C
HETATM   24  O1  UNL     1       4.460  11.553  24.902  1.00  0.00    -0.648 OA
HETATM   25  O2  UNL     1       2.823  11.003  23.471  1.00  0.00    -0.648 OA
ENDBRANCH  22  23
ENDBRANCH  21  22
BRANCH  21  26
HETATM   26  C18 UNL     1       3.552   7.842  26.616  1.00  0.00     0.289 C
HETATM   27  O16 UNL     1       2.346   7.743  26.219  1.00  0.00    -0.262 OA
BRANCH  26  28
HETATM   28  O17 UNL     1       3.971   6.982  27.555  1.00  0.00    -0.309 OA
BRANCH  28  29
HETATM   29  C19 UNL     1       3.222   6.254  28.469  1.00  0.00     0.291 C
BRANCH  29  30
HETATM   30  C20 UNL     1       3.317   4.792  28.337  1.00  0.00     0.300 C
HETATM   31  O18 UNL     1       4.217   4.252  27.653  1.00  0.00    -0.262 OA
BRANCH  30  32
HETATM   32  O19 UNL     1       2.404   3.990  28.972  1.00  0.00    -0.175 OA
BRANCH  32  33
HETATM   33  S2  UNL     1       2.713   3.227  30.467  1.00  0.00     0.259 S
HETATM   34  O20 UNL     1       2.799   4.267  31.576  1.00  0.00    -0.572 OA
HETATM   35  O21 UNL     1       3.940   2.401  30.395  1.00  0.00    -0.572 OA
HETATM   36  O22 UNL     1       1.341   2.304  30.831  1.00  0.00    -0.572 OA
ENDBRANCH  32  33
ENDBRANCH  30  32
ENDBRANCH  29  30
ENDBRANCH  28  29
ENDBRANCH  26  28
ENDBRANCH  21  26
ENDBRANCH  20  21
ENDBRANCH  18  20
ENDBRANCH   1  18
BRANCH   2  37
HETATM   37  O5  UNL     1       6.960  11.262  26.248  1.00  0.00    -0.357 OA
ATOM     38  H5  UNL     1       6.359  11.207  25.515  1.00  0.00     0.218 HD
ENDBRANCH   2  37
BRANCH   3  39
HETATM   39  O6  UNL     1       6.738  13.227  28.058  1.00  0.00    -0.208 OA
BRANCH  39  40
HETATM   40  S1  UNL     1       8.183  14.075  27.969  1.00  0.00     0.257 S
HETATM   41  O7  UNL     1       7.882  15.391  27.261  1.00  0.00    -0.572 OA
HETATM   42  O8  UNL     1       9.200  13.377  27.104  1.00  0.00    -0.572 OA
HETATM   43  O9  UNL     1       8.783  14.364  29.502  1.00  0.00    -0.572 OA
ENDBRANCH  39  40
ENDBRANCH   3  39
BRANCH   4  44
HETATM   44  O10 UNL     1       6.211  12.648  30.705  1.00  0.00    -0.357 OA
ATOM     45  H10 UNL     1       5.569  12.601  31.404  1.00  0.00     0.218 HD
ENDBRANCH   4  44
BRANCH  10  46
HETATM   46  C13 UNL     1       5.046   7.134  35.146  1.00  0.00     0.234 C
HETATM   47  O13 UNL     1       4.253   7.884  35.748  1.00  0.00    -0.642 OA
HETATM   48  O14 UNL     1       5.649   6.090  35.818  1.00  0.00    -0.642 OA
ENDBRANCH  10  46
TORSDOF 16
ENDMDL