MODEL 4
REMARK VINA RESULT: -7.831610903      4.420      7.232
REMARK  17 active torsions:
REMARK  status: ('A' for Active; 'I' for Inactive)
REMARK    1  A    between atoms: S1_2  and  C2_5
REMARK    2  A    between atoms: C3_10  and  C4_11
REMARK    3  A    between atoms: C4_11  and  O3_12
REMARK    4  A    between atoms: C4_11  and  C5_14
REMARK    5  A    between atoms: C5_14  and  O5_16
REMARK    6  A    between atoms: O5_16  and  C6_17
REMARK    7  A    between atoms: C6_17  and  C7_18
REMARK    8  A    between atoms: C8_19  and  C9_20
REMARK    9  A    between atoms: C9_20  and  O6_21
REMARK   10  A    between atoms: C9_20  and  C10_23
REMARK   11  A    between atoms: C11_25  and  N3_26
REMARK       I    between atoms: N3_26  and  C12_28
REMARK   12  A    between atoms: C12_28  and  C13_30
REMARK   13  A    between atoms: C13_30  and  N4_31
REMARK   14  A    between atoms: C15_33  and  C16_34
REMARK       I    between atoms: C16_34  and  N5_36
REMARK   15  A    between atoms: N5_36  and  N6_38
REMARK   16  A    between atoms: C17_41  and  N7_42
REMARK   17  A    between atoms: C19_49  and  O11_50
ROOT
HETATM    1  C10 UNL     1       2.028   4.754  36.322  1.00  0.00     0.216 C
HETATM    2  O7  UNL     1       1.311   3.755  35.577  1.00  0.00    -0.349 OA
HETATM    3  C11 UNL     1       1.153   4.515  34.427  1.00  0.00     0.256 C
HETATM    4  C19 UNL     1       2.194   5.439  34.956  1.00  0.00     0.202 C
ENDROOT
BRANCH   1   5
HETATM    5  C9  UNL     1       1.181   5.447  37.276  1.00  0.00     0.109 C
BRANCH   5   6
HETATM    6  C8  UNL     1       0.061   5.131  38.104  1.00  0.00     0.115 C
HETATM    7  C7  UNL     1      -1.196   5.216  37.741  1.00  0.00     0.038 C
HETATM    8  S2  UNL     1      -2.395   4.596  38.988  1.00  0.00    -0.127 SA
HETATM    9  C21 UNL     1      -1.820   5.293  40.557  1.00  0.00     0.106 C
HETATM   10  C20 UNL     1      -0.314   5.342  40.538  1.00  0.00     0.186 C
HETATM   11  O12 UNL     1       0.280   4.681  39.455  1.00  0.00    -0.347 OA
BRANCH   7  12
HETATM   12  C6  UNL     1      -1.703   5.640  36.465  1.00  0.00     0.227 C
BRANCH  12  13
HETATM   13  O5  UNL     1      -1.314   6.924  36.098  1.00  0.00    -0.314 OA
BRANCH  13  14
HETATM   14  C5  UNL     1      -2.020   7.939  35.608  1.00  0.00     0.294 C
HETATM   15  O4  UNL     1      -3.177   8.210  35.992  1.00  0.00    -0.262 OA
BRANCH  14  16
HETATM   16  C4  UNL     1      -1.435   8.844  34.524  1.00  0.00     0.275 C
BRANCH  16  17
HETATM   17  C3  UNL     1       0.043   8.854  34.684  1.00  0.00     0.107 A
HETATM   18  N2  UNL     1       0.688   9.029  35.830  1.00  0.00    -0.293 N
HETATM   19  N1  UNL     1       1.950   9.019  35.852  1.00  0.00    -0.284 N
ATOM     20  H2  UNL     1       0.164   9.173  36.693  1.00  0.00     0.187 HD
HETATM   21  C2  UNL     1       2.631   8.831  34.725  1.00  0.00     0.186 A
ATOM     22  H1  UNL     1       2.447   9.153  36.732  1.00  0.00     0.188 HD
HETATM   23  S3  UNL     1       1.346   8.666  33.598  1.00  0.00    -0.041 SA
BRANCH  21  24
HETATM   24  S1  UNL     1       4.371   8.772  34.478  1.00  0.00     0.195 S
HETATM   25  C1  UNL     1       5.069   7.971  35.897  1.00  0.00     0.169 C
HETATM   26  O1  UNL     1       4.705   7.939  33.278  1.00  0.00    -0.221 OA
HETATM   27  O2  UNL     1       4.861  10.158  34.296  1.00  0.00    -0.221 OA
ENDBRANCH  21  24
ENDBRANCH  16  17
BRANCH  16  28
HETATM   28  O3  UNL     1      -1.785   8.346  33.271  1.00  0.00    -0.379 OA
ATOM     29  H3  UNL     1      -2.592   7.848  33.326  1.00  0.00     0.211 HD
ENDBRANCH  16  28
ENDBRANCH  14  16
ENDBRANCH  13  14
ENDBRANCH  12  13
ENDBRANCH   7  12
ENDBRANCH   5   6
BRANCH   5  30
HETATM   30  O6  UNL     1       1.566   6.714  37.396  1.00  0.00    -0.359 OA
ATOM     31  H6  UNL     1       2.446   6.862  37.070  1.00  0.00     0.217 HD
ENDBRANCH   5  30
ENDBRANCH   1   5
BRANCH   4  32
HETATM   32  O11 UNL     1       3.451   5.346  34.415  1.00  0.00    -0.388 OA
ATOM     33  H11 UNL     1       4.116   5.854  34.865  1.00  0.00     0.210 HD
ENDBRANCH   4  32
BRANCH   3  34
HETATM   34  N3  UNL     1       1.532   3.762  33.247  1.00  0.00    -0.331 N
HETATM   35  C12 UNL     1       0.894   3.892  31.999  1.00  0.00     0.238 C
HETATM   36  O8  UNL     1      -0.067   4.730  31.938  1.00  0.00    -0.272 OA
ATOM     37  H3  UNL     1       2.304   3.100  33.327  1.00  0.00     0.165 HD
BRANCH  35  38
HETATM   38  C13 UNL     1       1.247   3.149  30.789  1.00  0.00     0.235 C
BRANCH  38  39
HETATM   39  N4  UNL     1       2.465   3.583  30.155  1.00  0.00    -0.300 N
HETATM   40  C14 UNL     1       3.588   3.878  30.851  1.00  0.00     0.117 A
HETATM   41  C15 UNL     1       4.752   4.290  30.255  1.00  0.00     0.092 A
HETATM   42  C17 UNL     1       4.796   4.415  28.879  1.00  0.00     0.120 A
HETATM   43  N8  UNL     1       3.687   4.123  28.210  1.00  0.00    -0.294 N
HETATM   44  C18 UNL     1       2.558   3.720  28.821  1.00  0.00     0.328 A
ATOM     45  H8  UNL     1       3.691   4.206  27.193  1.00  0.00     0.172 HD
HETATM   46  O10 UNL     1       1.575   3.471  28.095  1.00  0.00    -0.246 OA
BRANCH  41  47
HETATM   47  C16 UNL     1       5.946   4.603  31.007  1.00  0.00     0.274 C
HETATM   48  O9  UNL     1       7.054   4.134  30.678  1.00  0.00    -0.266 OA
HETATM   49  N5  UNL     1       5.863   5.450  32.135  1.00  0.00    -0.272 N
ATOM     50  H5  UNL     1       4.963   5.840  32.416  1.00  0.00     0.189 HD
BRANCH  49  51
HETATM   51  N6  UNL     1       7.009   5.752  32.861  1.00  0.00    -0.342 N
ATOM     52  H62 UNL     1       7.847   6.052  32.362  1.00  0.00     0.176 HD
ATOM     53  H61 UNL     1       7.003   5.673  33.878  1.00  0.00     0.176 HD
ENDBRANCH  49  51
ENDBRANCH  41  47
BRANCH  42  54
HETATM   54  N7  UNL     1       5.842   4.794  28.246  1.00  0.00    -0.385 N
ATOM     55  H72 UNL     1       6.388   5.583  28.593  1.00  0.00     0.157 HD
ATOM     56  H71 UNL     1       6.171   4.342  27.394  1.00  0.00     0.157 HD
ENDBRANCH  42  54
ENDBRANCH  38  39
ENDBRANCH  35  38
ENDBRANCH   3  34
TORSDOF 17
ENDMDL