MODEL 3
REMARK VINA RESULT: -7.557443693      1.725      2.436
REMARK  20 active torsions:
REMARK  status: ('A' for Active; 'I' for Inactive)
REMARK    1  A    between atoms: C2_2  and  C3_3
REMARK    2  A    between atoms: C3_3  and  O1_4
REMARK    3  A    between atoms: C4_7  and  O3_8
REMARK    4  A    between atoms: O3_8  and  C5_9
REMARK    5  A    between atoms: C7_13  and  O6_14
REMARK    6  A    between atoms: C8_16  and  O7_17
REMARK    7  A    between atoms: C8_16  and  C11_22
REMARK    8  A    between atoms: O7_17  and  C9_18
REMARK    9  A    between atoms: C9_18  and  C10_19
REMARK   10  A    between atoms: C11_22  and  O11_24
REMARK   11  A    between atoms: C13_26  and  C14_27
REMARK   12  A    between atoms: C16_31  and  O14_32
REMARK   13  A    between atoms: C17_34  and  C18_35
REMARK   14  A    between atoms: C18_35  and  O16_37
REMARK   15  A    between atoms: C20_39  and  O17_40
REMARK   16  A    between atoms: O17_40  and  C21_41
REMARK   17  A    between atoms: C21_41  and  C22_43
REMARK   18  A    between atoms: C22_43  and  C23_44
REMARK   19  A    between atoms: C23_44  and  C24_45
REMARK   20  A    between atoms: C25_48  and  O21_49
ROOT
HETATM    1  C3  UNL     1       5.776  10.586  30.036  1.00  0.00     0.206 C
HETATM    2  O2  UNL     1       6.524  11.723  29.668  1.00  0.00    -0.296 OA
HETATM    3  C4  UNL     1       6.847  11.896  28.380  1.00  0.00     0.427 C
HETATM    4  O5  UNL     1       5.986  11.327  27.447  1.00  0.00    -0.296 OA
HETATM    5  C7  UNL     1       4.789  11.127  28.000  1.00  0.00     0.233 C
HETATM    6  C8  UNL     1       3.606  10.857  27.224  1.00  0.00     0.241 C
HETATM    7  C13 UNL     1       2.825   9.977  28.164  1.00  0.00     0.075 C
HETATM    8  C15 UNL     1       3.552   9.564  29.158  1.00  0.00    -0.007 C
HETATM    9  C16 UNL     1       3.211   8.693  30.296  1.00  0.00     0.191 C
HETATM   10  C17 UNL     1       4.371   7.754  30.560  1.00  0.00     0.082 C
HETATM   11  C20 UNL     1       5.412   7.771  29.755  1.00  0.00     0.102 C
HETATM   12  C25 UNL     1       5.535   8.696  28.541  1.00  0.00     0.200 C
HETATM   13  C26 UNL     1       4.926  10.000  29.021  1.00  0.00     0.139 C
ENDROOT
BRANCH   6  14
HETATM   14  O7  UNL     1       2.724  11.961  27.121  1.00  0.00    -0.350 OA
BRANCH  14  15
HETATM   15  C9  UNL     1       3.093  13.062  26.485  1.00  0.00     0.283 C
BRANCH  15  16
HETATM   16  C10 UNL     1       2.219  14.198  26.993  1.00  0.00     0.197 C
HETATM   17  O8  UNL     1       2.564  14.732  28.069  1.00  0.00    -0.646 OA
HETATM   18  O9  UNL     1       1.113  14.595  26.278  1.00  0.00    -0.646 OA
ENDBRANCH  15  16
ENDBRANCH  14  15
ENDBRANCH   6  14
BRANCH   6  19
HETATM   19  C11 UNL     1       3.782  10.277  25.881  1.00  0.00     0.304 C
HETATM   20  O10 UNL     1       3.015  10.632  24.902  1.00  0.00    -0.261 OA
BRANCH  19  21
HETATM   21  O11 UNL     1       4.725   9.347  25.520  1.00  0.00    -0.324 OA
HETATM   22  C12 UNL     1       5.332   9.304  24.231  1.00  0.00     0.213 C
ENDBRANCH  19  21
ENDBRANCH   6  19
BRANCH   5  23
HETATM   23  O6  UNL     1       4.432  12.263  28.793  1.00  0.00    -0.361 OA
ATOM     24  H6  UNL     1       4.912  12.242  29.613  1.00  0.00     0.213 HD
ENDBRANCH   5  23
BRANCH   7  25
HETATM   25  C14 UNL     1       1.405   9.697  27.872  1.00  0.00     0.209 C
HETATM   26  O12 UNL     1       1.093   8.790  27.090  1.00  0.00    -0.644 OA
HETATM   27  O13 UNL     1       0.417  10.444  28.466  1.00  0.00    -0.644 OA
ENDBRANCH   7  25
BRANCH   3  28
HETATM   28  O3  UNL     1       8.223  11.617  28.101  1.00  0.00    -0.265 OA
BRANCH  28  29
HETATM   29  C5  UNL     1       8.996  12.416  27.297  1.00  0.00     0.258 C
HETATM   30  C6  UNL     1      10.353  12.824  27.743  1.00  0.00     0.126 C
HETATM   31  O4  UNL     1       8.536  12.789  26.193  1.00  0.00    -0.266 OA
ENDBRANCH  28  29
ENDBRANCH   3  28
BRANCH   1  32
HETATM   32  C2  UNL     1       5.316  10.911  31.393  1.00  0.00     0.032 C
HETATM   33  C1  UNL     1       5.871  10.555  32.541  1.00  0.00     0.012 C
ENDBRANCH   1  32
BRANCH   1  34
HETATM   34  O1  UNL     1       6.891   9.680  30.269  1.00  0.00    -0.361 OA
ATOM     35  H1  UNL     1       7.148   9.420  29.392  1.00  0.00     0.213 HD
ENDBRANCH   1  34
BRANCH  12  36
HETATM   36  O21 UNL     1       6.800   8.683  28.129  1.00  0.00    -0.387 OA
ATOM     37  H21 UNL     1       7.131   9.573  28.149  1.00  0.00     0.210 HD
ENDBRANCH  12  36
BRANCH   9  38
HETATM   38  O14 UNL     1       2.697   9.317  31.371  1.00  0.00    -0.386 OA
ATOM     39  H14 UNL     1       2.055   8.820  31.864  1.00  0.00     0.210 HD
ENDBRANCH   9  38
BRANCH  11  40
HETATM   40  O17 UNL     1       6.463   6.895  30.019  1.00  0.00    -0.280 OA
BRANCH  40  41
HETATM   41  C21 UNL     1       6.384   5.577  29.561  1.00  0.00     0.264 C
HETATM   42  O18 UNL     1       6.935   4.677  30.235  1.00  0.00    -0.265 OA
BRANCH  41  43
HETATM   43  C22 UNL     1       5.662   5.275  28.307  1.00  0.00     0.122 C
BRANCH  43  44
HETATM   44  C23 UNL     1       4.521   4.326  28.590  1.00  0.00     0.123 C
BRANCH  44  45
HETATM   45  C24 UNL     1       3.251   4.811  27.985  1.00  0.00     0.172 C
HETATM   46  O19 UNL     1       3.076   6.048  27.806  1.00  0.00    -0.648 OA
HETATM   47  O20 UNL     1       2.247   3.933  27.609  1.00  0.00    -0.648 OA
ENDBRANCH  44  45
ENDBRANCH  43  44
ENDBRANCH  41  43
ENDBRANCH  40  41
ENDBRANCH  11  40
BRANCH  10  48
HETATM   48  C18 UNL     1       4.246   6.902  31.720  1.00  0.00     0.294 C
HETATM   49  O15 UNL     1       4.606   7.334  32.844  1.00  0.00    -0.259 OA
BRANCH  48  50
HETATM   50  O16 UNL     1       3.752   5.608  31.707  1.00  0.00    -0.323 OA
HETATM   51  C19 UNL     1       2.364   5.324  31.602  1.00  0.00     0.213 C
ENDBRANCH  48  50
ENDBRANCH  10  48
TORSDOF 20
ENDMDL