MODEL 1
REMARK VINA RESULT: -3.056539614      0.000      0.000
REMARK  1 active torsions:
REMARK  status: ('A' for Active; 'I' for Inactive)
REMARK    1  A    between atoms: C2_2  and  C3_3
ROOT
HETATM    1  C3  UNL     1       2.211  52.999  62.150  1.00  0.00     0.408 C
HETATM    2  N1  UNL     1       1.874  53.200  60.734  1.00  0.00    -0.041 N
ATOM      3  H11 UNL     1       2.663  53.368  60.111  1.00  0.00     0.280 HD
ATOM      4  H12 UNL     1       1.403  54.076  60.510  1.00  0.00     0.280 HD
HETATM    5  C4  UNL     1       1.114  51.991  60.476  1.00  0.00     0.263 C
HETATM    6  C5  UNL     1       1.777  50.948  61.352  1.00  0.00     0.267 C
HETATM    7  N2  UNL     1       2.758  51.692  62.154  1.00  0.00    -0.041 N
HETATM    8  C6  UNL     1       4.022  51.562  61.488  1.00  0.00     0.275 C
HETATM    9  C7  UNL     1       2.875  51.096  63.462  1.00  0.00     0.275 C
ENDROOT
BRANCH   1  10
HETATM   10  C2  UNL     1       3.098  54.060  62.657  1.00  0.00     0.025 C
HETATM   11  C1  UNL     1       3.051  55.322  62.300  1.00  0.00     0.011 C
ENDBRANCH   1  10
TORSDOF 1
ENDMDL