MODEL 2
REMARK VINA RESULT: -3.522684731      1.164      3.179
REMARK  0 active torsions:
REMARK  status: ('A' for Active; 'I' for Inactive)
ROOT
HETATM    1  C1  UNL     1       9.720  47.751  58.383  1.00  0.00     0.031 C
HETATM    2  C2  UNL     1       9.063  46.493  57.876  1.00  0.00     0.031 C
HETATM    3  C3  UNL     1       7.762  46.967  57.292  1.00  0.00     0.260 C
HETATM    4  N1  UNL     1       8.106  48.299  56.797  1.00  0.00     0.012 N
HETATM    5  C4  UNL     1       8.823  48.860  57.883  1.00  0.00     0.260 C
HETATM    6  C5  UNL     1       8.663  48.360  55.494  1.00  0.00     0.278 C
HETATM    7  C6  UNL     1       7.619  49.369  55.113  1.00  0.00     0.172 C
HETATM    8  N2  UNL     1       6.978  48.944  56.347  1.00  0.00    -0.045 NA
ENDROOT
TORSDOF 0
ENDMDL