MODEL 2
REMARK VINA RESULT: -3.036154171      0.080      1.423
REMARK  1 active torsions:
REMARK  status: ('A' for Active; 'I' for Inactive)
REMARK    1  A    between atoms: N1_2  and  C4_5
ROOT
HETATM    1  C4  UNL     1       7.099  49.286  56.827  1.00  0.00     0.240 C
HETATM    2  C5  UNL     1       7.032  50.463  55.941  1.00  0.00     0.267 C
HETATM    3  N2  UNL     1       7.884  51.215  56.869  1.00  0.00    -0.071 N
ATOM      4  H21 UNL     1       7.801  52.227  56.959  1.00  0.00     0.277 HD
ATOM      5  H22 UNL     1       8.881  51.338  56.690  1.00  0.00     0.277 HD
HETATM    6  C6  UNL     1       7.418  50.336  57.902  1.00  0.00     0.267 C
ENDROOT
BRANCH   1   7
HETATM    7  N1  UNL     1       8.077  48.291  56.645  1.00  0.00    -0.071 N
HETATM    8  C1  UNL     1       8.688  48.225  55.354  1.00  0.00     0.272 C
HETATM    9  C2  UNL     1       7.486  46.962  56.899  1.00  0.00     0.272 C
HETATM   10  C3  UNL     1       9.172  48.353  57.629  1.00  0.00     0.272 C
ENDBRANCH   1   7
TORSDOF 1
ENDMDL