MODEL 3
REMARK VINA RESULT: -3.786022644      1.109      2.004
REMARK  1 active torsions:
REMARK  status: ('A' for Active; 'I' for Inactive)
REMARK    1  A    between atoms: C2_2  and  N1_3
ROOT
HETATM    1  N1  UNL     1       8.169  48.929  57.207  1.00  0.00     0.016 N
HETATM    2  C3  UNL     1       7.546  50.209  57.442  1.00  0.00     0.263 C
HETATM    3  C4  UNL     1       7.351  50.384  55.970  1.00  0.00     0.066 C
HETATM    4  C5  UNL     1       8.343  49.232  55.874  1.00  0.00     0.229 C
HETATM    5  C6  UNL     1       7.640  47.986  55.452  1.00  0.00     0.178 C
HETATM    6  N2  UNL     1       7.303  47.888  56.880  1.00  0.00    -0.044 NA
ENDROOT
BRANCH   1   7
HETATM    7  C2  UNL     1       9.185  48.631  58.114  1.00  0.00     0.256 C
HETATM    8  C1  UNL     1       9.500  47.209  58.383  1.00  0.00     0.036 C
ENDBRANCH   1   7
TORSDOF 1
ENDMDL