MODEL 3
REMARK VINA RESULT: -3.811258250      1.493      3.733
REMARK  1 active torsions:
REMARK  status: ('A' for Active; 'I' for Inactive)
REMARK    1  A    between atoms: C2_2  and  C3_3
ROOT
HETATM    1  C3  UNL     1       8.143  49.500  56.598  1.00  0.00     0.248 C
HETATM    2  C4  UNL     1       8.564  49.483  58.056  1.00  0.00     0.067 C
HETATM    3  C5  UNL     1       9.452  48.297  58.368  1.00  0.00     0.237 C
HETATM    4  N1  UNL     1       9.186  47.220  57.458  1.00  0.00    -0.049 N
ATOM      5  H11 UNL     1       9.474  46.325  57.854  1.00  0.00     0.279 HD
ATOM      6  H12 UNL     1       9.815  47.253  56.655  1.00  0.00     0.279 HD
HETATM    7  C6  UNL     1       7.820  47.184  57.042  1.00  0.00     0.503 C
HETATM    8  N2  UNL     1       7.462  48.296  56.206  1.00  0.00     0.117 N
HETATM    9  C7  UNL     1       7.847  47.944  54.838  1.00  0.00     0.312 C
ENDROOT
BRANCH   1  10
HETATM   10  C2  UNL     1       7.353  50.728  56.361  1.00  0.00    -0.002 C
HETATM   11  C1  UNL     1       7.759  51.654  55.495  1.00  0.00     0.009 C
ENDBRANCH   1  10
TORSDOF 1
ENDMDL