MODEL 3
REMARK VINA RESULT: -3.452121878      0.804      2.055
REMARK  1 active torsions:
REMARK  status: ('A' for Active; 'I' for Inactive)
REMARK    1  A    between atoms: C2_2  and  N1_3
ROOT
HETATM    1  N1  UNL     1       8.054  48.478  56.730  1.00  0.00     0.089 N
HETATM    2  C3  UNL     1       6.956  49.401  56.926  1.00  0.00     0.323 C
HETATM    3  N2  UNL     1       9.087  48.832  57.569  1.00  0.00    -0.026 NA
HETATM    4  C4  UNL     1       9.597  47.608  58.156  1.00  0.00     0.167 C
HETATM    5  C5  UNL     1       8.290  46.813  58.283  1.00  0.00     0.121 C
HETATM    6  C6  UNL     1       8.605  45.348  58.259  1.00  0.00     0.031 C
HETATM    7  N3  UNL     1       7.606  47.212  57.087  1.00  0.00    -0.022 NA
ENDROOT
BRANCH   1   8
HETATM    8  C2  UNL     1       8.521  48.431  55.379  1.00  0.00     0.279 C
HETATM    9  C1  UNL     1       8.108  49.606  54.548  1.00  0.00     0.038 C
ENDBRANCH   1   8
TORSDOF 1
ENDMDL