MODEL 4
REMARK VINA RESULT: -3.304311028      1.235      3.502
REMARK  1 active torsions:
REMARK  status: ('A' for Active; 'I' for Inactive)
REMARK    1  A    between atoms: C2_2  and  N1_3
ROOT
HETATM    1  N1  UNL     1       7.651  47.854  56.852  1.00  0.00     0.117 N
HETATM    2  C3  UNL     1       7.879  47.836  55.398  1.00  0.00     0.304 C
HETATM    3  C4  UNL     1       8.217  49.267  55.052  1.00  0.00     0.304 C
HETATM    4  N2  UNL     1       8.112  49.982  56.316  1.00  0.00     0.114 N
HETATM    5  C5  UNL     1       6.769  50.416  56.596  1.00  0.00     0.312 C
HETATM    6  C6  UNL     1       8.533  48.927  57.250  1.00  0.00     0.542 C
ENDROOT
BRANCH   1   7
HETATM    7  C2  UNL     1       7.988  46.588  57.432  1.00  0.00     0.270 C
HETATM    8  C1  UNL     1       9.317  46.696  58.182  1.00  0.00     0.037 C
ENDBRANCH   1   7
TORSDOF 1
ENDMDL