MODEL 2
REMARK VINA RESULT: -3.174863653      1.239      3.488
REMARK  2 active torsions:
REMARK  status: ('A' for Active; 'I' for Inactive)
REMARK    1  A    between atoms: N1_2  and  C3_4
REMARK    2  A    between atoms: C3_4  and  C4_5
ROOT
HETATM    1  C4  UNL     1       7.991  48.305  56.322  1.00  0.00     0.172 A
HETATM    2  C5  UNL     1       7.140  49.380  57.000  1.00  0.00     0.050 C
HETATM    3  C6  UNL     1       8.301  48.639  54.880  1.00  0.00     0.273 A
HETATM    4  N2  UNL     1       7.443  47.506  55.285  1.00  0.00    -0.061 N
ATOM      5  H21 UNL     1       6.493  47.226  55.044  1.00  0.00     0.278 HD
ATOM      6  H22 UNL     1       7.464  46.506  55.086  1.00  0.00     0.278 HD
ENDROOT
BRANCH   1   7
HETATM    7  C3  UNL     1       9.150  47.876  57.148  1.00  0.00     0.311 C
BRANCH   7   8
HETATM    8  N1  UNL     1       8.843  47.361  58.443  1.00  0.00     0.082 N
HETATM    9  C1  UNL     1       8.788  45.895  58.306  1.00  0.00     0.309 C
HETATM   10  C2  UNL     1       9.991  47.596  59.336  1.00  0.00     0.309 C
ENDBRANCH   7   8
ENDBRANCH   1   7
TORSDOF 2
ENDMDL