MODEL 1
REMARK VINA RESULT: -2.850061541      0.000      0.000
REMARK  1 active torsions:
REMARK  status: ('A' for Active; 'I' for Inactive)
REMARK    1  A    between atoms: C5_6  and  C6_7
ROOT
HETATM    1  C1  UNL     1       4.313  51.439  61.612  1.00  0.00     0.272 C
HETATM    2  N1  UNL     1       2.884  51.678  61.852  1.00  0.00    -0.066 N
HETATM    3  C2  UNL     1       2.598  51.934  63.212  1.00  0.00     0.272 C
HETATM    4  C3  UNL     1       2.348  52.759  61.009  1.00  0.00     0.239 C
HETATM    5  C4  UNL     1       1.098  51.900  60.844  1.00  0.00     0.067 C
HETATM    6  C5  UNL     1       2.075  50.772  61.123  1.00  0.00     0.228 C
ENDROOT
BRANCH   6   7
HETATM    7  C6  UNL     1       1.524  49.607  61.803  1.00  0.00     0.086 C
HETATM    8  N2  UNL     1       1.936  48.437  61.461  1.00  0.00    -0.409 N
ATOM      9  H22 UNL     1       2.637  48.344  60.726  1.00  0.00     0.155 HD
ATOM     10  H21 UNL     1       1.550  47.622  61.937  1.00  0.00     0.155 HD
ENDBRANCH   6   7
TORSDOF 1
ENDMDL