MODEL 1
REMARK VINA RESULT: -2.746432053      0.000      0.000
REMARK  1 active torsions:
REMARK  status: ('A' for Active; 'I' for Inactive)
REMARK    1  A    between atoms: C3_6  and  N2_7
ROOT
HETATM    1  C1  UNL     1       7.476  48.618  56.848  1.00  0.00     0.044 C
HETATM    2  C2  UNL     1       8.783  47.994  57.322  1.00  0.00     0.242 A
HETATM    3  N1  UNL     1       9.169  46.706  56.775  1.00  0.00    -0.036 N
ATOM      4  H11 UNL     1      10.017  46.338  56.342  1.00  0.00     0.280 HD
ATOM      5  H12 UNL     1       8.908  46.175  55.945  1.00  0.00     0.280 HD
HETATM    6  C3  UNL     1       8.681  46.774  58.108  1.00  0.00     0.416 A
ENDROOT
BRANCH   6   7
HETATM    7  N2  UNL     1       9.532  46.631  59.248  1.00  0.00    -0.048 N
HETATM    8  C4  UNL     1       8.798  45.781  60.201  1.00  0.00     0.274 C
HETATM    9  C5  UNL     1      10.728  45.868  58.877  1.00  0.00     0.274 C
HETATM   10  C6  UNL     1       9.854  47.841  59.924  1.00  0.00     0.274 C
ENDBRANCH   6   7
TORSDOF 1
ENDMDL