MODEL 3
REMARK VINA RESULT: -3.845646708      2.246      3.666
REMARK  2 active torsions:
REMARK  status: ('A' for Active; 'I' for Inactive)
REMARK    1  A    between atoms: C5_6  and  C6_7
REMARK    2  A    between atoms: N2_8  and  N3_10
ROOT
HETATM    1  C1  UNL     1       9.460  44.939  60.798  1.00  0.00     0.296 C
HETATM    2  N1  UNL     1       9.151  44.840  59.372  1.00  0.00     0.003 N
HETATM    3  C2  UNL     1       8.481  43.605  59.064  1.00  0.00     0.296 C
HETATM    4  C3  UNL     1      10.408  44.882  58.625  1.00  0.00     0.261 C
HETATM    5  C4  UNL     1      10.693  46.362  58.538  1.00  0.00     0.058 C
HETATM    6  C5  UNL     1       9.320  46.949  58.460  1.00  0.00     0.148 C
HETATM    7  N4  UNL     1       8.461  45.965  59.026  1.00  0.00    -0.037 NA
ENDROOT
BRANCH   6   8
HETATM    8  C6  UNL     1       8.919  47.294  57.072  1.00  0.00     0.102 C
HETATM    9  N2  UNL     1       8.927  46.431  56.154  1.00  0.00    -0.321 N
ATOM     10  H2  UNL     1       9.215  45.475  56.366  1.00  0.00     0.185 HD
BRANCH   9  11
HETATM   11  N3  UNL     1       8.548  46.764  54.850  1.00  0.00    -0.346 N
ATOM     12  H32 UNL     1       7.985  46.098  54.321  1.00  0.00     0.176 HD
ATOM     13  H31 UNL     1       8.827  47.652  54.434  1.00  0.00     0.176 HD
ENDBRANCH   9  11
ENDBRANCH   6   8
TORSDOF 2
ENDMDL