MODEL 1
REMARK VINA RESULT: -3.995858577      0.000      0.000
REMARK  1 active torsions:
REMARK  status: ('A' for Active; 'I' for Inactive)
REMARK    1  A    between atoms: C3_3  and  N1_4
ROOT
HETATM    1  C1  UNL     1       8.147  50.377  52.784  1.00  0.00     0.013 C
HETATM    2  C2  UNL     1       7.828  50.081  53.910  1.00  0.00    -0.089 C
HETATM    3  C3  UNL     1       7.428  49.744  55.274  1.00  0.00     0.332 C
ENDROOT
BRANCH   3   4
HETATM    4  N1  UNL     1       7.884  48.507  55.693  1.00  0.00    -0.029 N
HETATM    5  C4  UNL     1       8.504  47.600  54.754  1.00  0.00     0.469 C
HETATM    6  N2  UNL     1       8.797  46.465  55.655  1.00  0.00    -0.043 N
HETATM    7  C5  UNL     1       8.184  46.919  56.846  1.00  0.00     0.239 C
ATOM      8  H22 UNL     1       8.495  45.549  55.324  1.00  0.00     0.279 HD
ATOM      9  H21 UNL     1       9.781  46.207  55.735  1.00  0.00     0.279 HD
HETATM   10  C6  UNL     1       8.651  48.382  56.912  1.00  0.00     0.275 C
HETATM   11  C7  UNL     1       6.927  47.598  56.349  1.00  0.00     0.275 C
ENDBRANCH   3   4
TORSDOF 1
ENDMDL