MODEL 2
REMARK VINA RESULT: -4.299319836      3.241      5.486
REMARK  3 active torsions:
REMARK  status: ('A' for Active; 'I' for Inactive)
REMARK    1  A    between atoms: C2_2  and  C4_4
REMARK    2  A    between atoms: C5_5  and  C6_6
REMARK    3  A    between atoms: N1_7  and  C7_9
ROOT
HETATM    1  C4  UNL     1       8.407  47.344  56.659  1.00  0.00    -0.097 C
HETATM    2  C5  UNL     1       8.099  47.862  55.617  1.00  0.00    -0.061 C
ENDROOT
BRANCH   2   3
HETATM    3  C6  UNL     1       7.732  48.512  54.364  1.00  0.00     0.155 C
HETATM    4  N1  UNL     1       8.388  49.533  53.986  1.00  0.00    -0.337 N
ATOM      5  H1  UNL     1       9.157  49.885  54.556  1.00  0.00     0.168 HD
BRANCH   4   6
HETATM    6  C7  UNL     1       8.051  50.179  52.775  1.00  0.00     0.353 C
HETATM    7  O1  UNL     1       8.827  50.198  51.801  1.00  0.00    -0.283 OA
ENDBRANCH   4   6
ENDBRANCH   2   3
BRANCH   1   8
HETATM    8  C2  UNL     1       8.780  46.732  57.945  1.00  0.00     0.057 C
HETATM    9  C1  UNL     1       9.659  47.713  58.662  1.00  0.00     0.023 C
HETATM   10  C3  UNL     1       9.547  45.427  57.704  1.00  0.00     0.023 C
ENDBRANCH   1   8
TORSDOF 3
ENDMDL