MODEL 2
REMARK VINA RESULT: -4.294961877      1.180      1.180
REMARK  4 active torsions:
REMARK  status: ('A' for Active; 'I' for Inactive)
REMARK    1  A    between atoms: C2_2  and  C3_3
REMARK    2  A    between atoms: C3_3  and  C4_4
REMARK    3  A    between atoms: C5_5  and  C6_6
REMARK    4  A    between atoms: C7_7  and  C8_8
ROOT
HETATM    1  C6  UNL     1       8.194  48.285  54.622  1.00  0.00    -0.009 C
HETATM    2  C7  UNL     1       8.220  49.062  53.685  1.00  0.00    -0.048 C
ENDROOT
BRANCH   1   3
HETATM    3  C5  UNL     1       8.189  47.389  55.718  1.00  0.00    -0.015 C
HETATM    4  C4  UNL     1       8.204  46.622  56.654  1.00  0.00    -0.092 C
BRANCH   4   5
HETATM    5  C3  UNL     1       8.245  45.704  57.792  1.00  0.00     0.094 C
BRANCH   5   6
HETATM    6  C2  UNL     1       9.666  45.193  57.965  1.00  0.00     0.007 C
HETATM    7  C1  UNL     1      10.476  46.352  58.542  1.00  0.00     0.006 C
ENDBRANCH   5   6
ENDBRANCH   4   5
ENDBRANCH   1   3
BRANCH   2   8
HETATM    8  C8  UNL     1       8.274  49.978  52.579  1.00  0.00     0.147 C
HETATM    9  N1  UNL     1       9.288  49.947  51.817  1.00  0.00    -0.401 N
ATOM     10  H12 UNL     1      10.038  49.280  51.998  1.00  0.00     0.156 HD
ATOM     11  H11 UNL     1       9.326  50.597  51.032  1.00  0.00     0.156 HD
ENDBRANCH   2   8
TORSDOF 4
ENDMDL