MODEL 5
REMARK VINA RESULT: -3.313642257      1.709      3.111
REMARK  1 active torsions:
REMARK  status: ('A' for Active; 'I' for Inactive)
REMARK    1  A    between atoms: C2_2  and  C3_3
ROOT
HETATM    1  C3  UNL     1      10.411  46.074  58.356  1.00  0.00     0.238 C
HETATM    2  C4  UNL     1       9.731  44.845  58.761  1.00  0.00     0.111 C
HETATM    3  C5  UNL     1      10.145  43.814  59.565  1.00  0.00     0.040 C
HETATM    4  C6  UNL     1       8.512  45.672  58.863  1.00  0.00     0.291 C
HETATM    5  N1  UNL     1       9.151  46.168  57.703  1.00  0.00     0.016 N
HETATM    6  C7  UNL     1       8.737  47.066  56.834  1.00  0.00     0.298 C
HETATM    7  N2  UNL     1       9.349  44.786  57.377  1.00  0.00    -0.032 NA
ENDROOT
BRANCH   1   8
HETATM    8  C2  UNL     1      10.768  47.052  59.416  1.00  0.00     0.033 C
HETATM    9  C1  UNL     1      12.223  46.886  59.868  1.00  0.00     0.007 C
ENDBRANCH   1   8
TORSDOF 1
ENDMDL