MODEL 2
REMARK VINA RESULT: -2.859187483      9.311     10.073
REMARK  0 active torsions:
REMARK  status: ('A' for Active; 'I' for Inactive)
ROOT
HETATM    1  C1  UNL     1       3.811  52.082  62.408  1.00  0.00     0.272 C
HETATM    2  N1  UNL     1       2.692  52.745  61.755  1.00  0.00    -0.069 N
HETATM    3  C2  UNL     1       2.950  54.192  61.873  1.00  0.00     0.272 C
HETATM    4  C3  UNL     1       2.575  52.357  60.393  1.00  0.00     0.280 C
HETATM    5  C4  UNL     1       1.409  51.553  60.009  1.00  0.00     0.083 C
HETATM    6  N2  UNL     1       0.700  50.849  60.994  1.00  0.00    -0.399 N
ATOM      7  H2  UNL     1      -0.011  50.165  60.735  1.00  0.00     0.158 HD
HETATM    8  C5  UNL     1       0.990  51.107  62.351  1.00  0.00     0.146 C
HETATM    9  C6  UNL     1       1.453  52.533  62.501  1.00  0.00     0.256 C
ENDROOT
TORSDOF 0
ENDMDL