MODEL 2
REMARK VINA RESULT: -3.317002171      2.880      4.557
REMARK  0 active torsions:
REMARK  status: ('A' for Active; 'I' for Inactive)
ROOT
HETATM    1  C1  UNL     1       6.861  42.882  59.443  1.00  0.00     0.048 C
HETATM    2  C2  UNL     1       6.961  43.009  57.935  1.00  0.00     0.144 C
HETATM    3  N1  UNL     1       8.386  43.341  57.803  1.00  0.00    -0.045 NA
HETATM    4  N2  UNL     1       8.569  44.318  58.761  1.00  0.00     0.036 N
HETATM    5  C3  UNL     1       7.788  43.989  59.901  1.00  0.00     0.264 C
HETATM    6  C4  UNL     1       9.989  44.443  59.076  1.00  0.00     0.290 C
HETATM    7  C5  UNL     1      10.501  45.320  57.967  1.00  0.00     0.264 C
HETATM    8  N3  UNL     1       9.329  45.658  57.143  1.00  0.00    -0.048 N
ATOM      9  H31 UNL     1       9.176  45.076  56.320  1.00  0.00     0.279 HD
ATOM     10  H32 UNL     1       9.389  46.526  56.612  1.00  0.00     0.279 HD
HETATM   11  C6  UNL     1       8.285  45.602  58.180  1.00  0.00     0.490 C
ENDROOT
TORSDOF 0
ENDMDL