MODEL 1
REMARK VINA RESULT: -3.594671819      0.000      0.000
REMARK  0 active torsions:
REMARK  status: ('A' for Active; 'I' for Inactive)
ROOT
HETATM    1  C1  UNL     1       7.728  49.730  55.390  1.00  0.00     0.011 C
HETATM    2  C2  UNL     1       7.620  48.864  54.168  1.00  0.00     0.011 C
HETATM    3  C3  UNL     1       8.394  47.564  54.494  1.00  0.00     0.079 C
HETATM    4  S1  UNL     1       7.659  47.069  56.063  1.00  0.00    -0.144 SA
HETATM    5  C4  UNL     1       6.989  49.101  56.516  1.00  0.00     0.079 C
HETATM    6  C5  UNL     1       9.245  46.937  57.063  1.00  0.00     0.138 A
HETATM    7  N1  UNL     1       8.154  46.402  57.581  1.00  0.00    -0.347 N
ATOM      8  H1  UNL     1       7.807  45.895  58.395  1.00  0.00     0.172 HD
ENDROOT
TORSDOF 0
ENDMDL