MODEL 1
REMARK VINA RESULT: -7.553211688      0.000      0.000
REMARK  5 active torsions:
REMARK  status: ('A' for Active; 'I' for Inactive)
REMARK    1  A    between atoms: C6_6  and  C7_7
REMARK       I    between atoms: C7_7  and  N1_9
REMARK    2  A    between atoms: N1_9  and  C9_11
REMARK    3  A    between atoms: C9_11  and  C10_12
REMARK       I    between atoms: C10_12  and  N2_14
REMARK    4  A    between atoms: C21_26  and  O4_28
REMARK    5  A    between atoms: O4_28  and  C23_29
ROOT
HETATM    1  C1  UNL     1      12.580  46.867  65.412  1.00  0.00     0.015 C
HETATM    2  C2  UNL     1      12.899  47.634  64.390  1.00  0.00    -0.072 C
HETATM    3  C3  UNL     1      12.208  47.475  63.056  1.00  0.00     0.044 C
HETATM    4  C4  UNL     1      12.088  48.730  62.281  1.00  0.00    -0.024 C
HETATM    5  C5  UNL     1      10.879  49.494  62.849  1.00  0.00     0.016 C
HETATM    6  C6  UNL     1      11.839  48.554  60.836  1.00  0.00     0.087 C
HETATM    7  C15 UNL     1      13.243  48.362  60.300  1.00  0.00     0.015 C
HETATM    8  C16 UNL     1      13.852  49.658  60.863  1.00  0.00     0.007 C
HETATM    9  C17 UNL     1      13.315  49.623  62.302  1.00  0.00     0.001 C
HETATM   10  C18 UNL     1      14.386  48.991  63.111  1.00  0.00     0.015 C
HETATM   11  C19 UNL     1      15.590  49.824  63.372  1.00  0.00     0.051 C
HETATM   12  C20 UNL     1      16.175  49.167  64.568  1.00  0.00     0.019 C
HETATM   13  C21 UNL     1      17.401  49.431  65.057  1.00  0.00     0.062 C
HETATM   14  C22 UNL     1      18.228  50.434  64.371  1.00  0.00     0.077 C
HETATM   15  C25 UNL     1      15.209  48.210  65.111  1.00  0.00     0.171 C
HETATM   16  O6  UNL     1      15.488  47.271  65.880  1.00  0.00    -0.291 OA
HETATM   17  C26 UNL     1      13.924  48.653  64.522  1.00  0.00     0.048 C
HETATM   18  C27 UNL     1      13.487  49.879  65.275  1.00  0.00     0.029 C
ENDROOT
BRANCH   6  19
HETATM   19  C7  UNL     1      10.887  47.563  60.398  1.00  0.00     0.224 C
HETATM   20  O1  UNL     1      11.139  46.312  60.320  1.00  0.00    -0.273 OA
HETATM   21  N1  UNL     1       9.567  47.915  60.013  1.00  0.00    -0.347 N
HETATM   22  C8  UNL     1       9.103  49.287  60.053  1.00  0.00     0.153 C
BRANCH  21  23
HETATM   23  C9  UNL     1       8.590  46.921  59.548  1.00  0.00     0.228 C
BRANCH  23  24
HETATM   24  C10 UNL     1       8.666  46.812  58.073  1.00  0.00     0.237 C
HETATM   25  O2  UNL     1       9.436  45.969  57.556  1.00  0.00    -0.272 OA
HETATM   26  N2  UNL     1       7.896  47.629  57.206  1.00  0.00    -0.347 N
HETATM   27  C11 UNL     1       6.969  48.640  57.726  1.00  0.00     0.152 C
HETATM   28  C14 UNL     1       7.983  47.515  55.774  1.00  0.00     0.152 C
HETATM   29  C12 UNL     1       7.345  49.934  57.003  1.00  0.00     0.187 C
HETATM   30  O3  UNL     1       7.277  49.817  55.643  1.00  0.00    -0.388 OA
HETATM   31  C13 UNL     1       8.079  48.859  55.094  1.00  0.00     0.187 C
ENDBRANCH  23  24
ENDBRANCH  21  23
ENDBRANCH   6  19
BRANCH  13  32
HETATM   32  O4  UNL     1      17.830  48.755  66.173  1.00  0.00    -0.283 OA
BRANCH  32  33
HETATM   33  C23 UNL     1      18.862  47.872  66.180  1.00  0.00     0.259 C
HETATM   34  C24 UNL     1      20.262  48.301  66.527  1.00  0.00     0.126 C
HETATM   35  O5  UNL     1      18.687  46.672  65.900  1.00  0.00    -0.265 OA
ENDBRANCH  32  33
ENDBRANCH  13  32
TORSDOF 5
ENDMDL