MODEL 5
REMARK VINA RESULT: -5.488629735      3.059      5.275
REMARK  10 active torsions:
REMARK  status: ('A' for Active; 'I' for Inactive)
REMARK    1  A    between atoms: C2_2  and  C3_3
REMARK    2  A    between atoms: C6_7  and  C7_8
REMARK    3  A    between atoms: N1_14  and  C11_15
REMARK    4  A    between atoms: C11_15  and  O2_16
REMARK    5  A    between atoms: C11_15  and  N2_18
REMARK    6  A    between atoms: N2_18  and  C13_20
REMARK    7  A    between atoms: C13_20  and  O3_21
REMARK    8  A    between atoms: C13_20  and  N3_23
REMARK    9  A    between atoms: C16_26  and  C17_27
REMARK   10  A    between atoms: C17_27  and  C18_28
REMARK       I    between atoms: C18_28  and  N4_30
ROOT
HETATM    1  C3  UNL     1       8.797  46.715  59.416  1.00  0.00     0.078 C
HETATM    2  C4  UNL     1       9.773  46.487  58.282  1.00  0.00     0.048 C
HETATM    3  O1  UNL     1       8.297  45.502  59.825  1.00  0.00    -0.376 OA
HETATM    4  C5  UNL     1       7.529  45.614  60.951  1.00  0.00     0.199 C
HETATM    5  C6  UNL     1       6.398  46.552  60.789  1.00  0.00     0.152 C
HETATM    6  N1  UNL     1       6.721  47.798  60.062  1.00  0.00    -0.328 N
HETATM    7  C16 UNL     1       7.802  47.783  59.151  1.00  0.00     0.131 C
ENDROOT
BRANCH   6   8
HETATM    8  C11 UNL     1       5.823  48.890  60.217  1.00  0.00     0.225 C
BRANCH   8   9
HETATM    9  O2  UNL     1       4.800  48.818  59.395  1.00  0.00    -0.332 OA
ATOM     10  H2  UNL     1       4.009  48.515  59.826  1.00  0.00     0.221 HD
ENDBRANCH   8   9
BRANCH   8  11
HETATM   11  N2  UNL     1       5.785  50.015  61.044  1.00  0.00    -0.283 N
HETATM   12  C12 UNL     1       4.607  50.420  61.798  1.00  0.00     0.163 C
BRANCH  11  13
HETATM   13  C13 UNL     1       6.974  50.739  61.248  1.00  0.00     0.223 C
BRANCH  13  14
HETATM   14  O3  UNL     1       7.523  51.217  60.145  1.00  0.00    -0.332 OA
ATOM     15  H3  UNL     1       8.392  51.582  60.262  1.00  0.00     0.221 HD
ENDBRANCH  13  14
BRANCH  13  16
HETATM   16  N3  UNL     1       7.667  51.029  62.406  1.00  0.00    -0.356 N
HETATM   17  C14 UNL     1       8.906  50.218  62.719  1.00  0.00     0.152 C
HETATM   18  C15 UNL     1       7.348  51.970  63.432  1.00  0.00     0.152 C
ENDBRANCH  13  16
ENDBRANCH  11  13
ENDBRANCH   8  11
ENDBRANCH   6   8
BRANCH   5  19
HETATM   19  C7  UNL     1       5.883  46.903  62.169  1.00  0.00     0.009 A
HETATM   20  C8  UNL     1       6.553  47.391  63.245  1.00  0.00     0.018 A
HETATM   21  C9  UNL     1       5.845  47.611  64.364  1.00  0.00     0.028 A
HETATM   22  C10 UNL     1       4.505  47.326  64.329  1.00  0.00     0.051 A
HETATM   23 BR1  UNL     1       3.209  47.519  65.737  1.00  0.00    -0.043 Br
HETATM   24  S1  UNL     1       4.292  46.756  62.719  1.00  0.00    -0.085 SA
ENDBRANCH   5  19
BRANCH   7  25
HETATM   25  C17 UNL     1       7.346  47.864  57.723  1.00  0.00     0.131 C
BRANCH  25  26
HETATM   26  C18 UNL     1       7.382  49.100  56.999  1.00  0.00     0.221 C
HETATM   27  O4  UNL     1       7.046  50.203  57.426  1.00  0.00    -0.273 OA
HETATM   28  N4  UNL     1       7.846  49.072  55.653  1.00  0.00    -0.361 N
HETATM   29  C19 UNL     1       8.273  47.843  55.020  1.00  0.00     0.152 C
HETATM   30  C20 UNL     1       7.898  50.298  54.884  1.00  0.00     0.152 C
ENDBRANCH  25  26
ENDBRANCH   7  25
BRANCH   1  31
HETATM   31  C2  UNL     1       9.666  47.197  60.592  1.00  0.00     0.035 C
HETATM   32  C1  UNL     1      10.538  48.301  60.059  1.00  0.00     0.008 C
ENDBRANCH   1  31
TORSDOF 10
ENDMDL