MODEL 4
REMARK VINA RESULT: -7.011986459      3.851      7.022
REMARK  5 active torsions:
REMARK  status: ('A' for Active; 'I' for Inactive)
REMARK    1  A    between atoms: N1_2  and  C3_4
REMARK    2  A    between atoms: N2_9  and  O1_10
REMARK    3  A    between atoms: N3_19  and  C15_20
REMARK    4  A    between atoms: C15_20  and  C16_21
REMARK    5  A    between atoms: N4_28  and  C21_29
ROOT
HETATM    1  C3  UNL     1       6.055  47.473  60.945  1.00  0.00     0.118 A
HETATM    2  C4  UNL     1       6.690  46.323  60.561  1.00  0.00     0.038 A
HETATM    3  C5  UNL     1       6.643  45.200  61.394  1.00  0.00     0.019 A
HETATM    4  C6  UNL     1       7.269  44.034  61.037  1.00  0.00     0.021 A
HETATM    5  C7  UNL     1       7.942  43.988  59.845  1.00  0.00     0.123 A
HETATM    6  N2  UNL     1       7.993  45.088  59.019  1.00  0.00    -0.234 N
HETATM    7  C8  UNL     1       7.391  46.218  59.357  1.00  0.00     0.088 A
HETATM    8  C9  UNL     1       7.438  47.330  58.528  1.00  0.00     0.021 A
HETATM    9  C10 UNL     1       8.117  47.296  57.342  1.00  0.00     0.016 A
HETATM   10  C11 UNL     1       8.155  48.441  56.535  1.00  0.00     0.001 A
HETATM   11  C12 UNL     1       7.509  49.577  56.949  1.00  0.00     0.002 A
HETATM   12  C13 UNL     1       6.822  49.624  58.138  1.00  0.00     0.030 A
HETATM   13  C14 UNL     1       6.772  48.503  58.954  1.00  0.00     0.049 A
HETATM   14  N3  UNL     1       6.111  48.543  60.129  1.00  0.00    -0.326 N
ENDROOT
BRANCH  14  15
HETATM   15  C15 UNL     1       5.474  49.748  60.558  1.00  0.00     0.188 C
BRANCH  15  16
HETATM   16  C16 UNL     1       6.195  50.582  61.525  1.00  0.00     0.039 A
HETATM   17  C17 UNL     1       7.537  50.576  61.633  1.00  0.00     0.083 A
HETATM   18  C18 UNL     1       8.214  51.352  62.578  1.00  0.00     0.192 A
HETATM   19  O2  UNL     1       9.462  51.330  62.658  1.00  0.00    -0.287 OA
HETATM   20  C19 UNL     1       7.467  52.137  63.413  1.00  0.00     0.076 A
HETATM   21 BR1  UNL     1       8.383  53.211  64.717  1.00  0.00    -0.045 Br
HETATM   22  C20 UNL     1       6.114  52.128  63.285  1.00  0.00     0.121 A
HETATM   23  N4  UNL     1       5.481  51.379  62.376  1.00  0.00    -0.317 N
BRANCH  23  24
HETATM   24  C21 UNL     1       4.038  51.434  62.320  1.00  0.00     0.080 A
HETATM   25  C22 UNL     1       3.152  50.640  62.992  1.00  0.00     0.038 A
HETATM   26  C23 UNL     1       1.849  50.860  62.798  1.00  0.00     0.010 A
HETATM   27  C24 UNL     1       1.499  51.868  61.938  1.00  0.00     0.052 A
HETATM   28  S1  UNL     1       3.013  52.470  61.434  1.00  0.00    -0.084 SA
ENDBRANCH  23  24
ENDBRANCH  15  16
ENDBRANCH  14  15
BRANCH   1  29
HETATM   29  N1  UNL     1       5.364  47.480  62.197  1.00  0.00    -0.375 N
HETATM   30  C1  UNL     1       3.935  47.225  62.217  1.00  0.00     0.150 C
HETATM   31  C2  UNL     1       6.007  47.736  63.467  1.00  0.00     0.150 C
ENDBRANCH   1  29
BRANCH   6  32
HETATM   32  O1  UNL     1       8.681  44.912  57.882  1.00  0.00    -0.283 OA
ATOM     33  H1  UNL     1       8.349  45.393  57.133  1.00  0.00     0.245 HD
ENDBRANCH   6  32
TORSDOF 5
ENDMDL