MODEL 1
REMARK VINA RESULT: -6.545168666      0.000      0.000
REMARK  6 active torsions:
REMARK  status: ('A' for Active; 'I' for Inactive)
REMARK    1  A    between atoms: C2_2  and  N1_4
REMARK       I    between atoms: N1_4  and  C4_5
REMARK    2  A    between atoms: N1_4  and  C25_34
REMARK    3  A    between atoms: C4_5  and  C5_7
REMARK       I    between atoms: N2_9  and  C7_10
REMARK    4  A    between atoms: C7_10  and  C8_12
REMARK       I    between atoms: N3_16  and  C12_17
REMARK    5  A    between atoms: C12_17  and  O4_19
REMARK    6  A    between atoms: O4_19  and  C13_20
ROOT
HETATM    1  C8  UNL     1       8.195  49.113  58.414  1.00  0.00     0.181 C
HETATM    2  C9  UNL     1       7.487  50.268  57.689  1.00  0.00     0.037 C
HETATM    3  C10 UNL     1       7.614  49.892  56.229  1.00  0.00     0.022 C
HETATM    4  C11 UNL     1       8.273  48.531  56.219  1.00  0.00     0.129 C
HETATM    5  N3  UNL     1       7.846  48.025  57.561  1.00  0.00    -0.314 N
HETATM    6  C12 UNL     1       7.293  46.752  57.681  1.00  0.00     0.365 C
HETATM    7  O3  UNL     1       7.113  46.048  56.631  1.00  0.00    -0.238 OA
ENDROOT
BRANCH   1   8
HETATM    8  C7  UNL     1       7.812  49.069  59.814  1.00  0.00     0.242 C
HETATM    9  N2  UNL     1       8.850  48.658  60.741  1.00  0.00    -0.349 N
HETATM   10  C6  UNL     1      10.212  48.265  60.489  1.00  0.00     0.140 C
HETATM   11  C21 UNL     1       8.730  48.557  62.196  1.00  0.00     0.135 C
HETATM   12  C5  UNL     1      11.006  49.027  61.578  1.00  0.00     0.105 C
HETATM   13  C22 UNL     1       9.988  49.328  62.625  1.00  0.00    -0.018 C
HETATM   14  C23 UNL     1      10.363  49.013  64.029  1.00  0.00     0.017 C
HETATM   15  C24 UNL     1       9.544  50.801  62.571  1.00  0.00     0.017 C
HETATM   16  O2  UNL     1       6.681  49.355  60.231  1.00  0.00    -0.271 OA
BRANCH  12  17
HETATM   17  C4  UNL     1      12.148  48.219  62.021  1.00  0.00     0.227 C
HETATM   18  N1  UNL     1      13.392  48.699  62.477  1.00  0.00    -0.344 N
HETATM   19  O1  UNL     1      11.965  46.947  61.976  1.00  0.00    -0.273 OA
BRANCH  18  20
HETATM   20  C2  UNL     1      14.373  47.677  62.890  1.00  0.00     0.079 C
HETATM   21  C1  UNL     1      14.133  47.289  64.340  1.00  0.00     0.032 C
HETATM   22  C3  UNL     1      15.773  48.180  62.770  1.00  0.00     0.032 C
ENDBRANCH  18  20
BRANCH  18  23
HETATM   23  C25 UNL     1      13.803  50.072  62.564  1.00  0.00     0.079 C
HETATM   24  C26 UNL     1      13.229  50.843  63.718  1.00  0.00     0.032 C
HETATM   25  C27 UNL     1      13.580  50.843  61.300  1.00  0.00     0.032 C
ENDBRANCH  18  23
ENDBRANCH  12  17
ENDBRANCH   1   8
BRANCH   6  26
HETATM   26  O4  UNL     1       6.877  46.061  58.774  1.00  0.00    -0.272 OA
BRANCH  26  27
HETATM   27  C13 UNL     1       7.626  45.496  59.783  1.00  0.00     0.278 C
HETATM   28  O5  UNL     1       8.945  45.186  59.375  1.00  0.00    -0.355 OA
HETATM   29  C14 UNL     1       9.568  44.444  60.361  1.00  0.00     0.128 C
HETATM   30  C15 UNL     1       9.172  42.993  60.145  1.00  0.00     0.033 C
HETATM   31  C20 UNL     1       9.115  44.808  61.753  1.00  0.00     0.075 C
HETATM   32  C16 UNL     1       7.659  42.991  59.932  1.00  0.00     0.015 C
HETATM   33  C17 UNL     1       7.104  44.311  60.485  1.00  0.00     0.081 C
HETATM   34  C18 UNL     1       7.680  44.338  61.916  1.00  0.00     0.110 C
HETATM   35  C19 UNL     1       6.970  45.390  62.743  1.00  0.00     0.052 C
HETATM   36  F1  UNL     1       7.606  43.095  62.493  1.00  0.00    -0.243 F
ENDBRANCH  26  27
ENDBRANCH   6  26
TORSDOF 6
ENDMDL