MODEL 3
REMARK VINA RESULT: -6.038142449      1.710      2.218
REMARK  6 active torsions:
REMARK  status: ('A' for Active; 'I' for Inactive)
REMARK    1  A    between atoms: C2_2  and  C3_3
REMARK    2  A    between atoms: C9_9  and  C10_10
REMARK    3  A    between atoms: N1_17  and  C15_18
REMARK    4  A    between atoms: C15_18  and  C16_19
REMARK    5  A    between atoms: C16_19  and  O3_21
REMARK    6  A    between atoms: O3_21  and  C17_22
ROOT
HETATM    1  C3  UNL     1      13.084  46.587  64.036  1.00  0.00     0.013 C
HETATM    2  C4  UNL     1      14.377  45.805  63.903  1.00  0.00     0.013 C
HETATM    3  C5  UNL     1      15.373  46.418  64.888  1.00  0.00    -0.018 C
HETATM    4  C6  UNL     1      16.792  46.013  64.548  1.00  0.00     0.010 C
HETATM    5  C7  UNL     1      15.229  47.953  64.873  1.00  0.00     0.010 C
HETATM    6  C8  UNL     1      14.706  48.288  63.559  1.00  0.00     0.000 C
HETATM    7  C9  UNL     1      14.639  49.688  63.116  1.00  0.00     0.032 C
HETATM    8  C12 UNL     1      13.652  49.596  61.946  1.00  0.00     0.131 C
HETATM    9  C13 UNL     1      13.144  48.129  61.978  1.00  0.00     0.102 C
HETATM   10  C14 UNL     1      11.933  47.952  61.232  1.00  0.00     0.227 C
HETATM   11  O1  UNL     1      11.794  46.951  60.486  1.00  0.00    -0.273 OA
HETATM   12  N1  UNL     1      10.839  48.854  61.271  1.00  0.00    -0.329 N
HETATM   13  C21 UNL     1      10.795  49.878  62.302  1.00  0.00     0.267 C
HETATM   14  S1  UNL     1      12.352  50.722  62.278  1.00  0.00     0.166 S
HETATM   15  O4  UNL     1      12.557  51.468  63.590  1.00  0.00    -0.226 OA
HETATM   16  O5  UNL     1      12.352  51.790  61.212  1.00  0.00    -0.226 OA
HETATM   17  C22 UNL     1      13.211  47.898  63.416  1.00  0.00     0.012 C
ENDROOT
BRANCH  12  18
HETATM   18  C15 UNL     1       9.749  48.789  60.299  1.00  0.00     0.238 C
BRANCH  18  19
HETATM   19  C16 UNL     1       8.661  47.932  60.750  1.00  0.00     0.277 C
HETATM   20  O2  UNL     1       7.807  48.428  61.536  1.00  0.00    -0.263 OA
BRANCH  19  21
HETATM   21  O3  UNL     1       8.477  46.609  60.393  1.00  0.00    -0.310 OA
BRANCH  21  22
HETATM   22  C17 UNL     1       8.036  46.219  59.106  1.00  0.00     0.060 C
HETATM   23  C18 UNL     1       7.213  44.941  59.183  1.00  0.00     0.045 C
HETATM   24  C19 UNL     1       9.260  45.915  58.269  1.00  0.00     0.045 C
HETATM   25  C20 UNL     1       7.203  47.270  58.431  1.00  0.00     0.045 C
ENDBRANCH  21  22
ENDBRANCH  19  21
ENDBRANCH  18  19
ENDBRANCH  12  18
BRANCH   7  26
HETATM   26  C10 UNL     1      15.970  50.063  62.520  1.00  0.00    -0.013 C
HETATM   27  C11 UNL     1      16.127  50.039  61.220  1.00  0.00     0.052 C
HETATM   28 BR1  UNL     1      17.815  50.517  60.473  1.00  0.00    -0.064 Br
ENDBRANCH   7  26
BRANCH   1  29
HETATM   29  C2  UNL     1      11.889  45.792  63.765  1.00  0.00    -0.032 C
HETATM   30  C1  UNL     1      11.898  44.479  63.840  1.00  0.00     0.007 C
ENDBRANCH   1  29
TORSDOF 6
ENDMDL