MODEL 5
REMARK VINA RESULT: -8.524898002      1.108      1.287
REMARK  4 active torsions:
REMARK  status: ('A' for Active; 'I' for Inactive)
REMARK    1  A    between atoms: C2_2  and  C4_5
REMARK    2  A    between atoms: N3_10  and  C8_11
REMARK    3  A    between atoms: C19_23  and  C20_24
REMARK       I    between atoms: N5_27  and  C23_28
REMARK    4  A    between atoms: C23_28  and  C24_30
ROOT
HETATM    1  C1  UNL     1       1.497  50.911  64.382  1.00  0.00     0.027 C
HETATM    2  C2  UNL     1       1.058  50.132  63.150  1.00  0.00     0.113 C
HETATM    3  C3  UNL     1       1.171  51.054  62.019  1.00  0.00     0.065 C
HETATM    4  N1  UNL     1       1.249  51.788  61.121  1.00  0.00    -0.197 NA
ENDROOT
BRANCH   2   5
HETATM    5  C4  UNL     1       2.040  49.010  62.946  1.00  0.00     0.092 C
HETATM    6  C5  UNL     1       1.535  48.114  61.904  1.00  0.00     0.072 C
HETATM    7  N2  UNL     1       1.139  47.414  61.075  1.00  0.00    -0.196 NA
HETATM    8  C6  UNL     1       2.298  48.225  64.213  1.00  0.00     0.058 C
HETATM    9  C7  UNL     1       3.822  48.250  64.376  1.00  0.00     0.275 C
HETATM   10  N3  UNL     1       4.251  48.489  63.040  1.00  0.00     0.095 N
HETATM   11  C29 UNL     1       3.425  49.536  62.572  1.00  0.00     0.298 C
BRANCH  10  12
HETATM   12  C8  UNL     1       5.655  48.645  62.868  1.00  0.00     0.223 C
HETATM   13  C9  UNL     1       6.233  47.246  62.804  1.00  0.00     0.036 C
HETATM   14  C10 UNL     1       7.724  47.310  62.509  1.00  0.00     0.014 C
HETATM   15  C11 UNL     1       7.851  47.942  61.167  1.00  0.00    -0.007 C
HETATM   16  C12 UNL     1       7.432  49.380  61.226  1.00  0.00     0.014 C
HETATM   17  C14 UNL     1       6.795  47.257  60.269  1.00  0.00     0.047 C
HETATM   18  C19 UNL     1       9.033  47.624  60.368  1.00  0.00     0.237 C
HETATM   19  C13 UNL     1       6.052  49.545  61.756  1.00  0.00     0.036 C
HETATM   20  C15 UNL     1       7.350  47.572  58.881  1.00  0.00     0.224 C
HETATM   21  C16 UNL     1       7.571  46.267  58.172  1.00  0.00     0.037 C
HETATM   22  N4  UNL     1       8.653  48.182  59.074  1.00  0.00     0.099 N
HETATM   23  C17 UNL     1       9.033  46.227  57.794  1.00  0.00     0.032 C
HETATM   24  C18 UNL     1       9.435  47.672  57.993  1.00  0.00     0.273 C
BRANCH  18  25
HETATM   25  C20 UNL     1      10.382  47.875  60.784  1.00  0.00     0.039 C
HETATM   26  C21 UNL     1      10.980  46.908  61.777  1.00  0.00     0.028 C
HETATM   27  C22 UNL     1      12.397  47.502  61.858  1.00  0.00     0.126 C
HETATM   28  N5  UNL     1      12.215  48.932  61.565  1.00  0.00    -0.351 N
HETATM   29  C23 UNL     1      13.263  49.847  61.460  1.00  0.00     0.224 C
HETATM   30  C28 UNL     1      10.765  49.171  61.411  1.00  0.00     0.132 C
HETATM   31  O1  UNL     1      13.009  51.049  61.206  1.00  0.00    -0.273 OA
BRANCH  29  32
HETATM   32  C24 UNL     1      14.678  49.452  61.638  1.00  0.00     0.083 C
HETATM   33  C25 UNL     1      15.623  50.557  62.030  1.00  0.00     0.051 C
HETATM   34  C26 UNL     1      16.521  50.177  60.875  1.00  0.00     0.171 C
HETATM   35  F1  UNL     1      16.807  51.201  59.995  1.00  0.00    -0.249 F
HETATM   36  C27 UNL     1      15.446  49.234  60.356  1.00  0.00     0.051 C
ENDBRANCH  29  32
ENDBRANCH  18  25
ENDBRANCH  10  12
ENDBRANCH   2   5
TORSDOF 4
ENDMDL