MODEL 3
REMARK VINA RESULT: -7.916191828      1.707      2.294
REMARK  6 active torsions:
REMARK  status: ('A' for Active; 'I' for Inactive)
REMARK    1  A    between atoms: C3_3  and  C4_4
REMARK    2  A    between atoms: C8_10  and  C9_11
REMARK    3  A    between atoms: C12_14  and  C13_15
REMARK    4  A    between atoms: C13_15  and  C14_17
REMARK    5  A    between atoms: C14_17  and  N2_19
REMARK    6  A    between atoms: N4_31  and  O3_32
ROOT
HETATM    1  C9  UNL     1      15.984  49.111  62.031  1.00  0.00     0.038 C
HETATM    2  C10 UNL     1      15.207  49.837  63.098  1.00  0.00     0.011 C
HETATM    3  C11 UNL     1      14.103  50.580  62.399  1.00  0.00     0.013 C
HETATM    4  C12 UNL     1      13.976  49.980  61.043  1.00  0.00     0.059 C
HETATM    5  C22 UNL     1      15.116  48.998  60.843  1.00  0.00     0.023 C
ENDROOT
BRANCH   1   6
HETATM    6  C8  UNL     1      17.259  49.820  61.801  1.00  0.00     0.031 A
HETATM    7  N1  UNL     1      18.031  50.102  62.853  1.00  0.00    -0.359 N
HETATM    8  C3  UNL     1      19.232  50.755  62.726  1.00  0.00     0.042 A
ATOM      9  H1  UNL     1      17.719  49.822  63.783  1.00  0.00     0.165 HD
HETATM   10  C2  UNL     1      19.670  51.142  61.490  1.00  0.00     0.059 A
HETATM   11  C1  UNL     1      20.926  51.835  61.274  1.00  0.00     0.073 C
HETATM   12  N4  UNL     1      18.855  50.838  60.436  1.00  0.00    -0.237 N
HETATM   13  C23 UNL     1      17.695  50.205  60.565  1.00  0.00     0.148 A
BRANCH   8  14
HETATM   14  C4  UNL     1      20.062  51.048  63.916  1.00  0.00    -0.007 C
HETATM   15  C5  UNL     1      19.165  50.798  65.147  1.00  0.00     0.021 C
HETATM   16  C6  UNL     1      21.220  50.088  64.092  1.00  0.00     0.021 C
HETATM   17  C7  UNL     1      20.473  52.495  64.031  1.00  0.00     0.021 C
ENDBRANCH   8  14
BRANCH  12  18
HETATM   18  O3  UNL     1      19.262  51.211  59.176  1.00  0.00    -0.283 OA
ATOM     19  H3  UNL     1      18.711  50.972  58.441  1.00  0.00     0.245 HD
ENDBRANCH  12  18
ENDBRANCH   1   6
BRANCH   4  20
HETATM   20  C13 UNL     1      12.678  49.409  60.686  1.00  0.00     0.164 C
HETATM   21  O1  UNL     1      11.867  50.129  60.075  1.00  0.00    -0.294 OA
BRANCH  20  22
HETATM   22  C14 UNL     1      12.177  48.052  60.958  1.00  0.00     0.230 C
HETATM   23 BR1  UNL     1      12.604  47.300  62.653  1.00  0.00    -0.060 Br
BRANCH  22  24
HETATM   24  N2  UNL     1      10.754  47.939  60.718  1.00  0.00    -0.323 N
HETATM   25  C15 UNL     1      10.318  47.072  59.654  1.00  0.00     0.254 C
HETATM   26  O2  UNL     1      11.067  46.217  59.123  1.00  0.00    -0.271 OA
HETATM   27  C16 UNL     1       8.915  47.232  59.204  1.00  0.00     0.309 C
HETATM   28  C17 UNL     1       8.532  46.070  58.292  1.00  0.00     0.053 C
HETATM   29  N3  UNL     1       7.979  47.231  60.296  1.00  0.00     0.099 N
HETATM   30  C18 UNL     1       6.820  48.019  60.001  1.00  0.00     0.311 C
HETATM   31  C19 UNL     1       8.550  47.596  61.551  1.00  0.00     0.297 C
HETATM   32  C20 UNL     1       9.713  48.592  61.415  1.00  0.00     0.113 C
HETATM   33  C21 UNL     1       9.979  49.163  62.746  1.00  0.00     0.034 C
ENDBRANCH  22  24
ENDBRANCH  20  22
ENDBRANCH   4  20
TORSDOF 6
ENDMDL