MODEL 5
REMARK VINA RESULT: -7.372700297      3.597      5.942
REMARK  6 active torsions:
REMARK  status: ('A' for Active; 'I' for Inactive)
REMARK    1  A    between atoms: C2_2  and  C4_4
REMARK       I    between atoms: N2_10  and  C8_11
REMARK    2  A    between atoms: C8_11  and  O3_13
REMARK    3  A    between atoms: O3_13  and  C9_14
REMARK    4  A    between atoms: C9_14  and  C10_15
REMARK    5  A    between atoms: C20_27  and  C21_28
REMARK    6  A    between atoms: C21_28  and  O5_29
ROOT
HETATM    1  C4  UNL     1       7.760  47.319  61.690  1.00  0.00     0.036 C
HETATM    2  C5  UNL     1       8.462  46.185  61.086  1.00  0.00     0.359 C
HETATM    3  O1  UNL     1       8.002  45.089  61.523  1.00  0.00    -0.259 OA
HETATM    4  N1  UNL     1       9.492  45.929  60.173  1.00  0.00     0.079 N
HETATM    5  C6  UNL     1       9.751  44.486  60.143  1.00  0.00     0.296 C
HETATM    6  C7  UNL     1      10.685  46.601  60.729  1.00  0.00     0.387 C
HETATM    7  N2  UNL     1      10.553  48.033  60.705  1.00  0.00    -0.293 N
HETATM    8  C8  UNL     1      11.804  48.687  60.830  1.00  0.00     0.365 C
HETATM    9  O2  UNL     1      11.820  49.941  60.822  1.00  0.00    -0.238 OA
HETATM   10  C16 UNL     1       9.417  48.895  60.575  1.00  0.00     0.130 C
HETATM   11  C17 UNL     1       8.916  48.807  59.154  1.00  0.00     0.024 C
HETATM   12  C18 UNL     1       8.877  47.705  58.425  1.00  0.00     0.085 C
HETATM   13 BR1  UNL     1       8.194  47.927  56.675  1.00  0.00    -0.045 Br
HETATM   14  C19 UNL     1       9.299  46.385  58.848  1.00  0.00     0.368 C
HETATM   15  O4  UNL     1       9.508  45.578  57.880  1.00  0.00    -0.258 OA
HETATM   16  C20 UNL     1       8.319  48.674  61.580  1.00  0.00     0.108 C
ENDROOT
BRANCH   8  17
HETATM   17  O3  UNL     1      13.000  48.018  60.959  1.00  0.00    -0.299 OA
BRANCH  17  18
HETATM   18  C9  UNL     1      13.896  48.189  62.025  1.00  0.00     0.219 C
BRANCH  18  19
HETATM   19  C10 UNL     1      15.098  48.975  61.640  1.00  0.00    -0.034 A
HETATM   20  C11 UNL     1      15.919  49.515  62.613  1.00  0.00     0.009 A
HETATM   21  C12 UNL     1      17.042  50.262  62.347  1.00  0.00     0.001 A
HETATM   22  C13 UNL     1      17.376  50.489  61.031  1.00  0.00     0.000 A
HETATM   23  C14 UNL     1      16.567  49.959  60.024  1.00  0.00     0.001 A
HETATM   24  C15 UNL     1      15.448  49.214  60.327  1.00  0.00     0.009 A
ENDBRANCH  18  19
ENDBRANCH  17  18
ENDBRANCH   8  17
BRANCH  16  25
HETATM   25  C21 UNL     1       8.926  49.139  62.883  1.00  0.00     0.056 C
HETATM   26  C22 UNL     1       8.902  50.351  63.352  1.00  0.00    -0.058 C
HETATM   27  C23 UNL     1       8.244  51.452  62.610  1.00  0.00     0.045 C
HETATM   28  C24 UNL     1       9.562  50.615  64.674  1.00  0.00     0.045 C
BRANCH  25  29
HETATM   29  O5  UNL     1       9.574  48.161  63.652  1.00  0.00    -0.364 OA
ATOM     30  H5  UNL     1      10.446  47.914  63.371  1.00  0.00     0.217 HD
ENDBRANCH  25  29
ENDBRANCH  16  25
BRANCH   1  31
HETATM   31  C2  UNL     1       6.308  47.157  61.485  1.00  0.00    -0.059 C
HETATM   32  C1  UNL     1       5.744  47.667  60.422  1.00  0.00     0.019 C
HETATM   33  C3  UNL     1       5.410  46.417  62.420  1.00  0.00     0.048 C
ENDBRANCH   1  31
TORSDOF 6
ENDMDL