MODEL 1
REMARK VINA RESULT: -6.990877350      0.000      0.000
REMARK  6 active torsions:
REMARK  status: ('A' for Active; 'I' for Inactive)
REMARK    1  A    between atoms: C3_3  and  C4_4
REMARK    2  A    between atoms: C4_4  and  O2_6
REMARK    3  A    between atoms: O2_6  and  C5_7
REMARK    4  A    between atoms: C12_16  and  C13_17
REMARK    5  A    between atoms: C13_17  and  C14_18
REMARK    6  A    between atoms: C20_25  and  C21_26
ROOT
HETATM    1  C1  UNL     1       9.434  47.400  58.314  1.00  0.00     0.069 C
HETATM    2  C2  UNL     1       9.327  48.191  59.565  1.00  0.00     0.024 A
HETATM    3  C3  UNL     1       8.255  48.912  59.799  1.00  0.00     0.074 A
HETATM    4  C9  UNL     1       8.254  49.665  61.048  1.00  0.00     0.012 A
HETATM    5  C10 UNL     1       7.269  50.458  61.569  1.00  0.00     0.104 A
HETATM    6  N1  UNL     1       7.662  50.933  62.774  1.00  0.00    -0.359 N
HETATM    7  C11 UNL     1       6.850  51.811  63.561  1.00  0.00     0.156 C
HETATM    8  C12 UNL     1       8.906  50.452  63.051  1.00  0.00     0.049 A
HETATM    9  C19 UNL     1       9.314  49.655  61.971  1.00  0.00     0.027 A
HETATM   10  C20 UNL     1      10.390  48.925  61.701  1.00  0.00     0.029 A
HETATM   11  N2  UNL     1      10.427  48.156  60.487  1.00  0.00    -0.356 N
HETATM   12  C26 UNL     1      11.480  47.176  60.181  1.00  0.00     0.156 C
ENDROOT
BRANCH   3  13
HETATM   13  C4  UNL     1       7.145  48.961  58.858  1.00  0.00     0.301 C
HETATM   14  O1  UNL     1       6.181  48.158  58.871  1.00  0.00    -0.259 OA
BRANCH  13  15
HETATM   15  O2  UNL     1       7.012  49.902  57.832  1.00  0.00    -0.273 OA
BRANCH  15  16
HETATM   16  C5  UNL     1       7.342  49.654  56.508  1.00  0.00     0.097 A
HETATM   17  C6  UNL     1       7.633  50.324  55.409  1.00  0.00     0.045 A
HETATM   18 BR1  UNL     1       7.769  52.172  55.028  1.00  0.00    -0.048 Br
HETATM   19  C7  UNL     1       7.802  49.094  54.643  1.00  0.00     0.025 A
HETATM   20  C8  UNL     1       7.509  48.417  55.741  1.00  0.00     0.040 A
ENDBRANCH  15  16
ENDBRANCH  13  15
ENDBRANCH   3  13
BRANCH  10  21
HETATM   21  C21 UNL     1      11.583  48.843  62.575  1.00  0.00     0.045 A
HETATM   22  C22 UNL     1      12.883  48.420  61.980  1.00  0.00     0.021 A
HETATM   23  C23 UNL     1      12.713  49.810  62.471  1.00  0.00    -0.038 A
HETATM   24  C24 UNL     1      13.660  50.118  63.598  1.00  0.00     0.015 C
HETATM   25  C25 UNL     1      12.704  50.925  61.410  1.00  0.00     0.015 C
ENDBRANCH  10  21
BRANCH   8  26
HETATM   26  C13 UNL     1       9.566  50.614  64.165  1.00  0.00     0.067 C
BRANCH  26  27
HETATM   27  C14 UNL     1      10.479  51.710  64.534  1.00  0.00     0.077 A
HETATM   28  C15 UNL     1      10.677  52.907  63.860  1.00  0.00     0.040 A
HETATM   29  C16 UNL     1      11.612  53.621  64.578  1.00  0.00     0.035 A
HETATM   30  C17 UNL     1      11.953  52.847  65.655  1.00  0.00     0.050 A
HETATM   31  C18 UNL     1      12.914  53.119  66.755  1.00  0.00     0.076 C
HETATM   32  O3  UNL     1      11.254  51.742  65.568  1.00  0.00    -0.316 OA
ENDBRANCH  26  27
ENDBRANCH   8  26
TORSDOF 6
ENDMDL