MODEL 5
REMARK VINA RESULT: -7.623573346      1.809      2.284
REMARK  12 active torsions:
REMARK  status: ('A' for Active; 'I' for Inactive)
REMARK    1  A    between atoms: C2_2  and  C3_3
REMARK    2  A    between atoms: C3_3  and  N1_4
REMARK    3  A    between atoms: N2_7  and  C6_8
REMARK    4  A    between atoms: C6_8  and  C7_9
REMARK    5  A    between atoms: C7_9  and  C8_10
REMARK    6  A    between atoms: C8_10  and  N3_11
REMARK    7  A    between atoms: N3_11  and  S1_13
REMARK    8  A    between atoms: S1_13  and  N4_14
REMARK    9  A    between atoms: S1_13  and  N5_18
REMARK   10  A    between atoms: N5_18  and  C9_20
REMARK   11  A    between atoms: C9_20  and  C10_21
REMARK   12  A    between atoms: C10_21  and  N6_22
ROOT
HETATM    1  N3  UNL     1      11.718  -4.569  19.095  1.00  0.00    -0.320 N
ATOM      2  H3  UNL     1      11.644  -4.065  19.979  1.00  0.00     0.172 HD
ENDROOT
BRANCH   1   3
HETATM    3  C8  UNL     1      12.676  -5.591  19.040  1.00  0.00     0.133 C
BRANCH   3   4
HETATM    4  C7  UNL     1      13.395  -5.587  20.425  1.00  0.00     0.048 C
BRANCH   4   5
HETATM    5  C6  UNL     1      14.785  -6.068  20.268  1.00  0.00     0.239 C
BRANCH   5   6
HETATM    6  N2  UNL     1      15.166  -6.866  21.442  1.00  0.00    -0.062 N
HETATM    7  C5  UNL     1      14.463  -8.165  21.308  1.00  0.00     0.265 C
HETATM    8  C4  UNL     1      14.803  -8.992  22.481  1.00  0.00     0.265 C
HETATM    9  N1  UNL     1      15.841  -8.386  23.351  1.00  0.00    -0.062 N
HETATM   10  C15 UNL     1      15.286  -7.090  23.819  1.00  0.00     0.265 C
HETATM   11  C17 UNL     1      16.970  -8.100  22.554  1.00  0.00     0.265 C
HETATM   12  C14 UNL     1      14.696  -6.298  22.676  1.00  0.00     0.265 C
HETATM   13  C16 UNL     1      16.562  -7.126  21.425  1.00  0.00     0.265 C
BRANCH   9  14
HETATM   14  C3  UNL     1      15.956  -9.283  24.445  1.00  0.00     0.237 C
BRANCH  14  15
HETATM   15  C2  UNL     1      17.272  -9.643  24.992  1.00  0.00     0.023 C
HETATM   16  C1  UNL     1      17.259 -10.449  26.255  1.00  0.00     0.007 C
ENDBRANCH  14  15
ENDBRANCH   9  14
ENDBRANCH   5   6
ENDBRANCH   4   5
ENDBRANCH   3   4
ENDBRANCH   1   3
BRANCH   1  17
HETATM   17  S1  UNL     1      10.711  -4.096  17.908  1.00  0.00     0.188 S
HETATM   18  O1  UNL     1      11.555  -3.095  17.015  1.00  0.00    -0.206 OA
BRANCH  17  19
HETATM   19  N4  UNL     1      10.480  -5.345  16.919  1.00  0.00    -0.329 N
ATOM     20  H42 UNL     1      10.441  -6.322  17.207  1.00  0.00     0.168 HD
ATOM     21  H41 UNL     1      10.383  -4.984  15.970  1.00  0.00     0.168 HD
ENDBRANCH  17  19
BRANCH  17  22
HETATM   22  N5  UNL     1       9.202  -3.407  18.136  1.00  0.00    -0.318 N
ATOM     23  H5  UNL     1       9.058  -2.692  18.849  1.00  0.00     0.172 HD
BRANCH  22  24
HETATM   24  C9  UNL     1       8.119  -3.846  17.308  1.00  0.00     0.162 C
BRANCH  24  25
HETATM   25  C10 UNL     1       7.801  -2.707  16.380  1.00  0.00     0.294 C
BRANCH  25  26
HETATM   26  N6  UNL     1       7.189  -3.001  15.115  1.00  0.00     0.117 N
HETATM   27  C11 UNL     1       6.474  -1.743  14.774  1.00  0.00     0.302 C
HETATM   28  C12 UNL     1       6.603  -1.598  13.304  1.00  0.00     0.264 C
HETATM   29  N7  UNL     1       7.385  -2.726  12.879  1.00  0.00    -0.047 N
HETATM   30  C13 UNL     1       8.174  -3.091  14.071  1.00  0.00     0.502 C
ATOM     31  H72 UNL     1       6.835  -3.492  12.490  1.00  0.00     0.279 HD
ATOM     32  H71 UNL     1       7.944  -2.554  12.043  1.00  0.00     0.279 HD
ENDBRANCH  25  26
ENDBRANCH  24  25
ENDBRANCH  22  24
ENDBRANCH  17  22
ENDBRANCH   1  17
TORSDOF 12
ENDMDL