MODEL 4
REMARK VINA RESULT: -6.669427348      1.910      3.330
REMARK  13 active torsions:
REMARK  status: ('A' for Active; 'I' for Inactive)
REMARK    1  A    between atoms: C2_2  and  C3_3
REMARK    2  A    between atoms: C3_3  and  C4_4
REMARK    3  A    between atoms: C4_4  and  C5_5
REMARK    4  A    between atoms: C5_5  and  C6_6
REMARK    5  A    between atoms: C6_6  and  C7_7
REMARK    6  A    between atoms: C7_7  and  C8_8
REMARK    7  A    between atoms: C8_8  and  C9_9
REMARK    8  A    between atoms: C9_9  and  C10_10
REMARK    9  A    between atoms: C10_10  and  C11_11
REMARK   10  A    between atoms: C12_14  and  O1_15
REMARK   11  A    between atoms: N2_18  and  N3_20
REMARK   12  A    between atoms: C16_23  and  C17_24
REMARK   13  A    between atoms: C17_24  and  N4_25
ROOT
HETATM    1  C11 UNL     1      14.798  -5.598  18.630  1.00  0.00     0.171 C
HETATM    2  N1  UNL     1      15.851  -4.668  18.199  1.00  0.00    -0.379 N
ATOM      3  H1  UNL     1      16.428  -4.152  18.863  1.00  0.00     0.157 HD
HETATM    4  C12 UNL     1      16.008  -4.538  16.797  1.00  0.00     0.264 C
HETATM    5  C13 UNL     1      16.802  -5.719  16.325  1.00  0.00     0.070 C
HETATM    6  N2  UNL     1      18.046  -5.562  16.339  1.00  0.00    -0.322 N
ATOM      7  H2  UNL     1      18.357  -4.649  16.671  1.00  0.00     0.180 HD
HETATM    8  C16 UNL     1      16.141  -6.979  15.869  1.00  0.00     0.162 C
HETATM    9  N5  UNL     1      15.218  -7.476  16.866  1.00  0.00    -0.348 N
ATOM     10  H5  UNL     1      14.673  -8.302  16.618  1.00  0.00     0.163 HD
HETATM   11  C21 UNL     1      14.996  -6.922  18.164  1.00  0.00     0.240 C
HETATM   12  O2  UNL     1      14.981  -7.835  19.080  1.00  0.00    -0.271 OA
ENDROOT
BRANCH   1  13
HETATM   13  C10 UNL     1      13.521  -4.906  18.425  1.00  0.00     0.034 C
BRANCH  13  14
HETATM   14  C9  UNL     1      13.000  -3.919  19.386  1.00  0.00     0.002 C
BRANCH  14  15
HETATM   15  C8  UNL     1      13.414  -2.524  19.196  1.00  0.00     0.000 C
BRANCH  15  16
HETATM   16  C7  UNL     1      14.407  -2.158  20.319  1.00  0.00     0.000 C
BRANCH  16  17
HETATM   17  C6  UNL     1      14.358  -3.089  21.476  1.00  0.00     0.000 C
BRANCH  17  18
HETATM   18  C5  UNL     1      15.799  -3.575  21.708  1.00  0.00     0.000 C
BRANCH  18  19
HETATM   19  C4  UNL     1      15.801  -5.064  21.895  1.00  0.00     0.000 C
BRANCH  19  20
HETATM   20  C3  UNL     1      14.451  -5.508  22.397  1.00  0.00    -0.000 C
BRANCH  20  21
HETATM   21  C2  UNL     1      14.466  -6.993  22.649  1.00  0.00    -0.005 C
HETATM   22  C1  UNL     1      15.408  -7.350  23.789  1.00  0.00     0.005 C
ENDBRANCH  20  21
ENDBRANCH  19  20
ENDBRANCH  18  19
ENDBRANCH  17  18
ENDBRANCH  16  17
ENDBRANCH  15  16
ENDBRANCH  14  15
ENDBRANCH  13  14
ENDBRANCH   1  13
BRANCH   4  23
HETATM   23  O1  UNL     1      16.776  -3.369  16.545  1.00  0.00    -0.372 OA
ATOM     24  H1  UNL     1      17.312  -3.529  15.777  1.00  0.00     0.212 HD
ENDBRANCH   4  23
BRANCH   8  25
HETATM   25  C17 UNL     1      15.410  -6.745  14.585  1.00  0.00     0.267 C
BRANCH  25  26
HETATM   26  N4  UNL     1      16.004  -7.167  13.368  1.00  0.00    -0.076 N
HETATM   27  C18 UNL     1      16.770  -6.204  12.639  1.00  0.00     0.271 C
HETATM   28  C19 UNL     1      14.946  -7.731  12.472  1.00  0.00     0.271 C
HETATM   29  C20 UNL     1      16.882  -8.289  13.665  1.00  0.00     0.271 C
ENDBRANCH  25  26
ENDBRANCH   8  25
BRANCH   6  30
HETATM   30  N3  UNL     1      19.049  -6.408  15.986  1.00  0.00    -0.240 NA
HETATM   31  C14 UNL     1      20.067  -6.385  17.053  1.00  0.00     0.135 C
HETATM   32  C15 UNL     1      19.775  -5.928  14.797  1.00  0.00     0.135 C
ENDBRANCH   6  30
TORSDOF 13
ENDMDL