MODEL 3
REMARK VINA RESULT: -7.257458801      5.811      8.820
REMARK  12 active torsions:
REMARK  status: ('A' for Active; 'I' for Inactive)
REMARK    1  A    between atoms: C2_2  and  N1_3
REMARK    2  A    between atoms: C5_10  and  C6_11
REMARK    3  A    between atoms: C5_10  and  C18_30
REMARK    4  A    between atoms: C6_11  and  C7_12
REMARK    5  A    between atoms: C7_12  and  C8_13
REMARK    6  A    between atoms: C8_13  and  N4_17
REMARK    7  A    between atoms: N4_17  and  C9_19
REMARK    8  A    between atoms: C9_19  and  C10_20
REMARK    9  A    between atoms: C10_20  and  N5_21
REMARK   10  A    between atoms: N5_21  and  C13_24
REMARK   11  A    between atoms: C13_24  and  C14_25
REMARK   12  A    between atoms: C14_25  and  N6_26
ROOT
HETATM    1  C8  UNL     1      17.437  -7.548  18.577  1.00  0.00     0.070 C
HETATM    2  N3  UNL     1      18.572  -7.042  18.359  1.00  0.00    -0.389 N
ATOM      3  H31 UNL     1      19.412  -7.349  18.850  1.00  0.00     0.157 HD
ATOM      4  H32 UNL     1      18.727  -6.298  17.679  1.00  0.00     0.157 HD
ENDROOT
BRANCH   1   5
HETATM    5  C7  UNL     1      16.195  -7.095  17.851  1.00  0.00     0.080 C
BRANCH   5   6
HETATM    6  C6  UNL     1      16.472  -7.204  16.368  1.00  0.00     0.062 C
BRANCH   6   7
HETATM    7  C5  UNL     1      15.874  -6.018  15.628  1.00  0.00     0.115 C
HETATM    8  N1  UNL     1      16.864  -5.132  15.122  1.00  0.00    -0.317 N
HETATM    9  C3  UNL     1      16.927  -3.936  15.945  1.00  0.00     0.313 C
HETATM   10  O1  UNL     1      17.733  -2.969  15.874  1.00  0.00    -0.262 OA
HETATM   11  C4  UNL     1      15.876  -4.016  16.912  1.00  0.00     0.311 C
HETATM   12  O2  UNL     1      15.613  -3.149  17.810  1.00  0.00    -0.262 OA
HETATM   13  N2  UNL     1      15.200  -5.230  16.671  1.00  0.00    -0.326 N
ATOM     14  H2  UNL     1      14.353  -5.524  17.158  1.00  0.00     0.165 HD
BRANCH   8  15
HETATM   15  C2  UNL     1      17.790  -5.209  14.000  1.00  0.00     0.124 C
HETATM   16  C1  UNL     1      17.178  -4.513  12.827  1.00  0.00     0.026 C
ENDBRANCH   8  15
BRANCH   7  17
HETATM   17  C18 UNL     1      14.813  -6.489  14.715  1.00  0.00     0.027 C
HETATM   18  C19 UNL     1      13.471  -6.435  15.414  1.00  0.00     0.014 C
HETATM   19  C20 UNL     1      14.938  -7.888  14.188  1.00  0.00     0.014 C
ENDBRANCH   7  17
ENDBRANCH   6   7
ENDBRANCH   5   6
ENDBRANCH   1   5
BRANCH   1  20
HETATM   20  N4  UNL     1      17.221  -8.583  19.523  1.00  0.00    -0.379 N
ATOM     21  H4  UNL     1      17.213  -9.546  19.187  1.00  0.00     0.160 HD
BRANCH  20  22
HETATM   22  C9  UNL     1      17.013  -8.351  20.932  1.00  0.00     0.149 C
BRANCH  22  23
HETATM   23  C10 UNL     1      15.814  -8.985  21.526  1.00  0.00     0.256 C
BRANCH  23  24
HETATM   24  N5  UNL     1      15.268  -8.374  22.698  1.00  0.00    -0.072 N
HETATM   25  C11 UNL     1      14.709  -9.411  23.542  1.00  0.00     0.272 C
HETATM   26  C12 UNL     1      16.195  -7.609  23.491  1.00  0.00     0.272 C
BRANCH  24  27
HETATM   27  C13 UNL     1      14.232  -7.408  22.286  1.00  0.00     0.264 C
BRANCH  27  28
HETATM   28  C14 UNL     1      14.635  -6.026  22.685  1.00  0.00     0.264 C
BRANCH  28  29
HETATM   29  N6  UNL     1      14.522  -5.129  21.551  1.00  0.00    -0.077 N
HETATM   30  C15 UNL     1      15.777  -4.802  20.948  1.00  0.00     0.271 C
HETATM   31  C16 UNL     1      13.679  -5.776  20.568  1.00  0.00     0.271 C
HETATM   32  C17 UNL     1      13.857  -3.889  21.925  1.00  0.00     0.271 C
ENDBRANCH  28  29
ENDBRANCH  27  28
ENDBRANCH  24  27
ENDBRANCH  23  24
ENDBRANCH  22  23
ENDBRANCH  20  22
ENDBRANCH   1  20
TORSDOF 12
ENDMDL