MODEL 1
REMARK VINA RESULT: -6.931477418      0.000      0.000
REMARK  12 active torsions:
REMARK  status: ('A' for Active; 'I' for Inactive)
REMARK    1  A    between atoms: C2_2  and  N1_3
REMARK    2  A    between atoms: N2_7  and  C6_8
REMARK    3  A    between atoms: C6_8  and  C7_9
REMARK    4  A    between atoms: C7_9  and  C8_10
REMARK    5  A    between atoms: C8_10  and  N3_11
REMARK    6  A    between atoms: N3_11  and  C10_13
REMARK    7  A    between atoms: N3_11  and  C14_21
REMARK    8  A    between atoms: C10_13  and  C11_14
REMARK    9  A    between atoms: C11_14  and  C12_15
REMARK   10  A    between atoms: C12_15  and  N4_16
REMARK   11  A    between atoms: C14_21  and  C15_22
REMARK   12  A    between atoms: C15_22  and  S1_23
ROOT
HETATM    1  N3  UNL     1      14.727  -5.234  21.010  1.00  0.00    -0.070 N
HETATM    2  C9  UNL     1      15.772  -4.461  21.692  1.00  0.00     0.272 C
ENDROOT
BRANCH   1   3
HETATM    3  C8  UNL     1      15.124  -5.807  19.778  1.00  0.00     0.238 C
BRANCH   3   4
HETATM    4  C7  UNL     1      16.453  -5.476  19.209  1.00  0.00     0.044 C
BRANCH   4   5
HETATM    5  C6  UNL     1      16.942  -6.387  18.123  1.00  0.00     0.115 C
BRANCH   5   6
HETATM    6  N2  UNL     1      16.156  -6.269  16.936  1.00  0.00    -0.229 NA
HETATM    7  C5  UNL     1      15.633  -7.513  16.431  1.00  0.00     0.115 C
HETATM    8  C4  UNL     1      14.211  -7.267  15.990  1.00  0.00     0.036 C
HETATM    9  C3  UNL     1      14.065  -6.588  14.676  1.00  0.00     0.126 C
HETATM   10  N1  UNL     1      15.265  -6.301  13.964  1.00  0.00    -0.358 N
HETATM   11  C17 UNL     1      16.463  -5.726  14.475  1.00  0.00     0.184 C
HETATM   12  N7  UNL     1      16.825  -5.655  15.870  1.00  0.00    -0.295 N
HETATM   13  S2  UNL     1      17.524  -5.088  13.408  1.00  0.00    -0.040 SA
ATOM     14  H7  UNL     1      17.650  -5.102  16.103  1.00  0.00     0.183 HD
BRANCH  10  15
HETATM   15  C2  UNL     1      15.313  -6.619  12.526  1.00  0.00     0.120 C
HETATM   16  C1  UNL     1      15.032  -8.087  12.299  1.00  0.00     0.026 C
ENDBRANCH  10  15
ENDBRANCH   5   6
ENDBRANCH   4   5
ENDBRANCH   3   4
ENDBRANCH   1   3
BRANCH   1  17
HETATM   17  C10 UNL     1      13.710  -4.215  20.677  1.00  0.00     0.238 C
BRANCH  17  18
HETATM   18  C11 UNL     1      14.227  -2.820  20.714  1.00  0.00     0.047 C
BRANCH  18  19
HETATM   19  C12 UNL     1      13.841  -2.155  19.371  1.00  0.00     0.123 C
BRANCH  19  20
HETATM   20  N4  UNL     1      14.943  -2.127  18.466  1.00  0.00    -0.367 N
HETATM   21  C13 UNL     1      14.954  -2.820  17.381  1.00  0.00     0.196 C
HETATM   22  N5  UNL     1      13.883  -3.669  16.984  1.00  0.00    -0.067 NA
HETATM   23  N6  UNL     1      16.102  -2.712  16.556  1.00  0.00    -0.067 NA
ATOM     24  H4  UNL     1      15.748  -1.539  18.685  1.00  0.00     0.161 HD
ENDBRANCH  19  20
ENDBRANCH  18  19
ENDBRANCH  17  18
ENDBRANCH   1  17
BRANCH   1  25
HETATM   25  C14 UNL     1      14.220  -6.143  22.003  1.00  0.00     0.249 C
BRANCH  25  26
HETATM   26  C15 UNL     1      15.051  -6.296  23.239  1.00  0.00     0.136 C
BRANCH  26  27
HETATM   27  S1  UNL     1      15.546  -8.036  23.269  1.00  0.00     0.012 S
HETATM   28  C16 UNL     1      14.567  -8.966  22.125  1.00  0.00     0.127 C
HETATM   29  O1  UNL     1      15.327  -8.597  24.835  1.00  0.00    -0.258 OA
ENDBRANCH  26  27
ENDBRANCH  25  26
ENDBRANCH   1  25
TORSDOF 12
ENDMDL