MODEL 4
REMARK VINA RESULT: -7.218475237      2.397      7.616
REMARK  13 active torsions:
REMARK  status: ('A' for Active; 'I' for Inactive)
REMARK       I    between atoms: C3_5  and  N2_6
REMARK       I    between atoms: C3_5  and  N4_15
REMARK    1  A    between atoms: N2_6  and  C4_8
REMARK    2  A    between atoms: C4_8  and  C5_9
REMARK    3  A    between atoms: C5_9  and  C6_10
REMARK    4  A    between atoms: C6_10  and  N3_11
REMARK    5  A    between atoms: N4_15  and  C10_16
REMARK    6  A    between atoms: N4_15  and  C13_23
REMARK    7  A    between atoms: C10_16  and  C11_17
REMARK    8  A    between atoms: C11_17  and  C12_18
REMARK    9  A    between atoms: C12_18  and  N5_19
REMARK   10  A    between atoms: C13_23  and  C14_24
REMARK   11  A    between atoms: C14_24  and  O1_25
REMARK   12  A    between atoms: C14_24  and  C15_27
REMARK   13  A    between atoms: C15_27  and  N6_28
ROOT
HETATM    1  C1  UNL     1      16.098  -3.578  21.474  1.00  0.00     0.037 C
HETATM    2  C2  UNL     1      15.232  -3.949  20.739  1.00  0.00     0.001 C
HETATM    3  N1  UNL     1      14.251  -4.337  19.901  1.00  0.00    -0.292 N
ATOM      4  H1  UNL     1      13.999  -3.603  19.239  1.00  0.00     0.178 HD
HETATM    5  C3  UNL     1      13.573  -5.372  19.734  1.00  0.00     0.163 C
HETATM    6  N2  UNL     1      13.675  -6.561  20.479  1.00  0.00    -0.366 N
ATOM      7  H2  UNL     1      13.321  -7.404  20.026  1.00  0.00     0.162 HD
HETATM    8  N4  UNL     1      12.569  -5.372  18.677  1.00  0.00    -0.248 NA
ENDROOT
BRANCH   6   9
HETATM    9  C4  UNL     1      14.212  -6.735  21.788  1.00  0.00     0.124 C
BRANCH   9  10
HETATM   10  C5  UNL     1      15.584  -7.430  21.727  1.00  0.00     0.047 C
BRANCH  10  11
HETATM   11  C6  UNL     1      16.390  -7.093  22.964  1.00  0.00     0.237 C
BRANCH  11  12
HETATM   12  N3  UNL     1      17.080  -8.236  23.489  1.00  0.00    -0.079 N
HETATM   13  C7  UNL     1      17.554  -9.034  22.367  1.00  0.00     0.271 C
HETATM   14  C8  UNL     1      18.212  -7.911  24.315  1.00  0.00     0.271 C
HETATM   15  C9  UNL     1      16.177  -9.110  24.242  1.00  0.00     0.271 C
ENDBRANCH  11  12
ENDBRANCH  10  11
ENDBRANCH   9  10
ENDBRANCH   6   9
BRANCH   8  16
HETATM   16  C10 UNL     1      11.791  -4.155  18.963  1.00  0.00     0.100 C
BRANCH  16  17
HETATM   17  C11 UNL     1      11.086  -3.618  17.763  1.00  0.00     0.042 C
BRANCH  17  18
HETATM   18  C12 UNL     1       9.657  -4.114  17.677  1.00  0.00     0.230 C
BRANCH  18  19
HETATM   19  N5  UNL     1       9.637  -5.264  16.766  1.00  0.00    -0.079 N
ATOM     20  H53 UNL     1       9.944  -6.128  17.212  1.00  0.00     0.274 HD
ATOM     21  H52 UNL     1       8.691  -5.564  16.527  1.00  0.00     0.274 HD
ATOM     22  H51 UNL     1      10.194  -5.022  15.947  1.00  0.00     0.274 HD
ENDBRANCH  18  19
ENDBRANCH  17  18
ENDBRANCH  16  17
ENDBRANCH   8  16
BRANCH   8  23
HETATM   23  C13 UNL     1      13.182  -5.160  17.374  1.00  0.00     0.164 C
BRANCH  23  24
HETATM   24  C14 UNL     1      13.114  -6.396  16.514  1.00  0.00     0.080 C
BRANCH  24  25
HETATM   25  O1  UNL     1      12.016  -7.154  16.820  1.00  0.00    -0.362 OA
ATOM     26  H1  UNL     1      11.926  -7.887  16.222  1.00  0.00     0.217 HD
ENDBRANCH  24  25
BRANCH  24  27
HETATM   27  C15 UNL     1      14.384  -7.091  16.308  1.00  0.00     0.235 C
BRANCH  27  28
HETATM   28  N6  UNL     1      15.085  -7.002  15.088  1.00  0.00    -0.049 N
HETATM   29  C16 UNL     1      15.536  -8.394  14.826  1.00  0.00     0.278 C
HETATM   30  C17 UNL     1      16.331  -6.256  15.173  1.00  0.00     0.242 C
HETATM   31  C18 UNL     1      16.667  -5.524  13.913  1.00  0.00     0.028 C
HETATM   32  C19 UNL     1      16.401  -6.296  12.652  1.00  0.00     0.003 C
HETATM   33  C20 UNL     1      15.131  -7.091  12.688  1.00  0.00     0.028 C
HETATM   34  C21 UNL     1      14.328  -6.643  13.921  1.00  0.00     0.242 C
ENDBRANCH  27  28
ENDBRANCH  24  27
ENDBRANCH  23  24
ENDBRANCH   8  23
TORSDOF 13
ENDMDL