MODEL 1
REMARK VINA RESULT: -7.994041002      0.000      0.000
REMARK  12 active torsions:
REMARK  status: ('A' for Active; 'I' for Inactive)
REMARK    1  A    between atoms: C2_2  and  N1_3
REMARK    2  A    between atoms: N1_3  and  C3_4
REMARK       I    between atoms: N1_3  and  C5_6
REMARK    3  A    between atoms: C5_6  and  C6_8
REMARK    4  A    between atoms: C9_11  and  N2_12
REMARK       I    between atoms: N2_12  and  C10_14
REMARK       I    between atoms: C10_14  and  N4_22
REMARK    5  A    between atoms: N3_15  and  C11_17
REMARK    6  A    between atoms: C11_17  and  C12_18
REMARK    7  A    between atoms: C12_18  and  S1_19
REMARK    8  A    between atoms: N4_22  and  C14_24
REMARK    9  A    between atoms: C14_24  and  C15_25
REMARK   10  A    between atoms: C16_26  and  C17_27
REMARK   11  A    between atoms: C17_27  and  C18_28
REMARK   12  A    between atoms: C18_28  and  N5_29
ROOT
HETATM    1  N2  UNL     1      13.188  -6.807  18.881  1.00  0.00    -0.197 N
ATOM      2  H2  UNL     1      12.871  -7.586  19.458  1.00  0.00     0.180 HD
HETATM    3  C10 UNL     1      14.466  -6.909  18.289  1.00  0.00     0.671 C
HETATM    4  N3  UNL     1      14.563  -7.502  17.147  1.00  0.00    -0.226 N
ATOM      5  H3  UNL     1      13.728  -7.880  16.700  1.00  0.00     0.177 HD
HETATM    6  N4  UNL     1      15.640  -6.394  18.892  1.00  0.00    -0.223 N
ATOM      7  H4  UNL     1      16.269  -5.827  18.324  1.00  0.00     0.178 HD
ENDROOT
BRANCH   1   8
HETATM    8  C9  UNL     1      12.293  -5.674  18.731  1.00  0.00     0.300 C
HETATM    9  C8  UNL     1      12.926  -4.384  19.173  1.00  0.00     0.057 C
HETATM   10  C7  UNL     1      12.446  -3.407  18.168  1.00  0.00     0.047 C
HETATM   11  C6  UNL     1      11.455  -4.107  17.320  1.00  0.00     0.279 C
HETATM   12  N7  UNL     1      11.896  -5.479  17.363  1.00  0.00    -0.041 N
ATOM     13  H72 UNL     1      11.207  -6.151  17.026  1.00  0.00     0.280 HD
ATOM     14  H71 UNL     1      12.617  -5.709  16.680  1.00  0.00     0.280 HD
BRANCH  11  15
HETATM   15  C5  UNL     1      10.052  -4.038  17.741  1.00  0.00     0.250 C
HETATM   16  N1  UNL     1       8.951  -3.652  16.935  1.00  0.00    -0.351 N
HETATM   17  O1  UNL     1       9.794  -4.355  18.936  1.00  0.00    -0.271 OA
BRANCH  16  18
HETATM   18  C2  UNL     1       7.616  -3.606  17.565  1.00  0.00     0.121 C
HETATM   19  C1  UNL     1       6.818  -4.787  17.052  1.00  0.00     0.026 C
ENDBRANCH  16  18
BRANCH  16  20
HETATM   20  C3  UNL     1       8.985  -3.331  15.539  1.00  0.00     0.121 C
HETATM   21  C4  UNL     1       8.961  -1.800  15.335  1.00  0.00     0.026 C
ENDBRANCH  16  20
ENDBRANCH  11  15
ENDBRANCH   1   8
BRANCH   4  22
HETATM   22  C11 UNL     1      15.866  -7.636  16.488  1.00  0.00     0.150 C
BRANCH  22  23
HETATM   23  C12 UNL     1      15.734  -7.910  15.018  1.00  0.00     0.128 C
BRANCH  23  24
HETATM   24  S1  UNL     1      15.037  -6.550  14.136  1.00  0.00     0.012 S
HETATM   25  C13 UNL     1      15.095  -6.823  12.379  1.00  0.00     0.127 C
HETATM   26  O2  UNL     1      13.410  -6.419  14.546  1.00  0.00    -0.258 OA
ENDBRANCH  23  24
ENDBRANCH  22  23
ENDBRANCH   4  22
BRANCH   6  27
HETATM   27  C14 UNL     1      15.991  -6.636  20.280  1.00  0.00     0.165 C
BRANCH  27  28
HETATM   28  C15 UNL     1      16.548  -7.984  20.458  1.00  0.00    -0.011 C
HETATM   29  C16 UNL     1      16.056  -8.975  21.160  1.00  0.00    -0.027 C
BRANCH  29  30
HETATM   30  C17 UNL     1      14.795  -8.926  21.940  1.00  0.00     0.048 C
BRANCH  30  31
HETATM   31  C18 UNL     1      15.134  -8.755  23.407  1.00  0.00     0.142 C
BRANCH  31  32
HETATM   32  N5  UNL     1      14.419  -9.679  24.231  1.00  0.00    -0.343 N
HETATM   33  N6  UNL     1      13.302 -10.048  23.859  1.00  0.00    -0.349 N
ATOM     34  H62 UNL     1      12.914  -9.694  22.985  1.00  0.00     0.176 HD
ATOM     35  H61 UNL     1      12.793 -10.707  24.447  1.00  0.00     0.176 HD
ATOM     36  H5  UNL     1      14.821 -10.024  25.102  1.00  0.00     0.179 HD
ENDBRANCH  31  32
ENDBRANCH  30  31
ENDBRANCH  29  30
ENDBRANCH  27  28
ENDBRANCH   6  27
TORSDOF 12
ENDMDL