MODEL 2
REMARK VINA RESULT: -7.726416569      3.068      5.426
REMARK  12 active torsions:
REMARK  status: ('A' for Active; 'I' for Inactive)
REMARK    1  A    between atoms: C3_3  and  N1_4
REMARK    2  A    between atoms: N1_4  and  C5_6
REMARK    3  A    between atoms: N1_4  and  C6_8
REMARK    4  A    between atoms: C6_8  and  C7_9
REMARK       I    between atoms: C7_9  and  N2_11
REMARK    5  A    between atoms: N2_11  and  C8_13
REMARK    6  A    between atoms: C8_13  and  C9_14
REMARK    7  A    between atoms: C9_14  and  C10_15
REMARK    8  A    between atoms: C10_15  and  N3_16
REMARK    9  A    between atoms: C12_21  and  N5_22
REMARK   10  A    between atoms: N5_22  and  C13_24
REMARK   11  A    between atoms: C13_24  and  C14_25
REMARK   12  A    between atoms: C14_25  and  C15_26
ROOT
HETATM    1  C1  UNL     1      16.145  -3.698  16.592  1.00  0.00     0.013 C
HETATM    2  C2  UNL     1      16.442  -4.773  17.070  1.00  0.00    -0.089 C
HETATM    3  C3  UNL     1      16.803  -6.076  17.651  1.00  0.00     0.339 C
ENDROOT
BRANCH   3   4
HETATM    4  N1  UNL     1      17.778  -5.914  18.692  1.00  0.00     0.001 N
HETATM    5  C4  UNL     1      17.312  -4.958  19.704  1.00  0.00     0.284 C
BRANCH   4   6
HETATM    6  C5  UNL     1      19.001  -5.383  18.186  1.00  0.00     0.460 C
HETATM    7  O1  UNL     1      19.683  -4.652  18.883  1.00  0.00    -0.276 OA
ENDBRANCH   4   6
BRANCH   4   8
HETATM    8  C6  UNL     1      18.057  -7.147  19.386  1.00  0.00     0.349 C
BRANCH   8   9
HETATM    9  C7  UNL     1      16.976  -7.531  20.319  1.00  0.00     0.244 C
HETATM   10  O2  UNL     1      15.931  -8.048  19.869  1.00  0.00    -0.272 OA
HETATM   11  N2  UNL     1      17.143  -7.305  21.703  1.00  0.00    -0.359 N
ATOM     12  H2  UNL     1      17.998  -6.882  22.066  1.00  0.00     0.162 HD
BRANCH  11  13
HETATM   13  C8  UNL     1      16.068  -7.689  22.592  1.00  0.00     0.128 C
BRANCH  13  14
HETATM   14  C9  UNL     1      15.768  -6.683  23.669  1.00  0.00     0.064 C
BRANCH  14  15
HETATM   15  C10 UNL     1      14.498  -5.945  23.285  1.00  0.00     0.064 C
BRANCH  15  16
HETATM   16  N3  UNL     1      14.063  -6.148  21.994  1.00  0.00    -0.355 N
HETATM   17  C11 UNL     1      13.802  -5.571  20.941  1.00  0.00     0.128 A
HETATM   18  N4  UNL     1      13.371  -6.326  19.878  1.00  0.00    -0.176 N
HETATM   19  C19 UNL     1      13.893  -4.222  20.698  1.00  0.00     0.005 A
HETATM   20  C12 UNL     1      13.060  -5.794  18.689  1.00  0.00     0.679 A
ATOM     21  H4  UNL     1      13.283  -7.336  19.998  1.00  0.00     0.186 HD
HETATM   22  N6  UNL     1      13.144  -4.481  18.439  1.00  0.00    -0.195 N
HETATM   23  C17 UNL     1      13.560  -3.692  19.441  1.00  0.00     0.032 A
ATOM     24  H6  UNL     1      12.902  -4.097  17.526  1.00  0.00     0.184 HD
HETATM   25  C18 UNL     1      13.672  -2.230  19.221  1.00  0.00     0.069 C
HETATM   26  C20 UNL     1      14.342  -3.284  21.750  1.00  0.00     0.054 C
ATOM     27  H3  UNL     1      13.897  -7.146  21.864  1.00  0.00     0.166 HD
BRANCH  20  28
HETATM   28  N5  UNL     1      12.660  -6.561  17.732  1.00  0.00    -0.226 N
ATOM     29  H5  UNL     1      11.677  -6.834  17.733  1.00  0.00     0.177 HD
BRANCH  28  30
HETATM   30  C13 UNL     1      13.474  -7.060  16.674  1.00  0.00     0.138 C
BRANCH  30  31
HETATM   31  C14 UNL     1      13.177  -6.351  15.369  1.00  0.00     0.020 C
BRANCH  31  32
HETATM   32  C15 UNL     1      14.308  -6.691  14.396  1.00  0.00    -0.003 C
HETATM   33  C16 UNL     1      15.036  -7.878  14.987  1.00  0.00     0.005 C
ENDBRANCH  31  32
ENDBRANCH  30  31
ENDBRANCH  28  30
ENDBRANCH  20  28
ENDBRANCH  15  16
ENDBRANCH  14  15
ENDBRANCH  13  14
ENDBRANCH  11  13
ENDBRANCH   8   9
ENDBRANCH   4   8
ENDBRANCH   3   4
TORSDOF 12
ENDMDL