MODEL 4
REMARK VINA RESULT: -7.511254931      5.333      9.287
REMARK  12 active torsions:
REMARK  status: ('A' for Active; 'I' for Inactive)
REMARK    1  A    between atoms: C2_2  and  C3_3
REMARK    2  A    between atoms: C3_3  and  C4_4
REMARK    3  A    between atoms: C4_4  and  C5_5
REMARK    4  A    between atoms: C5_5  and  C6_6
REMARK    5  A    between atoms: C6_6  and  C7_7
REMARK    6  A    between atoms: C7_7  and  C8_8
REMARK    7  A    between atoms: C8_8  and  C9_9
REMARK    8  A    between atoms: C9_9  and  C10_10
REMARK    9  A    between atoms: N2_12  and  C11_14
REMARK   10  A    between atoms: C11_14  and  C12_15
REMARK   11  A    between atoms: C12_15  and  N3_16
REMARK   12  A    between atoms: C15_19  and  N4_20
ROOT
HETATM    1  N3  UNL     1       5.974  -3.296  16.552  1.00  0.00     0.088 N
HETATM    2  C13 UNL     1       6.609  -2.318  17.459  1.00  0.00     0.310 C
HETATM    3  C14 UNL     1       6.148  -2.864  15.230  1.00  0.00     0.298 C
HETATM    4  C15 UNL     1       5.132  -2.096  14.504  1.00  0.00     0.140 C
HETATM    5  C17 UNL     1       4.105  -1.374  15.291  1.00  0.00     0.300 C
HETATM    6  N7  UNL     1       3.114  -2.372  15.654  1.00  0.00     0.114 N
HETATM    7  C18 UNL     1       2.045  -1.845  16.466  1.00  0.00     0.312 C
HETATM    8  C19 UNL     1       3.655  -3.609  16.056  1.00  0.00     0.541 C
HETATM    9  N8  UNL     1       4.731  -3.675  16.988  1.00  0.00     0.106 N
HETATM   10  C20 UNL     1       4.384  -3.056  18.279  1.00  0.00     0.311 C
HETATM   11  C21 UNL     1       4.678  -5.113  17.382  1.00  0.00     0.311 C
ENDROOT
BRANCH   1  12
HETATM   12  C12 UNL     1       6.912  -4.435  16.727  1.00  0.00     0.291 C
BRANCH  12  13
HETATM   13  C11 UNL     1       8.181  -4.221  15.891  1.00  0.00     0.150 C
BRANCH  13  14
HETATM   14  N2  UNL     1       9.236  -4.871  16.649  1.00  0.00    -0.380 N
HETATM   15  C10 UNL     1      10.280  -4.172  16.933  1.00  0.00     0.088 C
HETATM   16  N1  UNL     1      10.440  -2.803  16.539  1.00  0.00    -0.088 NA
ATOM     17  H2  UNL     1       9.153  -5.843  16.945  1.00  0.00     0.160 HD
BRANCH  15  18
HETATM   18  C9  UNL     1      11.425  -4.744  17.710  1.00  0.00     0.073 C
BRANCH  18  19
HETATM   19  C8  UNL     1      12.537  -3.736  17.716  1.00  0.00     0.007 C
BRANCH  19  20
HETATM   20  C7  UNL     1      12.887  -3.321  19.110  1.00  0.00     0.000 C
BRANCH  20  21
HETATM   21  C6  UNL     1      13.845  -2.178  19.180  1.00  0.00     0.000 C
BRANCH  21  22
HETATM   22  C5  UNL     1      14.883  -2.529  20.252  1.00  0.00     0.000 C
BRANCH  22  23
HETATM   23  C4  UNL     1      14.198  -3.175  21.445  1.00  0.00     0.000 C
BRANCH  23  24
HETATM   24  C3  UNL     1      15.033  -4.343  21.887  1.00  0.00    -0.000 C
BRANCH  24  25
HETATM   25  C2  UNL     1      14.199  -5.566  22.165  1.00  0.00    -0.005 C
HETATM   26  C1  UNL     1      13.840  -6.300  20.913  1.00  0.00     0.005 C
ENDBRANCH  24  25
ENDBRANCH  23  24
ENDBRANCH  22  23
ENDBRANCH  21  22
ENDBRANCH  20  21
ENDBRANCH  19  20
ENDBRANCH  18  19
ENDBRANCH  15  18
ENDBRANCH  13  14
ENDBRANCH  12  13
ENDBRANCH   1  12
BRANCH   4  27
HETATM   27  N4  UNL     1       5.690  -1.186  13.532  1.00  0.00    -0.359 N
HETATM   28  C16 UNL     1       5.624  -1.211  12.284  1.00  0.00     0.197 C
HETATM   29  N5  UNL     1       4.931  -2.229  11.598  1.00  0.00    -0.067 NA
HETATM   30  N6  UNL     1       6.265  -0.188  11.537  1.00  0.00    -0.067 NA
ATOM     31  H4  UNL     1       6.215  -0.404  13.922  1.00  0.00     0.162 HD
ENDBRANCH   4  27
TORSDOF 12
ENDMDL