MODEL 1
REMARK VINA RESULT: -7.476001817      0.000      0.000
REMARK  17 active torsions:
REMARK  status: ('A' for Active; 'I' for Inactive)
REMARK    1  A    between atoms: C2_2  and  C3_3
REMARK    2  A    between atoms: C3_3  and  C4_4
REMARK    3  A    between atoms: C3_3  and  C6_11
REMARK    4  A    between atoms: C3_3  and  N4_32
REMARK    5  A    between atoms: N1_5  and  C5_7
REMARK    6  A    between atoms: C6_11  and  S1_12
REMARK    7  A    between atoms: S1_12  and  C7_13
REMARK    8  A    between atoms: S1_12  and  C18_27
REMARK    9  A    between atoms: C8_14  and  C9_15
REMARK   10  A    between atoms: C9_15  and  C10_16
REMARK   11  A    between atoms: C10_16  and  C11_17
REMARK   12  A    between atoms: C11_17  and  C12_18
REMARK       I    between atoms: C12_18  and  N3_20
REMARK   13  A    between atoms: N3_20  and  C13_22
REMARK   14  A    between atoms: C13_22  and  C14_23
REMARK   15  A    between atoms: C15_24  and  C16_25
REMARK   16  A    between atoms: C18_27  and  C19_28
REMARK   17  A    between atoms: C20_29  and  O2_30
ROOT
HETATM    1  S1  UNL     1      14.392  -6.029  18.088  1.00  0.00    -0.136 SA
ENDROOT
BRANCH   1   2
HETATM    2  C6  UNL     1      14.065  -6.900  19.556  1.00  0.00     0.119 C
BRANCH   2   3
HETATM    3  C3  UNL     1      14.767  -6.392  20.764  1.00  0.00     0.102 C
BRANCH   3   4
HETATM    4  C2  UNL     1      13.854  -5.581  21.645  1.00  0.00     0.001 C
HETATM    5  C1  UNL     1      13.798  -4.274  21.639  1.00  0.00     0.010 C
ENDBRANCH   3   4
BRANCH   3   6
HETATM    6  C4  UNL     1      15.137  -7.581  21.596  1.00  0.00     0.099 C
HETATM    7  N1  UNL     1      14.293  -8.004  22.462  1.00  0.00    -0.363 N
ATOM      8  H1  UNL     1      13.391  -7.542  22.582  1.00  0.00     0.165 HD
BRANCH   7   9
HETATM    9  C5  UNL     1      14.642  -9.129  23.249  1.00  0.00     0.172 C
HETATM   10  N2  UNL     1      13.698  -9.882  23.700  1.00  0.00    -0.395 N
ATOM     11  H22 UNL     1      12.726  -9.659  23.485  1.00  0.00     0.156 HD
ATOM     12  H21 UNL     1      13.950 -10.691  24.267  1.00  0.00     0.156 HD
ENDBRANCH   7   9
ENDBRANCH   3   6
BRANCH   3  13
HETATM   13  N4  UNL     1      15.920  -5.595  20.477  1.00  0.00    -0.323 N
HETATM   14  N5  UNL     1      17.038  -6.014  20.819  1.00  0.00    -0.348 N
ATOM     15  H52 UNL     1      17.116  -6.913  21.295  1.00  0.00     0.176 HD
ATOM     16  H51 UNL     1      17.860  -5.445  20.614  1.00  0.00     0.176 HD
ATOM     17  H4  UNL     1      15.825  -4.698  19.999  1.00  0.00     0.181 HD
ENDBRANCH   3  13
ENDBRANCH   2   3
ENDBRANCH   1   2
BRANCH   1  18
HETATM   18  C7  UNL     1      14.994  -7.099  16.887  1.00  0.00    -0.044 C
HETATM   19  C8  UNL     1      15.447  -7.848  16.039  1.00  0.00    -0.095 C
BRANCH  19  20
HETATM   20  C9  UNL     1      16.009  -8.742  14.989  1.00  0.00     0.095 C
BRANCH  20  21
HETATM   21  C10 UNL     1      15.065  -8.802  13.820  1.00  0.00     0.021 C
BRANCH  21  22
HETATM   22  C11 UNL     1      15.740  -8.597  12.521  1.00  0.00     0.103 C
BRANCH  22  23
HETATM   23  C12 UNL     1      15.713  -7.185  12.112  1.00  0.00     0.218 C
HETATM   24  O1  UNL     1      15.024  -6.310  12.680  1.00  0.00    -0.274 OA
HETATM   25  N3  UNL     1      16.501  -6.735  11.011  1.00  0.00    -0.351 N
ATOM     26  H3  UNL     1      17.079  -7.416  10.519  1.00  0.00     0.163 HD
BRANCH  25  27
HETATM   27  C13 UNL     1      16.520  -5.361  10.558  1.00  0.00     0.217 C
BRANCH  27  28
HETATM   28  C14 UNL     1      15.815  -5.198   9.275  1.00  0.00    -0.087 C
HETATM   29  C15 UNL     1      15.247  -5.054   8.217  1.00  0.00    -0.105 C
BRANCH  29  30
HETATM   30  C16 UNL     1      14.536  -4.876   6.948  1.00  0.00     0.089 C
HETATM   31  C17 UNL     1      13.422  -3.869   7.102  1.00  0.00     0.018 C
ENDBRANCH  29  30
ENDBRANCH  27  28
ENDBRANCH  25  27
ENDBRANCH  22  23
ENDBRANCH  21  22
ENDBRANCH  20  21
ENDBRANCH  19  20
ENDBRANCH   1  18
BRANCH   1  32
HETATM   32  C18 UNL     1      13.014  -5.080  17.514  1.00  0.00     0.105 C
BRANCH  32  33
HETATM   33  C19 UNL     1      11.861  -5.133  18.438  1.00  0.00     0.007 C
HETATM   34  C20 UNL     1      11.045  -4.115  18.508  1.00  0.00     0.128 C
BRANCH  34  35
HETATM   35  O2  UNL     1      11.231  -2.983  17.738  1.00  0.00    -0.373 OA
ATOM     36  H2  UNL     1      12.099  -2.656  17.535  1.00  0.00     0.216 HD
ENDBRANCH  34  35
ENDBRANCH  32  33
ENDBRANCH   1  32
TORSDOF 17
ENDMDL