MODEL 1
REMARK VINA RESULT: -7.373779927      0.000      0.000
REMARK  14 active torsions:
REMARK  status: ('A' for Active; 'I' for Inactive)
REMARK    1  A    between atoms: C2_2  and  C3_3
REMARK    2  A    between atoms: C3_3  and  C4_4
REMARK    3  A    between atoms: C4_4  and  N1_5
REMARK    4  A    between atoms: N1_5  and  C7_8
REMARK    5  A    between atoms: C7_8  and  C8_9
REMARK    6  A    between atoms: C8_9  and  C9_10
REMARK    7  A    between atoms: C9_10  and  N2_11
REMARK    8  A    between atoms: N2_11  and  C10_12
REMARK    9  A    between atoms: C13_15  and  N3_16
REMARK   10  A    between atoms: C14_20  and  N4_21
REMARK       I    between atoms: N4_21  and  C15_23
REMARK   11  A    between atoms: C15_23  and  C16_25
REMARK   12  A    between atoms: C16_25  and  C17_26
REMARK   13  A    between atoms: C17_26  and  N5_27
REMARK   14  A    between atoms: N6_34  and  N7_36
ROOT
HETATM    1  N2  UNL     1      13.006  -4.493  18.375  1.00  0.00    -0.061 N
HETATM    2  C18 UNL     1      11.985  -5.568  18.386  1.00  0.00     0.239 C
HETATM    3  C19 UNL     1      10.941  -4.475  18.465  1.00  0.00     0.056 C
HETATM    4  C20 UNL     1      12.003  -3.693  17.708  1.00  0.00     0.239 C
ENDROOT
BRANCH   1   5
HETATM    5  C9  UNL     1      14.068  -4.851  17.474  1.00  0.00     0.239 C
BRANCH   5   6
HETATM    6  C8  UNL     1      13.849  -6.123  16.712  1.00  0.00     0.056 C
BRANCH   6   7
HETATM    7  C7  UNL     1      14.928  -7.137  16.774  1.00  0.00     0.238 C
BRANCH   7   8
HETATM    8  N1  UNL     1      15.930  -7.127  15.757  1.00  0.00    -0.074 N
HETATM    9  C5  UNL     1      15.409  -6.494  14.566  1.00  0.00     0.272 C
HETATM   10  C6  UNL     1      16.481  -8.416  15.450  1.00  0.00     0.272 C
BRANCH   8  11
HETATM   11  C4  UNL     1      17.076  -6.339  16.264  1.00  0.00     0.242 C
BRANCH  11  12
HETATM   12  C3  UNL     1      18.191  -7.223  16.765  1.00  0.00     0.081 C
BRANCH  12  13
HETATM   13  C2  UNL     1      18.462  -6.808  18.162  1.00  0.00     0.003 C
HETATM   14  C1  UNL     1      19.219  -5.570  18.438  1.00  0.00     0.065 C
HETATM   15  N6  UNL     1      18.044  -7.515  19.145  1.00  0.00    -0.295 N
ATOM     16  H6  UNL     1      18.252  -7.195  20.091  1.00  0.00     0.187 HD
BRANCH  15  17
HETATM   17  N7  UNL     1      17.321  -8.699  18.993  1.00  0.00    -0.249 N
HETATM   18  N8  UNL     1      17.250  -9.473  19.983  1.00  0.00    -0.331 N
ATOM     19  H82 UNL     1      17.711  -9.229  20.859  1.00  0.00     0.178 HD
ATOM     20  H81 UNL     1      16.721 -10.339  19.871  1.00  0.00     0.178 HD
ATOM     21  H7  UNL     1      16.865  -8.929  18.109  1.00  0.00     0.207 HD
ENDBRANCH  15  17
ENDBRANCH  12  13
ENDBRANCH  11  12
ENDBRANCH   8  11
ENDBRANCH   7   8
ENDBRANCH   6   7
ENDBRANCH   5   6
ENDBRANCH   1   5
BRANCH   1  22
HETATM   22  C10 UNL     1      13.310  -4.134  19.717  1.00  0.00     0.215 C
HETATM   23  C11 UNL     1      13.702  -2.704  19.940  1.00  0.00     0.038 C
HETATM   24  C12 UNL     1      14.599  -2.706  21.184  1.00  0.00     0.037 C
HETATM   25  C13 UNL     1      14.595  -4.104  21.695  1.00  0.00     0.208 C
HETATM   26  C14 UNL     1      14.373  -4.912  20.404  1.00  0.00     0.145 C
BRANCH  25  27
HETATM   27  N3  UNL     1      13.569  -4.377  22.662  1.00  0.00    -0.073 N
ATOM     28  H33 UNL     1      13.512  -5.379  22.848  1.00  0.00     0.274 HD
ATOM     29  H32 UNL     1      13.850  -4.044  23.584  1.00  0.00     0.274 HD
ATOM     30  H31 UNL     1      12.650  -4.008  22.416  1.00  0.00     0.274 HD
ENDBRANCH  25  27
BRANCH  26  31
HETATM   31  N4  UNL     1      13.911  -6.209  20.877  1.00  0.00    -0.352 N
HETATM   32  C15 UNL     1      14.765  -7.257  21.262  1.00  0.00     0.219 C
HETATM   33  O1  UNL     1      16.029  -7.169  21.233  1.00  0.00    -0.274 OA
ATOM     34  H4  UNL     1      12.905  -6.367  20.933  1.00  0.00     0.163 HD
BRANCH  32  35
HETATM   35  C16 UNL     1      14.202  -8.541  21.728  1.00  0.00     0.130 C
BRANCH  35  36
HETATM   36  C17 UNL     1      14.816  -9.019  23.004  1.00  0.00     0.238 C
BRANCH  36  37
HETATM   37  N5  UNL     1      13.854  -9.856  23.692  1.00  0.00    -0.079 N
ATOM     38  H53 UNL     1      13.257  -9.326  24.328  1.00  0.00     0.274 HD
ATOM     39  H52 UNL     1      13.123 -10.204  23.072  1.00  0.00     0.274 HD
ATOM     40  H51 UNL     1      14.359 -10.607  24.164  1.00  0.00     0.274 HD
ENDBRANCH  36  37
ENDBRANCH  35  36
ENDBRANCH  32  35
ENDBRANCH  26  31
ENDBRANCH   1  22
TORSDOF 14
ENDMDL