MODEL 5
REMARK VINA RESULT: -6.893581450      1.849      2.371
REMARK  4 active torsions:
REMARK  status: ('A' for Active; 'I' for Inactive)
REMARK    1  A    between atoms: N1_1  and  C1_4
REMARK    2  A    between atoms: C2_7  and  C3_8
REMARK    3  A    between atoms: C3_8  and  S1_9
REMARK    4  A    between atoms: S1_9  and  C4_11
ROOT
HETATM    1  C1  UNL     1      17.116  -6.294  20.219  1.00  0.00     0.675 A
HETATM    2  N2  UNL     1      16.429  -6.795  21.240  1.00  0.00    -0.195 N
ATOM      3  H2  UNL     1      16.448  -7.806  21.375  1.00  0.00     0.184 HD
HETATM    4  C2  UNL     1      15.707  -6.060  22.111  1.00  0.00     0.040 A
HETATM    5  C9  UNL     1      15.696  -4.701  21.912  1.00  0.00     0.044 A
HETATM    6  C10 UNL     1      16.401  -4.168  20.863  1.00  0.00     0.108 A
HETATM    7  N4  UNL     1      17.099  -4.962  20.033  1.00  0.00    -0.202 N
ATOM      8  H4  UNL     1      17.618  -4.552  19.257  1.00  0.00     0.183 HD
ENDROOT
BRANCH   4   9
HETATM    9  C3  UNL     1      15.014  -6.770  23.172  1.00  0.00     0.173 C
BRANCH   9  10
HETATM   10  S1  UNL     1      15.079  -8.471  23.235  1.00  0.00     0.072 S
HETATM   11  O1  UNL     1      14.839  -9.378  21.939  1.00  0.00    -0.251 OA
BRANCH  10  12
HETATM   12  C4  UNL     1      16.242  -9.042  24.387  1.00  0.00     0.100 A
HETATM   13  C5  UNL     1      17.556  -8.647  24.236  1.00  0.00     0.039 A
HETATM   14  C6  UNL     1      18.543  -9.072  25.131  1.00  0.00     0.004 A
HETATM   15  C7  UNL     1      18.176  -9.899  26.172  1.00  0.00     0.017 A
HETATM   16  C8  UNL     1      16.847 -10.282  26.300  1.00  0.00     0.089 A
HETATM   17  N3  UNL     1      15.933  -9.851  25.420  1.00  0.00    -0.359 N
ATOM     18  H3  UNL     1      14.964 -10.147  25.537  1.00  0.00     0.166 HD
ENDBRANCH  10  12
ENDBRANCH   9  10
ENDBRANCH   4   9
BRANCH   1  19
HETATM   19  N1  UNL     1      17.803  -7.018  19.394  1.00  0.00    -0.234 N
ATOM     20  H12 UNL     1      18.168  -7.910  19.726  1.00  0.00     0.174 HD
ATOM     21  H11 UNL     1      17.998  -6.745  18.431  1.00  0.00     0.174 HD
ENDBRANCH   1  19
TORSDOF 4
ENDMDL