MODEL 5
REMARK VINA RESULT: -7.276860306      1.687      2.063
REMARK  5 active torsions:
REMARK  status: ('A' for Active; 'I' for Inactive)
REMARK    1  A    between atoms: N1_1  and  C1_4
REMARK    2  A    between atoms: C4_9  and  O1_10
REMARK    3  A    between atoms: O1_10  and  C5_11
REMARK    4  A    between atoms: C5_11  and  C6_12
REMARK    5  A    between atoms: N3_18  and  O2_19
ROOT
HETATM    1  C1  UNL     1      13.724  -7.126  20.584  1.00  0.00     0.704 A
HETATM    2  N2  UNL     1      13.333  -5.915  21.017  1.00  0.00    -0.200 N
ATOM      3  H2  UNL     1      12.698  -5.373  20.430  1.00  0.00     0.183 HD
HETATM    4  C2  UNL     1      13.735  -5.380  22.183  1.00  0.00     0.110 A
HETATM    5  C3  UNL     1      14.595  -6.113  22.972  1.00  0.00     0.076 A
HETATM    6  C4  UNL     1      14.990  -7.357  22.516  1.00  0.00     0.189 A
HETATM    7  N3  UNL     1      14.556  -7.842  21.344  1.00  0.00    -0.029 N
ENDROOT
BRANCH   6   8
HETATM    8  O1  UNL     1      15.853  -8.147  23.261  1.00  0.00    -0.329 OA
BRANCH   8   9
HETATM    9  C5  UNL     1      15.375  -8.983  24.296  1.00  0.00     0.216 C
BRANCH   9  10
HETATM   10  C6  UNL     1      16.564  -9.429  25.100  1.00  0.00    -0.034 A
HETATM   11  C7  UNL     1      16.419 -10.239  26.211  1.00  0.00     0.009 A
HETATM   12  C8  UNL     1      17.479 -10.669  26.974  1.00  0.00     0.001 A
HETATM   13  C9  UNL     1      18.752 -10.269  26.605  1.00  0.00     0.000 A
HETATM   14  C10 UNL     1      18.936  -9.461  25.501  1.00  0.00     0.001 A
HETATM   15  C11 UNL     1      17.850  -9.048  24.759  1.00  0.00     0.009 A
ENDBRANCH   9  10
ENDBRANCH   8   9
ENDBRANCH   6   8
BRANCH   7  16
HETATM   16  O2  UNL     1      14.976  -9.096  20.920  1.00  0.00    -0.267 OA
ATOM     17  H2  UNL     1      15.164  -9.774  21.558  1.00  0.00     0.246 HD
ENDBRANCH   7  16
BRANCH   1  18
HETATM   18  N1  UNL     1      13.341  -7.645  19.467  1.00  0.00    -0.232 N
ATOM     19  H12 UNL     1      13.488  -7.099  18.618  1.00  0.00     0.174 HD
ATOM     20  H11 UNL     1      12.902  -8.563  19.389  1.00  0.00     0.174 HD
ENDBRANCH   1  18
TORSDOF 5
ENDMDL