MODEL 3
REMARK VINA RESULT: -6.971293417      1.530      1.748
REMARK  4 active torsions:
REMARK  status: ('A' for Active; 'I' for Inactive)
REMARK    1  A    between atoms: N1_1  and  C1_5
REMARK    2  A    between atoms: C1_5  and  C2_6
REMARK    3  A    between atoms: C2_6  and  N2_7
REMARK    4  A    between atoms: C3_9  and  C4_10
ROOT
HETATM    1  C4  UNL     1      15.810  -8.362  23.009  1.00  0.00     0.048 A
HETATM    2  C5  UNL     1      15.503  -9.115  24.148  1.00  0.00     0.032 A
HETATM    3  C6  UNL     1      16.562  -9.448  24.966  1.00  0.00    -0.008 A
HETATM    4  C7  UNL     1      16.345 -10.194  26.116  1.00  0.00     0.014 A
HETATM    5  C8  UNL     1      17.363 -10.557  26.974  1.00  0.00     0.001 A
HETATM    6  C9  UNL     1      18.666 -10.163  26.679  1.00  0.00     0.002 A
HETATM    7  C10 UNL     1      18.879  -9.417  25.527  1.00  0.00     0.030 A
HETATM    8  C11 UNL     1      17.856  -9.061  24.682  1.00  0.00     0.045 A
HETATM    9  N3  UNL     1      18.091  -8.338  23.573  1.00  0.00    -0.322 N
ATOM     10  H3  UNL     1      19.046  -8.050  23.359  1.00  0.00     0.169 HD
HETATM   11  C12 UNL     1      17.087  -7.984  22.734  1.00  0.00     0.257 A
HETATM   12  O1  UNL     1      17.319  -7.304  21.694  1.00  0.00    -0.267 OA
ENDROOT
BRANCH   1  13
HETATM   13  C3  UNL     1      14.711  -7.992  22.119  1.00  0.00     0.100 C
HETATM   14  N2  UNL     1      14.567  -6.743  21.824  1.00  0.00    -0.396 N
ATOM     15  H2  UNL     1      15.203  -6.041  22.203  1.00  0.00     0.158 HD
BRANCH  14  16
HETATM   16  C2  UNL     1      13.481  -6.360  20.942  1.00  0.00     0.146 C
BRANCH  16  17
HETATM   17  C1  UNL     1      13.180  -4.876  21.195  1.00  0.00     0.249 C
BRANCH  17  18
HETATM   18  N1  UNL     1      13.145  -4.711  22.656  1.00  0.00    -0.078 N
ATOM     19  H13 UNL     1      13.641  -5.445  23.161  1.00  0.00     0.274 HD
ATOM     20  H12 UNL     1      13.708  -3.929  22.990  1.00  0.00     0.274 HD
ATOM     21  H11 UNL     1      12.159  -4.639  22.909  1.00  0.00     0.274 HD
ENDBRANCH  17  18
ENDBRANCH  16  17
ENDBRANCH  14  16
ENDBRANCH   1  13
TORSDOF 4
ENDMDL