MODEL 1
REMARK VINA RESULT: -6.560352714      0.000      0.000
REMARK  4 active torsions:
REMARK  status: ('A' for Active; 'I' for Inactive)
REMARK    1  A    between atoms: C2_2  and  C3_3
REMARK    2  A    between atoms: C3_3  and  C4_4
REMARK    3  A    between atoms: C4_4  and  N1_5
REMARK    4  A    between atoms: N1_5  and  C5_7
ROOT
HETATM    1  C5  UNL     1      13.789  -5.784  22.490  1.00  0.00     0.117 A
HETATM    2  N2  UNL     1      14.489  -6.134  23.590  1.00  0.00    -0.338 N
ATOM      3  H2  UNL     1      14.498  -5.525  24.408  1.00  0.00     0.168 HD
HETATM    4  C6  UNL     1      15.174  -7.291  23.598  1.00  0.00     0.183 A
HETATM    5  N3  UNL     1      15.183  -8.126  22.523  1.00  0.00    -0.338 N
ATOM      6  H3  UNL     1      15.713  -8.996  22.564  1.00  0.00     0.168 HD
HETATM    7  C7  UNL     1      14.495  -7.813  21.405  1.00  0.00     0.121 A
HETATM    8  N4  UNL     1      14.326  -8.429  20.224  1.00  0.00    -0.350 N
ATOM      9  H4  UNL     1      14.740  -9.326  19.971  1.00  0.00     0.166 HD
HETATM   10  C8  UNL     1      13.530  -7.693  19.419  1.00  0.00     0.113 A
HETATM   11  C9  UNL     1      13.185  -6.562  20.130  1.00  0.00     0.077 A
HETATM   12  C10 UNL     1      12.350  -5.478  19.690  1.00  0.00     0.102 C
HETATM   13  N5  UNL     1      11.665  -4.604  19.315  1.00  0.00    -0.191 NA
HETATM   14  C11 UNL     1      13.785  -6.630  21.373  1.00  0.00     0.074 A
ENDROOT
BRANCH   1  15
HETATM   15  N1  UNL     1      13.119  -4.720  22.391  1.00  0.00    -0.375 N
ATOM     16  H1  UNL     1      12.108  -4.829  22.454  1.00  0.00     0.161 HD
BRANCH  15  17
HETATM   17  C4  UNL     1      13.582  -3.395  22.205  1.00  0.00     0.125 C
BRANCH  17  18
HETATM   18  C3  UNL     1      14.962  -3.324  21.629  1.00  0.00     0.046 C
BRANCH  18  19
HETATM   19  C2  UNL     1      15.007  -2.903  20.217  1.00  0.00    -0.035 C
HETATM   20  C1  UNL     1      14.122  -2.126  19.641  1.00  0.00     0.007 C
ENDBRANCH  18  19
ENDBRANCH  17  18
ENDBRANCH  15  17
ENDBRANCH   1  15
TORSDOF 4
ENDMDL