MODEL 5
REMARK VINA RESULT: -6.987128411      2.818      3.999
REMARK  3 active torsions:
REMARK  status: ('A' for Active; 'I' for Inactive)
REMARK    1  A    between atoms: N3_10  and  C7_12
REMARK    2  A    between atoms: C7_12  and  C8_13
REMARK    3  A    between atoms: C8_13  and  C9_14
ROOT
HETATM    1  N1  UNL     1      13.173  -4.030  22.450  1.00  0.00    -0.191 NA
HETATM    2  C1  UNL     1      13.551  -5.134  22.311  1.00  0.00     0.103 C
HETATM    3  C2  UNL     1      14.032  -6.477  22.151  1.00  0.00     0.088 A
HETATM    4  C3  UNL     1      14.722  -7.126  23.154  1.00  0.00     0.028 A
HETATM    5  C4  UNL     1      15.151  -8.413  22.924  1.00  0.00     0.019 A
HETATM    6  C5  UNL     1      14.907  -9.051  21.733  1.00  0.00     0.090 A
HETATM    7  N2  UNL     1      14.236  -8.420  20.760  1.00  0.00    -0.351 N
ATOM      8  H2  UNL     1      14.053  -8.893  19.876  1.00  0.00     0.166 HD
HETATM    9  C6  UNL     1      13.807  -7.168  20.953  1.00  0.00     0.121 A
HETATM   10  N3  UNL     1      13.158  -6.501  20.064  1.00  0.00    -0.375 N
ATOM     11  H3  UNL     1      12.854  -5.549  20.268  1.00  0.00     0.161 HD
ENDROOT
BRANCH  10  12
HETATM   12  C7  UNL     1      12.856  -7.089  18.786  1.00  0.00     0.127 C
BRANCH  12  13
HETATM   13  C8  UNL     1      12.864  -6.072  17.658  1.00  0.00     0.078 C
BRANCH  13  14
HETATM   14  C9  UNL     1      11.492  -5.577  17.450  1.00  0.00     0.028 A
HETATM   15  C10 UNL     1      10.955  -4.476  18.080  1.00  0.00     0.045 A
HETATM   16  C11 UNL     1       9.665  -4.369  17.605  1.00  0.00     0.109 A
HETATM   17  N4  UNL     1       9.494  -5.365  16.751  1.00  0.00    -0.312 N
HETATM   18  N5  UNL     1      10.568  -6.112  16.632  1.00  0.00    -0.305 N
ATOM     19  H4  UNL     1       8.626  -5.535  16.243  1.00  0.00     0.186 HD
ATOM     20  H5  UNL     1      10.680  -6.934  16.038  1.00  0.00     0.186 HD
ENDBRANCH  13  14
ENDBRANCH  12  13
ENDBRANCH  10  12
TORSDOF 3
ENDMDL