MODEL 5
REMARK VINA RESULT: -6.470512392      3.036      4.483
REMARK  5 active torsions:
REMARK  status: ('A' for Active; 'I' for Inactive)
REMARK    1  A    between atoms: C1_1  and  C6_10
REMARK    2  A    between atoms: C2_2  and  C3_3
REMARK    3  A    between atoms: C6_10  and  N3_11
REMARK    4  A    between atoms: N3_11  and  C7_14
REMARK    5  A    between atoms: C7_14  and  C8_15
ROOT
HETATM    1  N3  UNL     1      16.023  -8.290  22.608  1.00  0.00    -0.061 N
ATOM      2  H31 UNL     1      15.899  -7.291  22.442  1.00  0.00     0.278 HD
ATOM      3  H32 UNL     1      17.043  -8.296  22.618  1.00  0.00     0.278 HD
ENDROOT
BRANCH   1   4
HETATM    4  C6  UNL     1      15.467  -9.106  21.568  1.00  0.00     0.326 C
BRANCH   4   5
HETATM    5  C1  UNL     1      14.548  -8.277  20.786  1.00  0.00    -0.072 C
HETATM    6  C2  UNL     1      13.772  -7.603  20.136  1.00  0.00    -0.046 C
BRANCH   6   7
HETATM    7  C3  UNL     1      12.837  -6.823  19.370  1.00  0.00     0.102 A
HETATM    8  C4  UNL     1      12.544  -5.469  19.520  1.00  0.00     0.059 A
HETATM    9  C5  UNL     1      11.589  -5.106  18.586  1.00  0.00     0.110 A
HETATM   10  N1  UNL     1      11.323  -6.228  17.895  1.00  0.00    -0.311 N
HETATM   11  N2  UNL     1      12.058  -7.234  18.359  1.00  0.00    -0.293 N
ATOM     12  H1  UNL     1      10.655  -6.298  17.127  1.00  0.00     0.186 HD
ATOM     13  H2  UNL     1      12.034  -8.186  17.996  1.00  0.00     0.187 HD
ENDBRANCH   6   7
ENDBRANCH   4   5
ENDBRANCH   1   4
BRANCH   1  14
HETATM   14  C7  UNL     1      15.432  -8.740  23.876  1.00  0.00     0.273 C
BRANCH  14  15
HETATM   15  C8  UNL     1      16.594  -9.162  24.723  1.00  0.00    -0.017 A
HETATM   16  C9  UNL     1      16.423  -9.999  25.796  1.00  0.00     0.011 A
HETATM   17  C10 UNL     1      17.532 -10.351  26.536  1.00  0.00     0.018 A
HETATM   18  C11 UNL     1      18.773  -9.860  26.184  1.00  0.00     0.087 A
HETATM   19  N4  UNL     1      18.887  -9.045  25.125  1.00  0.00    -0.375 N
HETATM   20  C12 UNL     1      17.835  -8.675  24.375  1.00  0.00     0.096 A
ATOM     21  H4  UNL     1      19.810  -8.691  24.879  1.00  0.00     0.164 HD
ENDBRANCH  14  15
ENDBRANCH   1  14
TORSDOF 5
ENDMDL