MODEL 5
REMARK VINA RESULT: -6.740022270      2.069      2.375
REMARK  4 active torsions:
REMARK  status: ('A' for Active; 'I' for Inactive)
REMARK    1  A    between atoms: C4_5  and  N2_6
REMARK    2  A    between atoms: N2_6  and  C5_8
REMARK    3  A    between atoms: C5_8  and  C6_9
REMARK    4  A    between atoms: C6_9  and  C7_10
ROOT
HETATM    1  N1  UNL     1      13.954  -3.197  21.490  1.00  0.00    -0.190 NA
HETATM    2  C1  UNL     1      13.975  -4.340  21.345  1.00  0.00     0.117 C
HETATM    3  C2  UNL     1      14.023  -5.761  21.179  1.00  0.00     0.118 A
HETATM    4  C3  UNL     1      14.153  -6.603  22.296  1.00  0.00     0.089 A
HETATM    5  C4  UNL     1      14.199  -7.957  22.131  1.00  0.00     0.108 A
HETATM    6  N4  UNL     1      14.112  -8.427  20.855  1.00  0.00    -0.339 N
ATOM      7  H4  UNL     1      14.142  -9.435  20.705  1.00  0.00     0.168 HD
HETATM    8  C11 UNL     1      13.988  -7.632  19.797  1.00  0.00     0.183 A
HETATM    9  N5  UNL     1      13.944  -6.303  19.956  1.00  0.00    -0.344 N
ATOM     10  H5  UNL     1      13.849  -5.699  19.140  1.00  0.00     0.167 HD
ENDROOT
BRANCH   5  11
HETATM   11  N2  UNL     1      14.310  -8.773  23.029  1.00  0.00    -0.355 N
ATOM     12  H2  UNL     1      13.450  -9.322  23.030  1.00  0.00     0.166 HD
BRANCH  11  13
HETATM   13  C5  UNL     1      15.093  -9.273  24.037  1.00  0.00     0.068 C
BRANCH  13  14
HETATM   14  C6  UNL     1      16.520  -8.770  24.166  1.00  0.00     0.101 C
BRANCH  14  15
HETATM   15  C7  UNL     1      17.228  -9.475  25.257  1.00  0.00     0.013 A
HETATM   16  C8  UNL     1      18.570  -9.387  25.516  1.00  0.00     0.026 A
HETATM   17  C9  UNL     1      18.815 -10.206  26.626  1.00  0.00     0.019 A
HETATM   18  C10 UNL     1      17.612 -10.743  26.974  1.00  0.00     0.088 A
HETATM   19  N3  UNL     1      16.650 -10.294  26.139  1.00  0.00    -0.369 N
ATOM     20  H3  UNL     1      15.660 -10.538  26.176  1.00  0.00     0.165 HD
ENDBRANCH  14  15
ENDBRANCH  13  14
ENDBRANCH  11  13
ENDBRANCH   5  11
TORSDOF 4
ENDMDL