MODEL 4
REMARK VINA RESULT: -6.664974468      3.796      6.299
REMARK  3 active torsions:
REMARK  status: ('A' for Active; 'I' for Inactive)
REMARK    1  A    between atoms: C3_3  and  O1_4
REMARK    2  A    between atoms: O1_4  and  C4_5
REMARK    3  A    between atoms: C4_5  and  N1_6
ROOT
HETATM    1  C1  UNL     1      18.765  -9.867  26.294  1.00  0.00     0.014 C
HETATM    2  C2  UNL     1      18.458  -9.193  25.341  1.00  0.00    -0.091 C
HETATM    3  C3  UNL     1      18.077  -8.358  24.182  1.00  0.00     0.262 C
ENDROOT
BRANCH   3   4
HETATM    4  O1  UNL     1      16.831  -7.828  24.375  1.00  0.00    -0.360 OA
BRANCH   4   5
HETATM    5  C4  UNL     1      15.797  -8.688  24.022  1.00  0.00     0.299 C
BRANCH   5   6
HETATM    6  N1  UNL     1      15.100  -8.189  22.852  1.00  0.00    -0.329 N
HETATM    7  C5  UNL     1      15.047  -9.012  21.776  1.00  0.00     0.186 A
HETATM    8  N2  UNL     1      14.434  -8.669  20.635  1.00  0.00    -0.336 N
HETATM    9  C6  UNL     1      13.847  -7.469  20.546  1.00  0.00     0.137 A
ATOM     10  H2  UNL     1      14.416  -9.314  19.845  1.00  0.00     0.168 HD
HETATM   11  N3  UNL     1      13.172  -6.838  19.585  1.00  0.00    -0.317 N
HETATM   12  C8  UNL     1      13.885  -6.605  21.639  1.00  0.00     0.095 A
HETATM   13  C7  UNL     1      12.792  -5.629  20.028  1.00  0.00     0.178 A
ATOM     14  H3  UNL     1      12.975  -7.216  18.658  1.00  0.00     0.170 HD
HETATM   15  S1  UNL     1      11.945  -4.527  19.172  1.00  0.00    -0.040 SA
HETATM   16  N4  UNL     1      13.228  -5.478  21.289  1.00  0.00    -0.329 N
ATOM     17  H4  UNL     1      13.087  -4.657  21.879  1.00  0.00     0.168 HD
HETATM   18  C9  UNL     1      14.523  -6.978  22.805  1.00  0.00     0.127 A
ENDBRANCH   5   6
ENDBRANCH   4   5
ENDBRANCH   3   4
TORSDOF 3
ENDMDL