MODEL 5
REMARK VINA RESULT: -7.303876149      4.147      7.940
REMARK  3 active torsions:
REMARK  status: ('A' for Active; 'I' for Inactive)
REMARK    1  A    between atoms: C3_4  and  C4_5
REMARK    2  A    between atoms: C7_8  and  C8_9
REMARK    3  A    between atoms: N2_10  and  N3_12
ROOT
HETATM    1  N1  UNL     1       9.485  -4.859  18.332  1.00  0.00    -0.192 NA
HETATM    2  C1  UNL     1      10.594  -4.453  18.345  1.00  0.00     0.087 C
HETATM    3  C2  UNL     1      11.890  -3.930  18.328  1.00  0.00     0.094 C
HETATM    4  C3  UNL     1      12.976  -4.305  18.848  1.00  0.00     0.022 C
ENDROOT
BRANCH   4   5
HETATM    5  C4  UNL     1      13.294  -5.441  19.674  1.00  0.00    -0.036 A
HETATM    6  C5  UNL     1      13.567  -5.179  21.045  1.00  0.00     0.012 A
HETATM    7  C6  UNL     1      13.871  -6.201  21.869  1.00  0.00     0.013 A
HETATM    8  C7  UNL     1      13.940  -7.515  21.474  1.00  0.00    -0.019 A
HETATM    9  C10 UNL     1      13.676  -7.751  20.150  1.00  0.00     0.013 A
HETATM   10  C11 UNL     1      13.361  -6.749  19.268  1.00  0.00     0.012 A
BRANCH   8  11
HETATM   11  C8  UNL     1      14.276  -8.575  22.416  1.00  0.00     0.118 C
HETATM   12  N2  UNL     1      14.613  -8.240  23.603  1.00  0.00    -0.309 N
ATOM     13  H2  UNL     1      14.641  -7.254  23.864  1.00  0.00     0.186 HD
BRANCH  12  14
HETATM   14  N3  UNL     1      14.944  -9.216  24.545  1.00  0.00    -0.276 N
HETATM   15  C9  UNL     1      16.151  -9.293  24.990  1.00  0.00     0.215 C
HETATM   16  N4  UNL     1      17.155  -8.393  24.534  1.00  0.00    -0.065 NA
HETATM   17  N5  UNL     1      16.524 -10.272  25.947  1.00  0.00    -0.065 NA
ATOM     18  H3  UNL     1      14.233  -9.866  24.880  1.00  0.00     0.189 HD
ENDBRANCH  12  14
ENDBRANCH   8  11
ENDBRANCH   4   5
TORSDOF 3
ENDMDL