MODEL 1
REMARK VINA RESULT: -8.358996230      0.000      0.000
REMARK  14 active torsions:
REMARK  status: ('A' for Active; 'I' for Inactive)
REMARK    1  A    between atoms: C3_3  and  N1_4
REMARK    2  A    between atoms: N1_4  and  C4_5
REMARK    3  A    between atoms: N1_4  and  C30_42
REMARK    4  A    between atoms: C4_5  and  C5_6
REMARK    5  A    between atoms: C6_7  and  N2_8
REMARK    6  A    between atoms: N2_8  and  C7_9
REMARK    7  A    between atoms: N2_8  and  C25_34
REMARK    8  A    between atoms: C7_9  and  C8_10
REMARK    9  A    between atoms: C8_10  and  N3_11
REMARK   10  A    between atoms: N3_11  and  C10_13
REMARK   11  A    between atoms: C10_13  and  C11_14
REMARK   12  A    between atoms: C14_17  and  C15_18
REMARK   13  A    between atoms: C17_22  and  C18_23
REMARK   14  A    between atoms: N6_39  and  O2_40
ROOT
HETATM    1  C1  UNL     1      26.099  10.696  23.163  1.00  0.00     0.014 C
HETATM    2  C2  UNL     1      25.586  11.517  23.889  1.00  0.00    -0.097 C
HETATM    3  C3  UNL     1      24.948  12.492  24.767  1.00  0.00     0.222 C
ENDROOT
BRANCH   3   4
HETATM    4  N1  UNL     1      26.056  12.942  25.703  1.00  0.00    -0.332 N
BRANCH   4   5
HETATM    5  C4  UNL     1      27.297  12.433  25.359  1.00  0.00     0.095 C
BRANCH   5   6
HETATM    6  C5  UNL     1      28.626  12.860  25.749  1.00  0.00     0.034 C
HETATM    7  C6  UNL     1      29.259  14.123  25.436  1.00  0.00     0.094 C
BRANCH   7   8
HETATM    8  N2  UNL     1      29.553  14.747  24.223  1.00  0.00    -0.340 N
BRANCH   8   9
HETATM    9  C7  UNL     1      30.599  15.740  24.078  1.00  0.00     0.160 C
BRANCH   9  10
HETATM   10  C8  UNL     1      31.498  15.798  25.287  1.00  0.00     0.292 C
BRANCH  10  11
HETATM   11  N3  UNL     1      32.424  14.777  25.497  1.00  0.00     0.089 N
HETATM   12  C9  UNL     1      32.447  14.463  26.924  1.00  0.00     0.310 C
BRANCH  11  13
HETATM   13  C10 UNL     1      33.787  15.004  25.082  1.00  0.00     0.310 C
BRANCH  13  14
HETATM   14  C11 UNL     1      34.192  13.967  24.096  1.00  0.00    -0.030 A
HETATM   15  C12 UNL     1      33.198  13.140  23.585  1.00  0.00     0.010 A
HETATM   16  C13 UNL     1      33.500  12.171  22.655  1.00  0.00     0.016 A
HETATM   17  C14 UNL     1      34.781  11.969  22.189  1.00  0.00     0.015 A
HETATM   18  C23 UNL     1      35.744  12.812  22.722  1.00  0.00     0.016 A
HETATM   19  C24 UNL     1      35.461  13.787  23.653  1.00  0.00     0.010 A
BRANCH  17  20
HETATM   20  C15 UNL     1      35.090  10.940  21.199  1.00  0.00     0.158 A
HETATM   21  N4  UNL     1      34.685   9.653  21.328  1.00  0.00    -0.343 N
HETATM   22  C16 UNL     1      35.119   8.973  20.275  1.00  0.00     0.128 A
ATOM     23  H4  UNL     1      34.140   9.272  22.102  1.00  0.00     0.167 HD
HETATM   24  C17 UNL     1      35.809   9.873  19.482  1.00  0.00     0.104 A
HETATM   25  O1  UNL     1      35.755  11.032  20.089  1.00  0.00    -0.291 OA
BRANCH  24  26
HETATM   26  C18 UNL     1      36.451   9.535  18.223  1.00  0.00     0.015 A
HETATM   27  C19 UNL     1      36.698  10.509  17.287  1.00  0.00     0.019 A
HETATM   28  C20 UNL     1      37.307  10.183  16.096  1.00  0.00     0.043 A
HETATM   29  C21 UNL     1      37.670   8.877  15.848  1.00  0.00     0.103 A
HETATM   30 CL1  UNL     1      38.452   8.438  14.337  1.00  0.00    -0.065 Cl
HETATM   31  N5  UNL     1      37.420   7.936  16.782  1.00  0.00    -0.356 N
HETATM   32  C22 UNL     1      36.832   8.242  17.933  1.00  0.00     0.103 A
ATOM     33  H5  UNL     1      37.687   6.969  16.601  1.00  0.00     0.166 HD
ENDBRANCH  24  26
ENDBRANCH  17  20
ENDBRANCH  13  14
ENDBRANCH  11  13
ENDBRANCH  10  11
ENDBRANCH   9  10
ENDBRANCH   8   9
BRANCH   8  34
HETATM   34  C25 UNL     1      28.803  14.324  23.043  1.00  0.00     0.134 A
HETATM   35  C26 UNL     1      29.427  13.477  22.136  1.00  0.00     0.051 A
HETATM   36  C27 UNL     1      28.737  13.035  21.015  1.00  0.00     0.005 A
HETATM   37  C28 UNL     1      27.445  13.431  20.801  1.00  0.00     0.020 A
HETATM   38  C29 UNL     1      26.860  14.264  21.712  1.00  0.00     0.125 A
HETATM   39  N6  UNL     1      27.541  14.698  22.815  1.00  0.00    -0.219 N
BRANCH  39  40
HETATM   40  O2  UNL     1      26.836  15.530  23.634  1.00  0.00    -0.282 OA
ATOM     41  H2  UNL     1      25.890  15.620  23.611  1.00  0.00     0.245 HD
ENDBRANCH  39  40
ENDBRANCH   8  34
ENDBRANCH   7   8
ENDBRANCH   5   6
ENDBRANCH   4   5
BRANCH   4  42
HETATM   42  C30 UNL     1      25.673  13.849  26.691  1.00  0.00     0.107 A
HETATM   43  C31 UNL     1      25.305  13.590  27.981  1.00  0.00     0.050 A
HETATM   44  C32 UNL     1      24.955  14.580  28.903  1.00  0.00     0.029 A
HETATM   45  C33 UNL     1      24.980  15.885  28.493  1.00  0.00     0.049 A
HETATM   46 CL2  UNL     1      24.554  17.172  29.598  1.00  0.00    -0.083 Cl
HETATM   47  C34 UNL     1      25.345  16.148  27.207  1.00  0.00     0.113 A
HETATM   48  N7  UNL     1      25.673  15.184  26.353  1.00  0.00    -0.351 N
ATOM     49  H7  UNL     1      25.937  15.446  25.403  1.00  0.00     0.166 HD
ENDBRANCH   4  42
ENDBRANCH   3   4
TORSDOF 14
ENDMDL