MODEL 1
REMARK VINA RESULT: -6.638224372      0.000      0.000
REMARK  15 active torsions:
REMARK  status: ('A' for Active; 'I' for Inactive)
REMARK    1  A    between atoms: C2_2  and  N1_3
REMARK    2  A    between atoms: N1_3  and  C3_4
REMARK    3  A    between atoms: N1_3  and  C5_6
REMARK    4  A    between atoms: C5_6  and  C6_7
REMARK    5  A    between atoms: C6_7  and  S1_8
REMARK    6  A    between atoms: S1_8  and  C7_9
REMARK    7  A    between atoms: C8_10  and  C9_11
REMARK    8  A    between atoms: C15_18  and  C16_19
REMARK    9  A    between atoms: C16_19  and  O1_20
REMARK   10  A    between atoms: O1_20  and  C17_21
REMARK   11  A    between atoms: C17_21  and  C20_25
REMARK   12  A    between atoms: C20_25  and  N3_26
REMARK   13  A    between atoms: N3_26  and  C21_27
REMARK   14  A    between atoms: N3_26  and  C23_29
REMARK   15  A    between atoms: N4_33  and  C26_34
ROOT
HETATM    1  C17 UNL     1      26.031  19.394  28.587  1.00  0.00     0.171 C
HETATM    2  C18 UNL     1      27.194  18.938  29.393  1.00  0.00     0.064 C
HETATM    3  C19 UNL     1      25.105  20.173  29.443  1.00  0.00     0.099 C
HETATM    4  N2  UNL     1      24.375  20.773  30.111  1.00  0.00    -0.194 NA
ENDROOT
BRANCH   1   5
HETATM    5  O1  UNL     1      25.349  18.250  28.169  1.00  0.00    -0.363 OA
BRANCH   5   6
HETATM    6  C16 UNL     1      26.049  17.073  28.310  1.00  0.00     0.185 C
BRANCH   6   7
HETATM    7  C15 UNL     1      26.059  16.407  26.958  1.00  0.00     0.113 C
HETATM    8  C8  UNL     1      25.576  15.007  26.932  1.00  0.00     0.067 C
HETATM    9  C7  UNL     1      26.169  14.511  25.632  1.00  0.00     0.164 C
HETATM   10  N4  UNL     1      27.466  15.072  25.611  1.00  0.00    -0.303 N
HETATM   11  C25 UNL     1      27.371  16.325  26.321  1.00  0.00     0.232 C
HETATM   12  O2  UNL     1      28.273  17.214  26.387  1.00  0.00    -0.272 OA
BRANCH   8  13
HETATM   13  C9  UNL     1      25.882  14.180  28.097  1.00  0.00    -0.050 A
HETATM   14  C10 UNL     1      27.166  13.763  28.433  1.00  0.00     0.009 A
HETATM   15  C11 UNL     1      27.425  12.978  29.535  1.00  0.00     0.024 A
HETATM   16  C12 UNL     1      26.388  12.573  30.359  1.00  0.00     0.034 A
HETATM   17 CL1  UNL     1      26.729  11.567  31.765  1.00  0.00    -0.084 Cl
HETATM   18  C13 UNL     1      25.101  12.966  30.058  1.00  0.00     0.024 A
HETATM   19  C14 UNL     1      24.887  13.750  28.948  1.00  0.00     0.009 A
ENDBRANCH   8  13
BRANCH   9  20
HETATM   20  S1  UNL     1      26.015  12.763  25.390  1.00  0.00    -0.137 SA
BRANCH  20  21
HETATM   21  C6  UNL     1      25.590  12.438  23.661  1.00  0.00     0.121 C
BRANCH  21  22
HETATM   22  C5  UNL     1      26.826  12.242  22.808  1.00  0.00     0.078 C
BRANCH  22  23
HETATM   23  N1  UNL     1      26.764  13.068  21.676  1.00  0.00    -0.354 N
BRANCH  23  24
HETATM   24  C2  UNL     1      25.778  14.058  21.608  1.00  0.00     0.064 C
HETATM   25  C1  UNL     1      26.424  15.407  21.368  1.00  0.00     0.055 C
ENDBRANCH  23  24
BRANCH  23  26
HETATM   26  C3  UNL     1      27.793  13.044  20.742  1.00  0.00     0.064 C
HETATM   27  C4  UNL     1      29.099  12.443  21.176  1.00  0.00     0.055 C
ENDBRANCH  23  26
ENDBRANCH  22  23
ENDBRANCH  21  22
ENDBRANCH  20  21
ENDBRANCH   9  20
BRANCH  10  28
HETATM   28  C26 UNL     1      28.700  14.618  25.044  1.00  0.00     0.040 A
HETATM   29  C27 UNL     1      29.191  15.120  23.859  1.00  0.00     0.031 A
HETATM   30  C28 UNL     1      30.380  14.672  23.326  1.00  0.00     0.026 A
HETATM   31  C29 UNL     1      31.141  13.700  23.948  1.00  0.00     0.066 A
HETATM   32  C30 UNL     1      32.388  13.239  23.378  1.00  0.00     0.101 C
HETATM   33  C31 UNL     1      30.654  13.195  25.132  1.00  0.00     0.057 A
HETATM   34  N5  UNL     1      33.391  12.888  22.921  1.00  0.00    -0.191 NA
HETATM   35 CL2  UNL     1      31.585  11.963  25.949  1.00  0.00    -0.083 Cl
HETATM   36  C32 UNL     1      29.465  13.642  25.667  1.00  0.00     0.055 A
ENDBRANCH  10  28
ENDBRANCH   6   7
ENDBRANCH   5   6
ENDBRANCH   1   5
BRANCH   1  37
HETATM   37  C20 UNL     1      26.397  20.156  27.359  1.00  0.00     0.325 C
BRANCH  37  38
HETATM   38  N3  UNL     1      26.288  21.547  27.342  1.00  0.00     0.091 N
BRANCH  38  39
HETATM   39  C21 UNL     1      25.585  21.968  26.119  1.00  0.00     0.268 C
HETATM   40  C22 UNL     1      24.628  20.912  25.637  1.00  0.00     0.037 C
ENDBRANCH  38  39
BRANCH  38  41
HETATM   41  C23 UNL     1      27.377  22.408  27.575  1.00  0.00     0.268 C
HETATM   42  C24 UNL     1      27.026  23.361  28.739  1.00  0.00     0.037 C
ENDBRANCH  38  41
ENDBRANCH  37  38
ENDBRANCH   1  37
TORSDOF 15
ENDMDL