MODEL 1
REMARK VINA RESULT: -6.609132109      0.000      0.000
REMARK  18 active torsions:
REMARK  status: ('A' for Active; 'I' for Inactive)
REMARK    1  A    between atoms: C2_2  and  C3_3
REMARK    2  A    between atoms: C3_3  and  C4_4
REMARK    3  A    between atoms: C4_4  and  C5_5
REMARK    4  A    between atoms: C5_5  and  C6_6
REMARK    5  A    between atoms: C6_6  and  C7_7
REMARK    6  A    between atoms: C7_7  and  C8_8
REMARK    7  A    between atoms: C8_8  and  C9_9
REMARK    8  A    between atoms: C9_9  and  C10_10
REMARK    9  A    between atoms: C10_10  and  C11_11
REMARK   10  A    between atoms: C11_11  and  C12_12
REMARK   11  A    between atoms: C12_12  and  O2_14
REMARK   12  A    between atoms: O2_14  and  C13_15
REMARK   13  A    between atoms: C13_15  and  C14_16
REMARK   14  A    between atoms: C17_19  and  O3_20
REMARK   15  A    between atoms: O3_20  and  C18_21
REMARK   16  A    between atoms: C18_21  and  C19_23
REMARK   17  A    between atoms: C19_23  and  C20_24
REMARK   18  A    between atoms: C20_24  and  N1_25
ROOT
HETATM    1  C14 UNL     1      27.906  12.648  26.776  1.00  0.00     0.031 C
HETATM    2  C15 UNL     1      28.948  13.326  25.866  1.00  0.00     0.018 C
HETATM    3  C16 UNL     1      30.150  13.600  26.695  1.00  0.00     0.034 C
HETATM    4  C17 UNL     1      30.058  12.749  27.929  1.00  0.00     0.141 C
HETATM    5  C25 UNL     1      28.780  11.963  27.799  1.00  0.00    -0.004 C
HETATM    6  C26 UNL     1      29.207  10.603  27.210  1.00  0.00     0.019 C
HETATM    7  C27 UNL     1      28.132  11.652  29.097  1.00  0.00     0.013 C
HETATM    8  C28 UNL     1      27.383  12.793  29.738  1.00  0.00     0.010 C
HETATM    9  C29 UNL     1      26.470  13.364  28.734  1.00  0.00     0.045 C
HETATM   10  C30 UNL     1      25.785  14.633  29.067  1.00  0.00     0.023 C
HETATM   11  C31 UNL     1      24.450  14.396  29.776  1.00  0.00     0.023 C
HETATM   12  C32 UNL     1      26.594  15.648  29.780  1.00  0.00     0.023 C
HETATM   13  C33 UNL     1      25.445  15.189  27.714  1.00  0.00     0.172 C
HETATM   14  O6  UNL     1      24.973  16.248  27.410  1.00  0.00    -0.294 OA
HETATM   15  C34 UNL     1      25.821  14.122  26.693  1.00  0.00     0.281 C
HETATM   16  F1  UNL     1      24.773  13.223  26.834  1.00  0.00    -0.238 F
HETATM   17  C35 UNL     1      27.088  13.675  27.390  1.00  0.00     0.156 C
HETATM   18  F2  UNL     1      27.856  14.855  27.473  1.00  0.00    -0.238 F
ENDROOT
BRANCH   1  19
HETATM   19  C13 UNL     1      27.225  11.662  25.862  1.00  0.00     0.192 C
BRANCH  19  20
HETATM   20  O2  UNL     1      27.401  12.035  24.513  1.00  0.00    -0.321 OA
BRANCH  20  21
HETATM   21  C12 UNL     1      26.474  11.750  23.519  1.00  0.00     0.258 C
HETATM   22  O1  UNL     1      26.524  10.631  22.985  1.00  0.00    -0.265 OA
BRANCH  21  23
HETATM   23  C11 UNL     1      25.510  12.806  23.187  1.00  0.00     0.111 C
BRANCH  23  24
HETATM   24  C10 UNL     1      26.178  14.146  22.949  1.00  0.00     0.010 C
BRANCH  24  25
HETATM   25  C9  UNL     1      26.207  14.514  21.503  1.00  0.00     0.000 C
BRANCH  25  26
HETATM   26  C8  UNL     1      27.574  14.653  20.916  1.00  0.00     0.000 C
BRANCH  26  27
HETATM   27  C7  UNL     1      28.203  13.321  20.546  1.00  0.00     0.000 C
BRANCH  27  28
HETATM   28  C6  UNL     1      29.411  13.152  21.424  1.00  0.00     0.000 C
BRANCH  28  29
HETATM   29  C5  UNL     1      29.667  14.342  22.278  1.00  0.00     0.000 C
BRANCH  29  30
HETATM   30  C4  UNL     1      30.952  14.243  23.031  1.00  0.00     0.000 C
BRANCH  30  31
HETATM   31  C3  UNL     1      31.425  12.805  22.913  1.00  0.00    -0.000 C
BRANCH  31  32
HETATM   32  C2  UNL     1      32.734  12.576  23.603  1.00  0.00    -0.005 C
HETATM   33  C1  UNL     1      32.598  11.560  24.733  1.00  0.00     0.005 C
ENDBRANCH  31  32
ENDBRANCH  30  31
ENDBRANCH  29  30
ENDBRANCH  28  29
ENDBRANCH  27  28
ENDBRANCH  26  27
ENDBRANCH  25  26
ENDBRANCH  24  25
ENDBRANCH  23  24
ENDBRANCH  21  23
ENDBRANCH  20  21
ENDBRANCH  19  20
ENDBRANCH   1  19
BRANCH   4  34
HETATM   34  O3  UNL     1      30.153  13.528  29.085  1.00  0.00    -0.315 OA
BRANCH  34  35
HETATM   35  C18 UNL     1      30.977  14.610  29.258  1.00  0.00     0.260 C
HETATM   36  O4  UNL     1      32.195  14.431  29.373  1.00  0.00    -0.265 OA
BRANCH  35  37
HETATM   37  C19 UNL     1      30.360  15.962  29.300  1.00  0.00     0.141 C
BRANCH  37  38
HETATM   38  C20 UNL     1      30.980  16.903  28.297  1.00  0.00     0.282 C
BRANCH  38  39
HETATM   39  N1  UNL     1      29.904  17.341  27.413  1.00  0.00     0.093 N
HETATM   40  C21 UNL     1      30.496  18.136  26.378  1.00  0.00     0.298 C
HETATM   41  C22 UNL     1      30.096  19.579  26.591  1.00  0.00     0.198 C
HETATM   42  O5  UNL     1      28.726  19.642  26.401  1.00  0.00    -0.388 OA
HETATM   43  C23 UNL     1      28.072  18.996  27.417  1.00  0.00     0.198 C
HETATM   44  C24 UNL     1      28.888  18.004  28.170  1.00  0.00     0.298 C
ENDBRANCH  38  39
ENDBRANCH  37  38
ENDBRANCH  35  37
ENDBRANCH  34  35
ENDBRANCH   4  34
TORSDOF 18
ENDMDL