MODEL 1
REMARK VINA RESULT: -6.266451316      0.000      0.000
REMARK  15 active torsions:
REMARK  status: ('A' for Active; 'I' for Inactive)
REMARK    1  A    between atoms: C6_9  and  S1_10
REMARK    2  A    between atoms: S1_10  and  N3_13
REMARK    3  A    between atoms: N3_13  and  C7_14
REMARK    4  A    between atoms: N3_13  and  C26_38
REMARK    5  A    between atoms: C7_14  and  C8_15
REMARK    6  A    between atoms: C8_15  and  C9_16
REMARK    7  A    between atoms: C9_16  and  C10_17
REMARK    8  A    between atoms: C10_17  and  C11_18
REMARK    9  A    between atoms: C11_18  and  C12_19
REMARK   10  A    between atoms: C12_19  and  N4_20
REMARK   11  A    between atoms: C13_21  and  C14_22
REMARK   12  A    between atoms: C26_38  and  C27_39
REMARK   13  A    between atoms: C27_39  and  C28_40
REMARK   14  A    between atoms: C28_40  and  C29_41
REMARK   15  A    between atoms: C29_41  and  N6_42
ROOT
HETATM    1  C8  UNL     1      27.219  10.192  26.363  1.00  0.00     0.015 C
ENDROOT
BRANCH   1   2
HETATM    2  C7  UNL     1      28.520  10.252  27.105  1.00  0.00     0.107 C
BRANCH   2   3
HETATM    3  N3  UNL     1      28.720  11.454  27.835  1.00  0.00    -0.206 NA
BRANCH   3   4
HETATM    4  S1  UNL     1      30.335  11.940  27.848  1.00  0.00     0.247 S
HETATM    5  O1  UNL     1      30.828  12.113  29.248  1.00  0.00    -0.206 OA
HETATM    6  O2  UNL     1      31.147  10.769  27.299  1.00  0.00    -0.206 OA
BRANCH   4   7
HETATM    7  C6  UNL     1      30.686  13.383  26.925  1.00  0.00     0.122 A
HETATM    8  C2  UNL     1      31.512  13.451  25.825  1.00  0.00     0.047 A
HETATM    9  C1  UNL     1      32.294  12.410  25.168  1.00  0.00     0.071 C
HETATM   10  N1  UNL     1      31.472  14.758  25.437  1.00  0.00    -0.302 N
HETATM   11  N2  UNL     1      30.696  15.452  26.216  1.00  0.00    -0.299 N
ATOM     12  H1  UNL     1      31.983  15.139  24.641  1.00  0.00     0.186 HD
HETATM   13  C3  UNL     1      30.425  16.883  26.088  1.00  0.00     0.177 C
HETATM   14  C4  UNL     1      30.178  14.635  27.170  1.00  0.00     0.049 A
HETATM   15  C5  UNL     1      29.242  15.092  28.241  1.00  0.00     0.071 C
ENDBRANCH   4   7
ENDBRANCH   3   4
BRANCH   3  16
HETATM   16  C26 UNL     1      28.117  11.484  29.112  1.00  0.00     0.107 C
BRANCH  16  17
HETATM   17  C27 UNL     1      27.016  12.432  29.355  1.00  0.00     0.017 C
BRANCH  17  18
HETATM   18  C28 UNL     1      26.440  12.644  30.684  1.00  0.00     0.031 C
BRANCH  18  19
HETATM   19  C29 UNL     1      25.171  11.955  31.026  1.00  0.00     0.271 C
BRANCH  19  20
HETATM   20  N6  UNL     1      24.080  12.860  31.315  1.00  0.00     0.080 N
HETATM   21  C30 UNL     1      24.453  14.087  31.931  1.00  0.00     0.309 C
HETATM   22  C31 UNL     1      23.146  13.021  30.246  1.00  0.00     0.309 C
ENDBRANCH  19  20
ENDBRANCH  18  19
ENDBRANCH  17  18
ENDBRANCH  16  17
ENDBRANCH   3  16
ENDBRANCH   2   3
ENDBRANCH   1   2
BRANCH   1  23
HETATM   23  C9  UNL     1      27.045  11.529  25.636  1.00  0.00     0.001 C
BRANCH  23  24
HETATM   24  C10 UNL     1      25.787  11.511  24.797  1.00  0.00     0.002 C
BRANCH  24  25
HETATM   25  C11 UNL     1      25.030  12.804  25.069  1.00  0.00     0.020 C
BRANCH  25  26
HETATM   26  C12 UNL     1      25.655  13.392  26.324  1.00  0.00     0.131 C
BRANCH  26  27
HETATM   27  N4  UNL     1      26.063  14.765  26.175  1.00  0.00    -0.331 N
HETATM   28  C13 UNL     1      26.732  15.345  25.187  1.00  0.00     0.118 A
HETATM   29  N5  UNL     1      26.858  16.667  25.572  1.00  0.00    -0.340 N
HETATM   30  C20 UNL     1      26.278  16.857  26.752  1.00  0.00     0.062 A
ATOM     31  H5  UNL     1      27.327  17.391  25.029  1.00  0.00     0.167 HD
HETATM   32  C21 UNL     1      26.119  17.978  27.580  1.00  0.00     0.055 A
HETATM   33  C25 UNL     1      25.760  15.668  27.169  1.00  0.00     0.063 A
HETATM   34  C22 UNL     1      25.456  17.874  28.781  1.00  0.00     0.036 A
HETATM   35 CL2  UNL     1      25.270  19.297  29.801  1.00  0.00    -0.084 Cl
HETATM   36  C23 UNL     1      24.930  16.667  29.203  1.00  0.00     0.026 A
HETATM   37  C24 UNL     1      25.099  15.583  28.373  1.00  0.00     0.034 A
BRANCH  28  38
HETATM   38  C14 UNL     1      27.316  14.862  23.942  1.00  0.00     0.008 A
HETATM   39  C15 UNL     1      28.467  14.160  23.802  1.00  0.00     0.017 A
HETATM   40  C16 UNL     1      29.004  13.760  22.576  1.00  0.00     0.025 A
HETATM   41  C17 UNL     1      28.340  14.088  21.442  1.00  0.00     0.034 A
HETATM   42 CL1  UNL     1      29.007  13.590  19.896  1.00  0.00    -0.084 Cl
HETATM   43  C18 UNL     1      27.168  14.798  21.537  1.00  0.00     0.025 A
HETATM   44  C19 UNL     1      26.661  15.179  22.746  1.00  0.00     0.017 A
ENDBRANCH  28  38
ENDBRANCH  26  27
ENDBRANCH  25  26
ENDBRANCH  24  25
ENDBRANCH  23  24
ENDBRANCH   1  23
TORSDOF 15
ENDMDL