MODEL 5
REMARK VINA RESULT: -6.800486647      3.082      5.162
REMARK  17 active torsions:
REMARK  status: ('A' for Active; 'I' for Inactive)
REMARK    1  A    between atoms: C2_2  and  C3_4
REMARK    2  A    between atoms: C5_8  and  N1_9
REMARK    3  A    between atoms: N1_9  and  C7_11
REMARK    4  A    between atoms: C7_11  and  C8_12
REMARK    5  A    between atoms: C8_12  and  C9_13
REMARK    6  A    between atoms: C9_13  and  C10_14
REMARK    7  A    between atoms: C10_14  and  C11_15
REMARK    8  A    between atoms: C11_15  and  C12_16
REMARK    9  A    between atoms: C12_16  and  C13_17
REMARK   10  A    between atoms: C13_17  and  N2_18
REMARK   11  A    between atoms: N2_18  and  N3_20
REMARK   12  A    between atoms: C15_26  and  C16_27
REMARK   13  A    between atoms: C16_27  and  C17_28
REMARK   14  A    between atoms: C21_34  and  C22_35
REMARK   15  A    between atoms: C22_35  and  C23_36
REMARK   16  A    between atoms: C23_36  and  C24_37
REMARK   17  A    between atoms: C27_40  and  N5_41
ROOT
HETATM    1  C3  UNL     1      27.351  14.128  23.661  1.00  0.00     0.188 C
HETATM    2  C4  UNL     1      26.074  13.999  24.480  1.00  0.00     0.276 C
HETATM    3  O2  UNL     1      25.079  13.284  24.160  1.00  0.00    -0.264 OA
HETATM    4  O3  UNL     1      26.223  14.805  25.596  1.00  0.00    -0.291 OA
HETATM    5  C5  UNL     1      27.561  15.221  25.815  1.00  0.00     0.260 C
HETATM    6  C14 UNL     1      28.290  14.621  24.656  1.00  0.00    -0.003 C
HETATM    7  C15 UNL     1      29.609  15.030  24.324  1.00  0.00     0.065 C
ENDROOT
BRANCH   1   8
HETATM    8  C2  UNL     1      27.112  14.782  22.400  1.00  0.00     0.141 C
HETATM    9  C1  UNL     1      27.905  14.282  21.165  1.00  0.00     0.092 C
HETATM   10  O1  UNL     1      26.384  15.682  22.130  1.00  0.00    -0.297 OA
ENDBRANCH   1   8
BRANCH   5  11
HETATM   11  N1  UNL     1      27.481  16.659  25.924  1.00  0.00    -0.388 N
HETATM   12  C6  UNL     1      28.517  17.226  26.685  1.00  0.00     0.146 C
BRANCH  11  13
HETATM   13  C7  UNL     1      26.159  17.181  26.034  1.00  0.00     0.119 C
BRANCH  13  14
HETATM   14  C8  UNL     1      25.934  18.283  26.998  1.00  0.00     0.019 C
BRANCH  14  15
HETATM   15  C9  UNL     1      26.064  19.686  26.724  1.00  0.00     0.002 C
BRANCH  15  16
HETATM   16  C10 UNL     1      25.005  20.440  25.969  1.00  0.00     0.000 C
BRANCH  16  17
HETATM   17  C11 UNL     1      25.313  21.930  25.786  1.00  0.00     0.002 C
BRANCH  17  18
HETATM   18  C12 UNL     1      26.834  22.067  25.554  1.00  0.00     0.021 C
BRANCH  18  19
HETATM   19  C13 UNL     1      27.159  23.277  24.795  1.00  0.00     0.141 C
BRANCH  19  20
HETATM   20  N2  UNL     1      28.556  23.255  24.410  1.00  0.00    -0.323 N
ATOM     21  H2  UNL     1      29.058  24.103  24.149  1.00  0.00     0.181 HD
BRANCH  20  22
HETATM   22  N3  UNL     1      29.112  22.127  24.415  1.00  0.00    -0.254 N
HETATM   23  N4  UNL     1      30.103  21.419  24.375  1.00  0.00    -0.331 N
ATOM     24  H42 UNL     1      30.851  22.108  24.296  1.00  0.00     0.178 HD
ATOM     25  H41 UNL     1      30.554  20.504  24.379  1.00  0.00     0.178 HD
ATOM     26  H3  UNL     1      28.338  21.469  24.495  1.00  0.00     0.207 HD
ENDBRANCH  20  22
ENDBRANCH  19  20
ENDBRANCH  18  19
ENDBRANCH  17  18
ENDBRANCH  16  17
ENDBRANCH  15  16
ENDBRANCH  14  15
ENDBRANCH  13  14
ENDBRANCH  11  13
ENDBRANCH   5  11
BRANCH   7  27
HETATM   27  C16 UNL     1      30.703  14.460  24.106  1.00  0.00    -0.110 C
BRANCH  27  28
HETATM   28  C17 UNL     1      31.919  13.816  23.881  1.00  0.00     0.086 A
HETATM   29  C18 UNL     1      32.937  14.471  24.569  1.00  0.00     0.106 A
HETATM   30 CL1  UNL     1      32.552  15.882  25.518  1.00  0.00    -0.078 Cl
HETATM   31  C19 UNL     1      34.270  13.978  24.482  1.00  0.00     0.196 A
HETATM   32  O4  UNL     1      35.177  14.585  25.158  1.00  0.00    -0.287 OA
HETATM   33  C20 UNL     1      34.626  12.829  23.688  1.00  0.00     0.072 A
HETATM   34  C21 UNL     1      33.668  12.203  22.972  1.00  0.00     0.027 A
HETATM   35  C32 UNL     1      32.281  12.675  23.059  1.00  0.00     0.202 A
HETATM   36  O5  UNL     1      31.390  12.052  22.382  1.00  0.00    -0.286 OA
BRANCH  34  37
HETATM   37  C22 UNL     1      34.104  11.067  22.216  1.00  0.00     0.072 C
BRANCH  37  38
HETATM   38  C23 UNL     1      34.856  10.720  21.296  1.00  0.00    -0.116 C
BRANCH  38  39
HETATM   39  C24 UNL     1      35.656  10.363  20.225  1.00  0.00     0.009 A
HETATM   40  C25 UNL     1      35.315   9.137  19.561  1.00  0.00     0.022 A
HETATM   41  C26 UNL     1      35.879   8.774  18.360  1.00  0.00     0.031 A
HETATM   42  C27 UNL     1      36.807   9.577  17.730  1.00  0.00     0.029 A
HETATM   43  C30 UNL     1      37.156  10.748  18.338  1.00  0.00     0.031 A
HETATM   44  C31 UNL     1      36.603  11.160  19.560  1.00  0.00     0.022 A
BRANCH  42  45
HETATM   45  N5  UNL     1      37.331   9.202  16.471  1.00  0.00    -0.390 N
HETATM   46  C28 UNL     1      37.440  10.270  15.492  1.00  0.00     0.149 C
HETATM   47  C29 UNL     1      37.727   7.836  16.114  1.00  0.00     0.149 C
ENDBRANCH  42  45
ENDBRANCH  38  39
ENDBRANCH  37  38
ENDBRANCH  34  37
ENDBRANCH  27  28
ENDBRANCH   7  27
TORSDOF 17
ENDMDL