MODEL 3
REMARK VINA RESULT: -6.397586486      2.709      5.863
REMARK  17 active torsions:
REMARK  status: ('A' for Active; 'I' for Inactive)
REMARK    1  A    between atoms: O1_2  and  C2_3
REMARK    2  A    between atoms: C2_3  and  C3_5
REMARK    3  A    between atoms: C3_5  and  C5_7
REMARK    4  A    between atoms: C5_7  and  C6_8
REMARK    5  A    between atoms: C6_8  and  C7_9
REMARK    6  A    between atoms: C7_9  and  C8_10
REMARK    7  A    between atoms: C8_10  and  O7_35
REMARK    8  A    between atoms: C9_11  and  C10_12
REMARK    9  A    between atoms: C10_12  and  C11_13
REMARK   10  A    between atoms: C11_13  and  C12_14
REMARK   11  A    between atoms: C12_14  and  C13_16
REMARK   12  A    between atoms: C13_16  and  C14_17
REMARK   13  A    between atoms: C14_17  and  C16_19
REMARK   14  A    between atoms: C17_20  and  C18_21
REMARK   15  A    between atoms: C18_21  and  C19_22
REMARK   16  A    between atoms: C19_22  and  C20_23
REMARK   17  A    between atoms: C25_32  and  O6_33
ROOT
HETATM    1  C13 UNL     1      27.926  14.660  20.772  1.00  0.00     0.086 C
ENDROOT
BRANCH   1   2
HETATM    2  C12 UNL     1      28.308  13.244  20.925  1.00  0.00     0.127 C
HETATM    3  O3  UNL     1      27.554  12.427  20.373  1.00  0.00    -0.298 OA
BRANCH   2   4
HETATM    4  C11 UNL     1      29.463  12.742  21.651  1.00  0.00     0.082 C
BRANCH   4   5
HETATM    5  C10 UNL     1      30.389  13.775  22.241  1.00  0.00     0.037 C
BRANCH   5   6
HETATM    6  C9  UNL     1      30.565  13.598  23.681  1.00  0.00     0.006 C
HETATM    7  C8  UNL     1      30.660  14.516  24.601  1.00  0.00     0.042 C
BRANCH   7   8
HETATM    8  C7  UNL     1      30.611  15.963  24.364  1.00  0.00     0.064 C
BRANCH   8   9
HETATM    9  C6  UNL     1      31.437  16.621  25.456  1.00  0.00     0.007 C
BRANCH   9  10
HETATM   10  C5  UNL     1      32.272  17.729  24.928  1.00  0.00     0.014 C
BRANCH  10  11
HETATM   11  C3  UNL     1      31.477  18.835  24.348  1.00  0.00     0.081 C
HETATM   12  C4  UNL     1      32.072  19.343  23.036  1.00  0.00     0.020 C
BRANCH  11  13
HETATM   13  C2  UNL     1      31.304  19.933  25.311  1.00  0.00     0.262 C
HETATM   14  O2  UNL     1      32.236  20.640  25.764  1.00  0.00    -0.265 OA
BRANCH  13  15
HETATM   15  O1  UNL     1      30.024  20.275  25.805  1.00  0.00    -0.326 OA
HETATM   16  C1  UNL     1      29.353  21.443  25.341  1.00  0.00     0.213 C
ENDBRANCH  13  15
ENDBRANCH  11  13
ENDBRANCH  10  11
ENDBRANCH   9  10
ENDBRANCH   8   9
ENDBRANCH   7   8
BRANCH   7  17
HETATM   17  O7  UNL     1      30.826  14.131  25.947  1.00  0.00    -0.361 OA
HETATM   18  C26 UNL     1      31.184  12.809  26.302  1.00  0.00     0.209 C
ENDBRANCH   7  17
ENDBRANCH   5   6
ENDBRANCH   4   5
ENDBRANCH   2   4
ENDBRANCH   1   2
BRANCH   1  19
HETATM   19  C14 UNL     1      26.834  15.137  21.661  1.00  0.00     0.011 C
HETATM   20  C15 UNL     1      25.624  14.232  21.499  1.00  0.00     0.014 C
BRANCH  19  21
HETATM   21  C16 UNL     1      27.236  15.181  23.096  1.00  0.00    -0.021 C
HETATM   22  C17 UNL     1      26.670  14.443  24.026  1.00  0.00     0.006 C
BRANCH  22  23
HETATM   23  C18 UNL     1      27.114  14.532  25.430  1.00  0.00    -0.020 C
HETATM   24  C21 UNL     1      27.394  13.464  26.157  1.00  0.00     0.118 A
HETATM   25  O4  UNL     1      27.802  13.594  27.482  1.00  0.00    -0.275 OA
HETATM   26  C25 UNL     1      27.312  12.093  25.686  1.00  0.00     0.096 A
HETATM   27  C22 UNL     1      28.108  12.543  28.308  1.00  0.00     0.267 A
HETATM   28  O5  UNL     1      28.475  12.730  29.524  1.00  0.00    -0.265 OA
HETATM   29  C23 UNL     1      28.031  11.160  27.852  1.00  0.00     0.141 A
HETATM   30  C24 UNL     1      27.606  11.049  26.469  1.00  0.00     0.022 A
BRANCH  23  31
HETATM   31  C19 UNL     1      27.267  15.908  25.917  1.00  0.00     0.068 C
BRANCH  31  32
HETATM   32  C20 UNL     1      26.105  16.725  26.293  1.00  0.00     0.134 C
HETATM   33 BR1  UNL     1      25.295  16.126  27.955  1.00  0.00    -0.079 Br
HETATM   34 BR2  UNL     1      26.842  18.510  26.704  1.00  0.00    -0.079 Br
ENDBRANCH  31  32
ENDBRANCH  23  31
BRANCH  26  35
HETATM   35  O6  UNL     1      26.930  11.740  24.402  1.00  0.00    -0.358 OA
ATOM     36  H6  UNL     1      26.174  11.200  24.204  1.00  0.00     0.217 HD
ENDBRANCH  26  35
ENDBRANCH  22  23
ENDBRANCH  19  21
ENDBRANCH   1  19
TORSDOF 17
ENDMDL