MODEL 1
REMARK VINA RESULT: -5.618374919      0.000      0.000
REMARK  17 active torsions:
REMARK  status: ('A' for Active; 'I' for Inactive)
REMARK    1  A    between atoms: C2_2  and  C3_3
REMARK    2  A    between atoms: C3_3  and  C4_4
REMARK    3  A    between atoms: C4_4  and  C5_5
REMARK    4  A    between atoms: C5_5  and  C6_6
REMARK    5  A    between atoms: C6_6  and  C7_7
REMARK    6  A    between atoms: C7_7  and  C8_8
REMARK    7  A    between atoms: C8_8  and  N1_9
REMARK    8  A    between atoms: N1_9  and  C9_10
REMARK    9  A    between atoms: N1_9  and  C11_12
REMARK   10  A    between atoms: C11_12  and  C12_13
REMARK   11  A    between atoms: C15_17  and  O1_18
REMARK   12  A    between atoms: O1_18  and  C16_19
REMARK   13  A    between atoms: C16_19  and  C17_20
REMARK   14  A    between atoms: C17_20  and  N2_21
REMARK   15  A    between atoms: C22_29  and  C23_30
REMARK   16  A    between atoms: C23_30  and  O5_32
REMARK   17  A    between atoms: O5_32  and  C24_33
ROOT
HETATM    1  C12 UNL     1      27.214  13.979  25.920  1.00  0.00    -0.022 A
HETATM    2  C13 UNL     1      27.827  15.203  25.875  1.00  0.00     0.031 A
HETATM    3  C14 UNL     1      29.007  15.534  26.578  1.00  0.00     0.046 A
HETATM    4 BR1  UNL     1      29.785  17.261  26.448  1.00  0.00    -0.048 Br
HETATM    5  C15 UNL     1      29.543  14.553  27.340  1.00  0.00     0.103 A
HETATM    6  C22 UNL     1      28.954  13.316  27.415  1.00  0.00     0.080 A
HETATM    7  C26 UNL     1      27.823  12.992  26.728  1.00  0.00    -0.035 A
HETATM    8  C27 UNL     1      27.320  11.624  26.831  1.00  0.00     0.050 C
ENDROOT
BRANCH   1   9
HETATM    9  C11 UNL     1      26.033  13.564  25.143  1.00  0.00     0.311 C
BRANCH   9  10
HETATM   10  N1  UNL     1      26.307  13.352  23.717  1.00  0.00     0.092 N
BRANCH  10  11
HETATM   11  C8  UNL     1      26.082  14.347  22.772  1.00  0.00     0.272 C
BRANCH  11  12
HETATM   12  C7  UNL     1      26.401  14.013  21.359  1.00  0.00     0.030 C
BRANCH  12  13
HETATM   13  C6  UNL     1      27.662  14.688  20.795  1.00  0.00     0.002 C
BRANCH  13  14
HETATM   14  C5  UNL     1      28.611  13.602  20.416  1.00  0.00     0.000 C
BRANCH  14  15
HETATM   15  C4  UNL     1      28.867  12.517  21.400  1.00  0.00     0.000 C
BRANCH  15  16
HETATM   16  C3  UNL     1      30.175  12.967  22.088  1.00  0.00    -0.000 C
BRANCH  16  17
HETATM   17  C2  UNL     1      29.990  13.672  23.365  1.00  0.00    -0.005 C
HETATM   18  C1  UNL     1      30.550  15.054  23.329  1.00  0.00     0.005 C
ENDBRANCH  16  17
ENDBRANCH  15  16
ENDBRANCH  14  15
ENDBRANCH  13  14
ENDBRANCH  12  13
ENDBRANCH  11  12
ENDBRANCH  10  11
BRANCH  10  19
HETATM   19  C9  UNL     1      25.480  12.145  23.479  1.00  0.00     0.268 C
HETATM   20  C10 UNL     1      26.085  10.832  23.472  1.00  0.00     0.037 C
ENDBRANCH  10  19
ENDBRANCH   9  10
ENDBRANCH   1   9
BRANCH   6  21
HETATM   21  C23 UNL     1      29.373  12.430  28.551  1.00  0.00     0.296 C
HETATM   22  O4  UNL     1      30.164  11.543  28.584  1.00  0.00    -0.259 OA
BRANCH  21  23
HETATM   23  O5  UNL     1      28.648  12.813  29.699  1.00  0.00    -0.318 OA
BRANCH  23  24
HETATM   24  C24 UNL     1      27.994  11.951  30.532  1.00  0.00     0.174 C
HETATM   25  C25 UNL     1      26.485  12.213  30.377  1.00  0.00     0.034 C
ENDBRANCH  23  24
ENDBRANCH  21  23
ENDBRANCH   6  21
BRANCH   5  26
HETATM   26  O1  UNL     1      30.743  14.684  28.101  1.00  0.00    -0.347 OA
BRANCH  26  27
HETATM   27  C16 UNL     1      31.845  14.584  27.214  1.00  0.00     0.196 C
BRANCH  27  28
HETATM   28  C17 UNL     1      32.775  13.443  27.382  1.00  0.00     0.162 C
BRANCH  28  29
HETATM   29  N2  UNL     1      32.992  12.967  25.998  1.00  0.00    -0.283 N
HETATM   30  C18 UNL     1      33.808  13.430  25.061  1.00  0.00     0.116 A
HETATM   31 BR2  UNL     1      34.994  14.882  25.208  1.00  0.00    -0.028 Br
HETATM   32  C19 UNL     1      33.648  12.669  23.891  1.00  0.00     0.089 A
HETATM   33  C20 UNL     1      34.364  12.850  22.602  1.00  0.00     0.080 C
HETATM   34  O2  UNL     1      32.733  11.775  24.194  1.00  0.00    -0.263 OA
HETATM   35  C21 UNL     1      32.321  11.927  25.442  1.00  0.00     0.373 A
HETATM   36  O3  UNL     1      31.453  11.213  26.002  1.00  0.00    -0.237 OA
ENDBRANCH  28  29
ENDBRANCH  27  28
ENDBRANCH  26  27
ENDBRANCH   5  26
TORSDOF 17
ENDMDL