MODEL 3
REMARK VINA RESULT: -6.916954910      1.812      3.267
REMARK  14 active torsions:
REMARK  status: ('A' for Active; 'I' for Inactive)
REMARK    1  A    between atoms: C2_2  and  C3_3
REMARK    2  A    between atoms: C3_3  and  C4_4
REMARK    3  A    between atoms: C4_4  and  C5_5
REMARK    4  A    between atoms: C5_5  and  C6_6
REMARK    5  A    between atoms: C6_6  and  C7_7
REMARK    6  A    between atoms: C7_7  and  C8_8
REMARK    7  A    between atoms: C8_8  and  C9_9
REMARK    8  A    between atoms: C9_9  and  C10_10
REMARK    9  A    between atoms: C10_10  and  C11_11
REMARK   10  A    between atoms: C11_11  and  C12_12
REMARK   11  A    between atoms: C12_12  and  C13_13
REMARK   12  A    between atoms: C13_13  and  C14_14
REMARK   13  A    between atoms: C14_14  and  N1_15
REMARK   14  A    between atoms: C17_19  and  C18_20
ROOT
HETATM    1  N1  UNL     1      26.575  12.849  24.126  1.00  0.00    -0.280 N
HETATM    2  C15 UNL     1      26.844  12.079  25.272  1.00  0.00     0.262 A
HETATM    3  O1  UNL     1      26.782  10.837  25.188  1.00  0.00    -0.267 OA
HETATM    4  C16 UNL     1      27.202  12.679  26.598  1.00  0.00     0.051 A
HETATM    5  C17 UNL     1      27.440  11.896  27.586  1.00  0.00     0.030 C
HETATM    6  C24 UNL     1      27.259  14.128  26.636  1.00  0.00     0.030 A
HETATM    7  C25 UNL     1      27.001  14.870  25.538  1.00  0.00     0.043 A
HETATM    8  C26 UNL     1      27.026  16.359  25.444  1.00  0.00     0.203 C
HETATM    9  S1  UNL     1      26.096  17.067  26.751  1.00  0.00     0.217 S
HETATM   10  O2  UNL     1      24.925  16.184  27.068  1.00  0.00    -0.211 OA
HETATM   11  O3  UNL     1      25.559  18.396  26.297  1.00  0.00    -0.211 OA
HETATM   12  N2  UNL     1      27.058  17.347  28.157  1.00  0.00    -0.186 NA
HETATM   13  C27 UNL     1      26.292  17.009  29.370  1.00  0.00     0.182 C
HETATM   14  S2  UNL     1      27.676  17.028  30.583  1.00  0.00    -0.151 SA
HETATM   15  C28 UNL     1      29.032  16.812  29.357  1.00  0.00     0.107 C
HETATM   16  C29 UNL     1      28.205  16.445  28.144  1.00  0.00     0.150 C
HETATM   17  S3  UNL     1      27.709  14.731  28.244  1.00  0.00    -0.106 SA
HETATM   18  C30 UNL     1      26.653  14.253  24.254  1.00  0.00     0.259 A
HETATM   19  O4  UNL     1      26.421  14.976  23.261  1.00  0.00    -0.267 OA
ENDROOT
BRANCH   1  20
HETATM   20  C14 UNL     1      26.232  12.244  22.845  1.00  0.00     0.135 C
BRANCH  20  21
HETATM   21  C13 UNL     1      27.519  11.925  22.111  1.00  0.00     0.020 C
BRANCH  21  22
HETATM   22  C12 UNL     1      27.703  12.718  20.857  1.00  0.00     0.002 C
BRANCH  22  23
HETATM   23  C11 UNL     1      29.024  13.474  20.942  1.00  0.00     0.000 C
BRANCH  23  24
HETATM   24  C10 UNL     1      29.981  12.795  21.867  1.00  0.00     0.000 C
BRANCH  24  25
HETATM   25  C9  UNL     1      30.701  13.780  22.730  1.00  0.00     0.000 C
BRANCH  25  26
HETATM   26  C8  UNL     1      29.883  15.033  22.887  1.00  0.00     0.000 C
BRANCH  26  27
HETATM   27  C7  UNL     1      30.485  15.874  24.005  1.00  0.00     0.000 C
BRANCH  27  28
HETATM   28  C6  UNL     1      31.447  15.063  24.842  1.00  0.00     0.000 C
BRANCH  28  29
HETATM   29  C5  UNL     1      31.044  15.097  26.315  1.00  0.00     0.000 C
BRANCH  29  30
HETATM   30  C4  UNL     1      31.312  13.775  26.957  1.00  0.00     0.000 C
BRANCH  30  31
HETATM   31  C3  UNL     1      30.793  12.661  26.087  1.00  0.00    -0.000 C
BRANCH  31  32
HETATM   32  C2  UNL     1      31.721  11.475  26.212  1.00  0.00    -0.005 C
HETATM   33  C1  UNL     1      32.663  11.528  25.004  1.00  0.00     0.005 C
ENDBRANCH  31  32
ENDBRANCH  30  31
ENDBRANCH  29  30
ENDBRANCH  28  29
ENDBRANCH  27  28
ENDBRANCH  26  27
ENDBRANCH  25  26
ENDBRANCH  24  25
ENDBRANCH  23  24
ENDBRANCH  22  23
ENDBRANCH  21  22
ENDBRANCH  20  21
ENDBRANCH   1  20
BRANCH   5  34
HETATM   34  C18 UNL     1      27.797  12.110  28.956  1.00  0.00    -0.032 A
HETATM   35  C19 UNL     1      29.126  12.233  29.381  1.00  0.00     0.014 A
HETATM   36  C20 UNL     1      29.466  12.357  30.705  1.00  0.00     0.046 A
HETATM   37  C21 UNL     1      28.496  12.364  31.680  1.00  0.00     0.154 A
HETATM   38  F1  UNL     1      28.831  12.489  33.006  1.00  0.00    -0.203 F
HETATM   39  C22 UNL     1      27.178  12.247  31.308  1.00  0.00     0.155 A
HETATM   40  F2  UNL     1      26.240  12.256  32.283  1.00  0.00    -0.203 F
HETATM   41  C23 UNL     1      26.843  12.123  29.982  1.00  0.00     0.057 A
ENDBRANCH   5  34
TORSDOF 14
ENDMDL