MODEL 4
REMARK VINA RESULT: -5.912908404      3.185      5.732
REMARK  17 active torsions:
REMARK  status: ('A' for Active; 'I' for Inactive)
REMARK    1  A    between atoms: C8_10  and  C9_11
REMARK    2  A    between atoms: C12_18  and  C13_19
REMARK    3  A    between atoms: C13_19  and  O2_21
REMARK    4  A    between atoms: O2_21  and  C14_22
REMARK    5  A    between atoms: C14_22  and  C15_23
REMARK    6  A    between atoms: C15_23  and  C16_24
REMARK    7  A    between atoms: C16_24  and  C17_25
REMARK    8  A    between atoms: C17_25  and  C18_26
REMARK    9  A    between atoms: C22_30  and  S1_31
REMARK   10  A    between atoms: S1_31  and  C23_34
REMARK   11  A    between atoms: C23_34  and  C24_35
REMARK   12  A    between atoms: C24_35  and  N3_36
REMARK   13  A    between atoms: N3_36  and  C25_37
REMARK   14  A    between atoms: N3_36  and  C28_40
REMARK   15  A    between atoms: C25_37  and  C26_38
REMARK   16  A    between atoms: C28_40  and  C29_41
REMARK   17  A    between atoms: C29_41  and  C30_42
ROOT
HETATM    1  C1  UNL     1      25.431  13.642  27.610  1.00  0.00     0.017 C
HETATM    2  C2  UNL     1      26.585  13.664  27.252  1.00  0.00    -0.082 C
HETATM    3  C3  UNL     1      27.982  13.690  26.846  1.00  0.00    -0.002 A
HETATM    4  C4  UNL     1      28.404  14.191  25.719  1.00  0.00     0.076 A
HETATM    5  C5  UNL     1      29.936  14.065  25.609  1.00  0.00     0.088 A
HETATM    6  C6  UNL     1      30.227  13.326  26.775  1.00  0.00     0.032 A
HETATM    7  C7  UNL     1      29.119  13.128  27.516  1.00  0.00     0.043 A
HETATM    8  N1  UNL     1      31.503  12.594  26.893  1.00  0.00    -0.345 N
ATOM      9  H1  UNL     1      32.020  12.512  27.768  1.00  0.00     0.167 HD
HETATM   10  C8  UNL     1      31.915  12.053  25.756  1.00  0.00     0.121 C
HETATM   11  N2  UNL     1      31.349  12.480  24.549  1.00  0.00    -0.344 N
ATOM     12  H2  UNL     1      31.676  12.031  23.694  1.00  0.00     0.167 HD
HETATM   13  C11 UNL     1      30.399  13.445  24.424  1.00  0.00     0.047 C
HETATM   14  C12 UNL     1      30.261  13.973  23.067  1.00  0.00     0.063 C
HETATM   15  C20 UNL     1      30.297  15.333  23.025  1.00  0.00     0.021 C
HETATM   16  C21 UNL     1      30.352  16.048  24.282  1.00  0.00     0.022 C
HETATM   17  C22 UNL     1      30.247  15.540  25.518  1.00  0.00     0.062 C
ENDROOT
BRANCH  17  18
HETATM   18  S1  UNL     1      30.466  16.576  26.859  1.00  0.00     0.196 S
HETATM   19  O3  UNL     1      31.267  15.932  27.974  1.00  0.00    -0.218 OA
HETATM   20  O4  UNL     1      31.458  17.676  26.355  1.00  0.00    -0.218 OA
BRANCH  18  21
HETATM   21  C23 UNL     1      29.134  17.407  27.497  1.00  0.00     0.131 C
BRANCH  21  22
HETATM   22  C24 UNL     1      28.124  18.225  26.824  1.00  0.00     0.102 C
BRANCH  22  23
HETATM   23  N3  UNL     1      26.936  18.613  27.404  1.00  0.00    -0.370 N
BRANCH  23  24
HETATM   24  C25 UNL     1      25.832  19.155  26.784  1.00  0.00     0.063 C
BRANCH  24  25
HETATM   25  C26 UNL     1      25.755  20.631  26.576  1.00  0.00     0.040 C
HETATM   26  C27 UNL     1      24.664  21.106  25.675  1.00  0.00     0.010 C
ENDBRANCH  24  25
ENDBRANCH  23  24
BRANCH  23  27
HETATM   27  C28 UNL     1      26.647  17.945  28.669  1.00  0.00     0.127 C
BRANCH  27  28
HETATM   28  C29 UNL     1      25.361  17.204  28.699  1.00  0.00     0.020 C
BRANCH  28  29
HETATM   29  C30 UNL     1      24.602  17.275  29.992  1.00  0.00    -0.003 C
HETATM   30  C31 UNL     1      23.924  15.905  30.150  1.00  0.00     0.005 C
ENDBRANCH  28  29
ENDBRANCH  27  28
ENDBRANCH  23  27
ENDBRANCH  22  23
ENDBRANCH  21  22
ENDBRANCH  18  21
ENDBRANCH  17  18
BRANCH  14  31
HETATM   31  C13 UNL     1      30.116  13.112  21.948  1.00  0.00     0.295 C
HETATM   32  O1  UNL     1      30.634  11.975  21.930  1.00  0.00    -0.259 OA
BRANCH  31  33
HETATM   33  O2  UNL     1      29.398  13.475  20.809  1.00  0.00    -0.317 OA
BRANCH  33  34
HETATM   34  C14 UNL     1      27.991  13.380  20.753  1.00  0.00     0.179 C
BRANCH  34  35
HETATM   35  C15 UNL     1      27.314  14.723  20.922  1.00  0.00     0.027 C
BRANCH  35  36
HETATM   36  C16 UNL     1      26.376  14.596  22.109  1.00  0.00     0.002 C
BRANCH  36  37
HETATM   37  C17 UNL     1      26.500  13.231  22.706  1.00  0.00    -0.000 C
BRANCH  37  38
HETATM   38  C18 UNL     1      25.289  12.836  23.512  1.00  0.00    -0.005 C
HETATM   39  C19 UNL     1      25.529  11.614  24.342  1.00  0.00     0.005 C
ENDBRANCH  37  38
ENDBRANCH  36  37
ENDBRANCH  35  36
ENDBRANCH  34  35
ENDBRANCH  33  34
ENDBRANCH  31  33
ENDBRANCH  14  31
BRANCH  10  40
HETATM   40  C9  UNL     1      33.169  11.245  25.679  1.00  0.00     0.167 C
HETATM   41  C10 UNL     1      34.342  12.138  26.021  1.00  0.00     0.059 C
HETATM   42 CL1  UNL     1      33.151   9.812  26.688  1.00  0.00    -0.093 Cl
HETATM   43 CL2  UNL     1      33.357  10.821  23.943  1.00  0.00    -0.093 Cl
ENDBRANCH  10  40
TORSDOF 17
ENDMDL