MODEL 1
REMARK VINA RESULT: -6.178360119      0.000      0.000
REMARK  4 active torsions:
REMARK  status: ('A' for Active; 'I' for Inactive)
REMARK    1  A    between atoms: C4_6  and  C5_7
REMARK    2  A    between atoms: C5_7  and  N2_8
REMARK    3  A    between atoms: C5_7  and  C6_12
REMARK    4  A    between atoms: C8_19  and  N5_20
ROOT
HETATM    1  C1  UNL     1      -5.802  67.035  14.449  1.00  0.00     0.047 C
HETATM    2  C2  UNL     1      -4.964  67.794  13.744  1.00  0.00     0.067 A
HETATM    3  N1  UNL     1      -4.821  67.566  12.407  1.00  0.00    -0.350 N
ATOM      4  H1  UNL     1      -5.356  66.819  11.965  1.00  0.00     0.166 HD
HETATM    5  C3  UNL     1      -3.986  68.311  11.666  1.00  0.00     0.100 A
HETATM    6  C4  UNL     1      -3.862  68.076  10.380  1.00  0.00     0.050 C
HETATM    7  C7  UNL     1      -3.280  69.310  12.295  1.00  0.00     0.273 A
HETATM    8  O2  UNL     1      -2.477  70.052  11.676  1.00  0.00    -0.266 OA
HETATM    9  N4  UNL     1      -3.421  69.535  13.617  1.00  0.00    -0.306 N
ATOM     10  H4  UNL     1      -2.887  70.280  14.064  1.00  0.00     0.170 HD
HETATM   11  C8  UNL     1      -4.260  68.784  14.353  1.00  0.00     0.128 A
ENDROOT
BRANCH   6  12
HETATM   12  C5  UNL     1      -4.609  67.011   9.684  1.00  0.00     0.297 C
BRANCH  12  13
HETATM   13  N2  UNL     1      -5.137  67.518   8.454  1.00  0.00    -0.064 N
ATOM     14  H23 UNL     1      -6.140  67.352   8.370  1.00  0.00     0.275 HD
ATOM     15  H22 UNL     1      -5.155  68.538   8.434  1.00  0.00     0.275 HD
ATOM     16  H21 UNL     1      -4.615  67.127   7.670  1.00  0.00     0.275 HD
ENDBRANCH  12  13
BRANCH  12  17
HETATM   17  C6  UNL     1      -3.772  65.815   9.428  1.00  0.00     0.265 C
HETATM   18  N3  UNL     1      -4.409  64.623   9.006  1.00  0.00    -0.060 NA
HETATM   19  O1  UNL     1      -2.528  65.800   9.562  1.00  0.00    -0.274 OA
ENDBRANCH  12  17
ENDBRANCH   6  12
BRANCH  11  20
HETATM   20  N5  UNL     1      -4.361  69.043  15.630  1.00  0.00    -0.384 N
ATOM     21  H52 UNL     1      -3.540  69.406  16.114  1.00  0.00     0.157 HD
ATOM     22  H51 UNL     1      -5.221  68.896  16.157  1.00  0.00     0.157 HD
ENDBRANCH  11  20
TORSDOF 4
ENDMDL