MODEL 3
REMARK VINA RESULT: -6.368749550      1.294      1.545
REMARK  4 active torsions:
REMARK  status: ('A' for Active; 'I' for Inactive)
REMARK    1  A    between atoms: C1_4  and  C2_5
REMARK    2  A    between atoms: C1_4  and  N6_13
REMARK    3  A    between atoms: N2_6  and  N3_8
REMARK    4  A    between atoms: N6_13  and  C4_15
ROOT
HETATM    1  N1  UNL     1      -2.646  69.414  11.091  1.00  0.00    -0.384 N
ATOM      2  H11 UNL     1      -2.173  70.030  10.430  1.00  0.00     0.157 HD
ATOM      3  H12 UNL     1      -2.715  69.672  12.076  1.00  0.00     0.157 HD
HETATM    4  C1  UNL     1      -3.160  68.311  10.709  1.00  0.00     0.131 C
ENDROOT
BRANCH   4   5
HETATM    5  C2  UNL     1      -3.835  67.430  11.654  1.00  0.00     0.155 C
HETATM    6  N2  UNL     1      -4.703  67.938  12.443  1.00  0.00    -0.306 N
ATOM      7  H2  UNL     1      -4.883  68.939  12.371  1.00  0.00     0.186 HD
BRANCH   6   8
HETATM    8  N3  UNL     1      -5.420  67.215  13.392  1.00  0.00    -0.276 N
HETATM    9  C3  UNL     1      -5.374  67.581  14.613  1.00  0.00     0.215 C
HETATM   10  N4  UNL     1      -4.605  68.699  14.974  1.00  0.00    -0.065 NA
HETATM   11  N5  UNL     1      -6.108  66.838  15.573  1.00  0.00    -0.065 NA
ATOM     12  H3  UNL     1      -5.974  66.404  13.115  1.00  0.00     0.189 HD
ENDBRANCH   6   8
ENDBRANCH   4   5
BRANCH   4  13
HETATM   13  N6  UNL     1      -3.064  67.953   9.340  1.00  0.00    -0.173 N
ATOM     14  H6  UNL     1      -2.225  68.192   8.810  1.00  0.00     0.186 HD
BRANCH  13  15
HETATM   15  C4  UNL     1      -4.033  67.324   8.760  1.00  0.00     0.715 A
HETATM   16  N7  UNL     1      -5.151  67.943   8.338  1.00  0.00    -0.115 N
HETATM   17  N8  UNL     1      -5.937  67.004   7.789  1.00  0.00    -0.213 N
ATOM     18  H7  UNL     1      -5.361  68.937   8.420  1.00  0.00     0.207 HD
HETATM   19  N9  UNL     1      -5.348  65.834   7.857  1.00  0.00    -0.213 N
ATOM     20  H8  UNL     1      -6.856  67.175   7.380  1.00  0.00     0.210 HD
HETATM   21  N10 UNL     1      -4.172  66.039   8.458  1.00  0.00    -0.115 N
ATOM     22  H9  UNL     1      -5.715  64.945   7.519  1.00  0.00     0.210 HD
ATOM     23  H10 UNL     1      -3.482  65.314   8.655  1.00  0.00     0.207 HD
ENDBRANCH  13  15
ENDBRANCH   4  13
TORSDOF 4
ENDMDL