MODEL 3
REMARK VINA RESULT: -6.666492295      1.457      2.200
REMARK  4 active torsions:
REMARK  status: ('A' for Active; 'I' for Inactive)
REMARK    1  A    between atoms: N1_1  and  C1_4
REMARK    2  A    between atoms: C3_11  and  N4_12
REMARK    3  A    between atoms: N4_12  and  S1_14
REMARK    4  A    between atoms: S1_14  and  N5_15
ROOT
HETATM    1  C1  UNL     1      -5.631  65.001   8.197  1.00  0.00     0.694 A
HETATM    2  N2  UNL     1      -5.771  65.789   7.119  1.00  0.00    -0.141 N
ATOM      3  H2  UNL     1      -6.176  65.427   6.256  1.00  0.00     0.189 HD
HETATM    4  C2  UNL     1      -5.355  67.087   7.210  1.00  0.00     0.352 A
HETATM    5  O1  UNL     1      -5.479  67.833   6.215  1.00  0.00    -0.246 OA
HETATM    6  N3  UNL     1      -4.821  67.549   8.360  1.00  0.00    -0.139 N
ATOM      7  H3  UNL     1      -4.516  68.521   8.409  1.00  0.00     0.189 HD
HETATM    8  C3  UNL     1      -4.678  66.760   9.449  1.00  0.00     0.711 A
HETATM    9  N6  UNL     1      -5.092  65.488   9.337  1.00  0.00    -0.021 N
ATOM     10  H6  UNL     1      -4.998  64.867  10.140  1.00  0.00     0.203 HD
ENDROOT
BRANCH   8  11
HETATM   11  N4  UNL     1      -4.168  67.268  10.487  1.00  0.00    -0.099 N
ATOM     12  H4  UNL     1      -4.825  67.620  11.184  1.00  0.00     0.199 HD
BRANCH  11  13
HETATM   13  S1  UNL     1      -2.522  67.434  10.860  1.00  0.00     0.330 S
HETATM   14  O2  UNL     1      -2.251  68.304  12.038  1.00  0.00    -0.182 OA
HETATM   15  O3  UNL     1      -1.848  66.098  11.142  1.00  0.00    -0.182 OA
BRANCH  13  16
HETATM   16  N5  UNL     1      -1.712  68.068   9.446  1.00  0.00    -0.311 N
ATOM     17  H52 UNL     1      -2.044  67.975   8.486  1.00  0.00     0.170 HD
ATOM     18  H51 UNL     1      -0.862  68.538   9.757  1.00  0.00     0.170 HD
ENDBRANCH  13  16
ENDBRANCH  11  13
ENDBRANCH   8  11
BRANCH   1  19
HETATM   19  N1  UNL     1      -6.016  63.772   8.131  1.00  0.00    -0.234 N
ATOM     20  H12 UNL     1      -6.588  63.452   7.349  1.00  0.00     0.174 HD
ATOM     21  H11 UNL     1      -5.742  63.126   8.871  1.00  0.00     0.174 HD
ENDBRANCH   1  19
TORSDOF 4
ENDMDL