MODEL 5
REMARK VINA RESULT: -5.814545280      4.865      6.052
REMARK  1 active torsions:
REMARK  status: ('A' for Active; 'I' for Inactive)
REMARK    1  A    between atoms: C8_11  and  O2_13
ROOT
HETATM    1  C1  UNL     1      -0.845  66.793  10.951  1.00  0.00     0.043 C
HETATM    2  C2  UNL     1      -1.921  66.641  10.199  1.00  0.00     0.027 A
HETATM    3  C3  UNL     1      -2.679  65.479  10.244  1.00  0.00     0.059 A
HETATM    4  C4  UNL     1      -3.796  65.331   9.460  1.00  0.00     0.054 A
HETATM    5  C5  UNL     1      -4.173  66.374   8.600  1.00  0.00     0.078 A
HETATM    6  C6  UNL     1      -3.377  67.493   8.607  1.00  0.00     0.259 A
HETATM    7  O1  UNL     1      -3.649  68.460   7.869  1.00  0.00    -0.267 OA
HETATM    8  N1  UNL     1      -2.277  67.634   9.383  1.00  0.00    -0.324 N
ATOM      9  H1  UNL     1      -1.726  68.491   9.343  1.00  0.00     0.169 HD
HETATM   10  C7  UNL     1      -5.258  66.042   7.937  1.00  0.00     0.098 A
HETATM   11  C8  UNL     1      -6.026  66.737   6.963  1.00  0.00     0.166 C
HETATM   12  N2  UNL     1      -5.934  66.002   5.673  1.00  0.00    -0.074 NA
HETATM   13  C9  UNL     1      -5.638  64.674   8.383  1.00  0.00     0.261 A
HETATM   14  O3  UNL     1      -6.618  63.997   7.987  1.00  0.00    -0.267 OA
HETATM   15  N3  UNL     1      -4.706  64.261   9.331  1.00  0.00    -0.322 N
ATOM     16  H3  UNL     1      -4.686  63.371   9.828  1.00  0.00     0.169 HD
ENDROOT
BRANCH  11  17
HETATM   17  O2  UNL     1      -6.026  68.021   6.688  1.00  0.00    -0.348 OA
ATOM     18  H2  UNL     1      -5.822  68.448   5.864  1.00  0.00     0.219 HD
ENDBRANCH  11  17
TORSDOF 1
ENDMDL