MODEL 3
REMARK VINA RESULT: -6.598217983      2.999      4.829
REMARK  3 active torsions:
REMARK  status: ('A' for Active; 'I' for Inactive)
REMARK    1  A    between atoms: C3_5  and  C4_6
REMARK    2  A    between atoms: N2_10  and  C8_11
REMARK    3  A    between atoms: C8_11  and  O1_12
ROOT
HETATM    1  C1  UNL     1      -6.553  63.320   7.459  1.00  0.00     0.037 C
HETATM    2  C2  UNL     1      -5.766  63.940   8.128  1.00  0.00    -0.001 C
HETATM    3  N1  UNL     1      -4.824  64.651   8.918  1.00  0.00    -0.326 N
ATOM      4  H1  UNL     1      -4.214  64.159   9.570  1.00  0.00     0.175 HD
HETATM    5  C3  UNL     1      -4.761  65.912   8.794  1.00  0.00     0.110 C
ENDROOT
BRANCH   5   6
HETATM    6  C4  UNL     1      -3.823  66.698   9.569  1.00  0.00    -0.004 A
HETATM    7  C5  UNL     1      -2.498  66.874   9.246  1.00  0.00     0.015 A
HETATM    8  C6  UNL     1      -1.647  67.653  10.048  1.00  0.00     0.018 A
HETATM    9  C7  UNL     1      -2.138  68.256  11.184  1.00  0.00     0.096 A
HETATM   10  N2  UNL     1      -3.417  68.087  11.498  1.00  0.00    -0.303 N
HETATM   11  C9  UNL     1      -4.232  67.343  10.732  1.00  0.00     0.109 A
BRANCH  10  12
HETATM   12  C8  UNL     1      -3.996  68.691  12.674  1.00  0.00     0.329 C
HETATM   13  N3  UNL     1      -3.122  68.903  13.785  1.00  0.00    -0.050 NA
HETATM   14  N4  UNL     1      -3.822  70.103  14.025  1.00  0.00    -0.028 NA
HETATM   15  N5  UNL     1      -4.041  70.159  12.636  1.00  0.00    -0.050 NA
BRANCH  12  16
HETATM   16  O1  UNL     1      -5.221  68.205  13.045  1.00  0.00    -0.341 OA
ATOM     17  H1  UNL     1      -5.372  68.146  13.982  1.00  0.00     0.215 HD
ENDBRANCH  12  16
ENDBRANCH  10  12
ENDBRANCH   5   6
TORSDOF 3
ENDMDL