MODEL 4
REMARK VINA RESULT: -6.371017206      3.036      5.217
REMARK  6 active torsions:
REMARK  status: ('A' for Active; 'I' for Inactive)
REMARK    1  A    between atoms: N1_1  and  N2_4
REMARK    2  A    between atoms: C1_6  and  N3_7
REMARK    3  A    between atoms: N3_7  and  N4_8
REMARK    4  A    between atoms: N3_7  and  C3_13
REMARK    5  A    between atoms: C3_13  and  O1_14
REMARK    6  A    between atoms: C3_13  and  C4_16
ROOT
HETATM    1  N3  UNL     1      -2.614  68.085  10.142  1.00  0.00    -0.224 N
ENDROOT
BRANCH   1   2
HETATM    2  C1  UNL     1      -1.519  67.241  10.107  1.00  0.00     0.225 C
HETATM    3  N2  UNL     1      -1.620  66.092  10.781  1.00  0.00    -0.301 N
ATOM      4  H2  UNL     1      -2.481  65.882  11.286  1.00  0.00     0.187 HD
BRANCH   3   5
HETATM    5  N1  UNL     1      -0.586  65.186  10.807  1.00  0.00    -0.344 N
ATOM      6  H12 UNL     1       0.357  65.521  10.608  1.00  0.00     0.176 HD
ATOM      7  H11 UNL     1      -0.749  64.202  11.019  1.00  0.00     0.176 HD
ENDBRANCH   3   5
ENDBRANCH   1   2
BRANCH   1   8
HETATM    8  N4  UNL     1      -3.265  68.295   8.876  1.00  0.00    -0.266 N
HETATM    9  C2  UNL     1      -4.195  67.486   8.495  1.00  0.00     0.216 C
HETATM   10  N5  UNL     1      -4.800  67.746   7.236  1.00  0.00    -0.065 NA
HETATM   11  N6  UNL     1      -4.633  66.370   9.259  1.00  0.00    -0.065 NA
ATOM     12  H4  UNL     1      -2.994  69.081   8.284  1.00  0.00     0.190 HD
ENDBRANCH   1   8
BRANCH   1  13
HETATM   13  C3  UNL     1      -3.145  68.738  11.240  1.00  0.00     0.191 C
BRANCH  13  14
HETATM   14  O1  UNL     1      -2.839  70.017  11.258  1.00  0.00    -0.343 OA
ATOM     15  H1  UNL     1      -1.975  70.178  11.619  1.00  0.00     0.219 HD
ENDBRANCH  13  14
BRANCH  13  16
HETATM   16  C4  UNL     1      -3.955  68.287  12.345  1.00  0.00     0.106 A
HETATM   17  C5  UNL     1      -3.944  68.925  13.599  1.00  0.00     0.111 A
HETATM   18  C6  UNL     1      -4.814  68.261  14.423  1.00  0.00     0.262 A
HETATM   19  O2  UNL     1      -5.052  68.575  15.641  1.00  0.00    -0.267 OA
HETATM   20  N7  UNL     1      -5.333  67.269  13.719  1.00  0.00    -0.266 N
HETATM   21  N8  UNL     1      -4.822  67.281  12.476  1.00  0.00    -0.294 N
ATOM     22  H7  UNL     1      -6.017  66.596  14.068  1.00  0.00     0.190 HD
ATOM     23  H8  UNL     1      -5.062  66.618  11.739  1.00  0.00     0.187 HD
ENDBRANCH  13  16
ENDBRANCH   1  13
TORSDOF 6
ENDMDL