MODEL 5
REMARK VINA RESULT: -6.944379430      3.025      5.036
REMARK  3 active torsions:
REMARK  status: ('A' for Active; 'I' for Inactive)
REMARK    1  A    between atoms: N1_1  and  N2_4
REMARK    2  A    between atoms: C1_6  and  N3_7
REMARK    3  A    between atoms: C1_6  and  C3_12
ROOT
HETATM    1  N2  UNL     1      -2.880  66.061  10.044  1.00  0.00    -0.290 N
ATOM      2  H2  UNL     1      -2.927  65.638   9.117  1.00  0.00     0.188 HD
HETATM    3  C1  UNL     1      -3.859  66.812  10.343  1.00  0.00     0.149 C
ENDROOT
BRANCH   3   4
HETATM    4  N3  UNL     1      -4.868  66.942   9.326  1.00  0.00    -0.316 N
HETATM    5  C2  UNL     1      -4.606  67.479   8.181  1.00  0.00     0.202 C
HETATM    6  N4  UNL     1      -5.647  67.576   7.226  1.00  0.00    -0.066 NA
HETATM    7  N5  UNL     1      -3.343  67.977   7.820  1.00  0.00    -0.066 NA
ATOM      8  H3  UNL     1      -5.811  66.603   9.514  1.00  0.00     0.169 HD
ENDBRANCH   3   4
BRANCH   3   9
HETATM    9  C3  UNL     1      -3.965  67.478  11.612  1.00  0.00     0.087 A
HETATM   10  C4  UNL     1      -3.277  68.624  11.908  1.00  0.00     0.108 A
HETATM   11  C5  UNL     1      -3.436  69.234  13.165  1.00  0.00     0.251 A
HETATM   12  O1  UNL     1      -2.794  70.296  13.427  1.00  0.00    -0.268 OA
HETATM   13  N6  UNL     1      -4.255  68.705  14.087  1.00  0.00    -0.275 N
HETATM   14  C6  UNL     1      -4.919  67.575  13.768  1.00  0.00     0.327 A
ATOM     15  H6  UNL     1      -4.371  69.144  15.001  1.00  0.00     0.173 HD
HETATM   16  O2  UNL     1      -5.704  67.035  14.601  1.00  0.00    -0.247 OA
HETATM   17  N7  UNL     1      -4.771  66.989  12.568  1.00  0.00    -0.305 N
ATOM     18  H7  UNL     1      -5.295  66.135  12.375  1.00  0.00     0.171 HD
ENDBRANCH   3   9
BRANCH   1  19
HETATM   19  N1  UNL     1      -1.769  65.731  10.777  1.00  0.00    -0.344 N
ATOM     20  H12 UNL     1      -1.005  65.351  10.218  1.00  0.00     0.176 HD
ATOM     21  H11 UNL     1      -1.599  65.809  11.780  1.00  0.00     0.176 HD
ENDBRANCH   1  19
TORSDOF 3
ENDMDL