MODEL 1
REMARK VINA RESULT: -6.050230200      0.000      0.000
REMARK  3 active torsions:
REMARK  status: ('A' for Active; 'I' for Inactive)
REMARK       I    between atoms: C1_4  and  N3_6
REMARK    1  A    between atoms: N3_6  and  C2_8
REMARK    2  A    between atoms: C4_12  and  S1_13
REMARK    3  A    between atoms: S1_13  and  N5_14
ROOT
HETATM    1  C2  UNL     1      -3.619  67.199  10.188  1.00  0.00     0.684 A
HETATM    2  N4  UNL     1      -4.328  66.822  11.247  1.00  0.00    -0.200 N
ATOM      3  H4  UNL     1      -4.858  65.952  11.209  1.00  0.00     0.183 HD
HETATM    4  C3  UNL     1      -4.360  67.564  12.368  1.00  0.00     0.132 A
HETATM    5  C4  UNL     1      -3.643  68.731  12.407  1.00  0.00     0.111 A
HETATM    6  C5  UNL     1      -2.910  69.114  11.303  1.00  0.00     0.132 A
HETATM    7  N6  UNL     1      -2.911  68.337  10.206  1.00  0.00    -0.200 N
ATOM      8  H6  UNL     1      -2.370  68.613   9.386  1.00  0.00     0.183 HD
ENDROOT
BRANCH   1   9
HETATM    9  N3  UNL     1      -3.618  66.444   9.118  1.00  0.00    -0.164 N
HETATM   10  C1  UNL     1      -4.775  65.796   8.648  1.00  0.00     0.200 C
HETATM   11  N1  UNL     1      -5.724  66.478   8.057  1.00  0.00    -0.373 N
HETATM   12  N2  UNL     1      -5.002  64.404   8.772  1.00  0.00    -0.063 NA
ATOM     13  H12 UNL     1      -6.563  66.008   7.716  1.00  0.00     0.158 HD
ATOM     14  H11 UNL     1      -5.561  67.481   7.968  1.00  0.00     0.158 HD
ATOM     15  H3  UNL     1      -2.745  66.321   8.605  1.00  0.00     0.187 HD
ENDBRANCH   1   9
BRANCH   5  16
HETATM   16  S1  UNL     1      -3.599  69.785  13.797  1.00  0.00     0.259 S
HETATM   17  O1  UNL     1      -4.289  71.076  13.376  1.00  0.00    -0.201 OA
HETATM   18  O2  UNL     1      -2.166  70.150  14.050  1.00  0.00    -0.201 OA
BRANCH  16  19
HETATM   19  N5  UNL     1      -4.340  69.116  15.168  1.00  0.00    -0.324 N
ATOM     20  H52 UNL     1      -5.311  69.308  15.415  1.00  0.00     0.169 HD
ATOM     21  H51 UNL     1      -3.719  68.513  15.707  1.00  0.00     0.169 HD
ENDBRANCH  16  19
ENDBRANCH   5  16
TORSDOF 3
ENDMDL