MODEL 3
REMARK VINA RESULT: -7.450420346      1.942      3.588
REMARK  3 active torsions:
REMARK  status: ('A' for Active; 'I' for Inactive)
REMARK    1  A    between atoms: N2_4  and  N3_6
REMARK       I    between atoms: N3_6  and  C1_8
REMARK    2  A    between atoms: N5_10  and  N6_12
REMARK    3  A    between atoms: C2_14  and  C3_15
ROOT
HETATM    1  N6  UNL     1      -4.606  67.437  11.988  1.00  0.00    -0.307 N
ATOM      2  H6  UNL     1      -5.276  66.670  12.053  1.00  0.00     0.186 HD
HETATM    3  C2  UNL     1      -4.156  67.802  10.827  1.00  0.00     0.137 C
ENDROOT
BRANCH   1   4
HETATM    4  N5  UNL     1      -4.181  68.087  13.147  1.00  0.00    -0.273 N
HETATM    5  C1  UNL     1      -4.959  68.065  14.188  1.00  0.00     0.223 C
HETATM    6  N3  UNL     1      -6.211  67.403  14.156  1.00  0.00    -0.258 N
HETATM    7  N4  UNL     1      -4.574  68.714  15.405  1.00  0.00    -0.061 NA
ATOM      8  H3  UNL     1      -6.281  66.502  13.683  1.00  0.00     0.191 HD
ATOM      9  H5  UNL     1      -3.281  68.566  13.178  1.00  0.00     0.189 HD
BRANCH   6  10
HETATM   10  N2  UNL     1      -7.351  67.943  14.750  1.00  0.00    -0.247 N
HETATM   11  N1  UNL     1      -8.485  67.865  14.189  1.00  0.00    -0.331 N
ATOM     12  H12 UNL     1      -8.548  67.395  13.286  1.00  0.00     0.178 HD
ATOM     13  H11 UNL     1      -9.319  68.260  14.624  1.00  0.00     0.178 HD
ATOM     14  H2  UNL     1      -7.270  68.410  15.653  1.00  0.00     0.207 HD
ENDBRANCH   6  10
ENDBRANCH   1   4
BRANCH   3  15
HETATM   15  C3  UNL     1      -4.588  67.138   9.620  1.00  0.00     0.058 A
HETATM   16  C4  UNL     1      -4.783  65.751   9.650  1.00  0.00     0.105 A
HETATM   17  C5  UNL     1      -5.196  65.115   8.497  1.00  0.00     0.251 A
HETATM   18  O1  UNL     1      -5.393  63.873   8.438  1.00  0.00    -0.268 OA
HETATM   19  N7  UNL     1      -5.391  65.866   7.396  1.00  0.00    -0.275 N
HETATM   20  C6  UNL     1      -5.194  67.194   7.404  1.00  0.00     0.327 A
ATOM     21  H7  UNL     1      -5.696  65.414   6.534  1.00  0.00     0.173 HD
HETATM   22  O2  UNL     1      -5.388  67.868   6.351  1.00  0.00    -0.247 OA
HETATM   23  N8  UNL     1      -4.794  67.852   8.502  1.00  0.00    -0.307 N
ATOM     24  H8  UNL     1      -4.650  68.862   8.487  1.00  0.00     0.170 HD
ENDBRANCH   3  15
TORSDOF 3
ENDMDL