MODEL 5
REMARK VINA RESULT: -5.613323085      2.624      3.571
REMARK  3 active torsions:
REMARK  status: ('A' for Active; 'I' for Inactive)
REMARK    1  A    between atoms: N1_1  and  N2_4
REMARK    2  A    between atoms: N2_4  and  C1_6
REMARK    3  A    between atoms: N6_16  and  S1_18
ROOT
HETATM    1  C1  UNL     1      -4.687  66.664   9.067  1.00  0.00     0.170 A
HETATM    2  N3  UNL     1      -4.037  67.758   9.553  1.00  0.00    -0.289 N
ATOM      3  H3  UNL     1      -4.378  68.695   9.342  1.00  0.00     0.172 HD
HETATM    4  C2  UNL     1      -2.946  67.590  10.311  1.00  0.00     0.340 A
HETATM    5  O1  UNL     1      -2.333  68.602  10.767  1.00  0.00    -0.245 OA
HETATM    6  N4  UNL     1      -2.512  66.343  10.579  1.00  0.00    -0.250 N
ATOM      7  H4  UNL     1      -1.679  66.232  11.158  1.00  0.00     0.192 HD
HETATM    8  N5  UNL     1      -3.107  65.270  10.133  1.00  0.00    -0.278 N
ATOM      9  H5  UNL     1      -2.743  64.345  10.362  1.00  0.00     0.189 HD
HETATM   10  C3  UNL     1      -4.237  65.401   9.347  1.00  0.00     0.176 A
HETATM   11  N6  UNL     1      -4.786  64.333   8.934  1.00  0.00    -0.252 N
ATOM     12  H6  UNL     1      -4.331  63.469   9.229  1.00  0.00     0.181 HD
ENDROOT
BRANCH   1  13
HETATM   13  N2  UNL     1      -5.736  66.829   8.339  1.00  0.00    -0.289 N
ATOM     14  H2  UNL     1      -6.617  66.445   8.682  1.00  0.00     0.188 HD
BRANCH  13  15
HETATM   15  N1  UNL     1      -5.752  67.488   7.130  1.00  0.00    -0.344 N
ATOM     16  H12 UNL     1      -6.508  67.249   6.489  1.00  0.00     0.176 HD
ATOM     17  H11 UNL     1      -5.066  68.186   6.843  1.00  0.00     0.176 HD
ENDBRANCH  13  15
ENDBRANCH   1  13
BRANCH  11  18
HETATM   18  S1  UNL     1      -6.157  64.132   7.971  1.00  0.00     0.360 S
HETATM   19  O2  UNL     1      -6.447  62.642   7.744  1.00  0.00    -0.187 OA
HETATM   20  O3  UNL     1      -6.006  64.681   6.559  1.00  0.00    -0.187 OA
ENDBRANCH  11  18
TORSDOF 3
ENDMDL