MODEL 2
REMARK VINA RESULT: -7.612861317      1.095      1.338
REMARK  10 active torsions:
REMARK  status: ('A' for Active; 'I' for Inactive)
REMARK    1  A    between atoms: C2_2  and  N1_3
REMARK    2  A    between atoms: N1_3  and  C3_4
REMARK    3  A    between atoms: N1_3  and  C5_6
REMARK    4  A    between atoms: C5_6  and  C6_7
REMARK    5  A    between atoms: C6_7  and  C7_8
REMARK    6  A    between atoms: C7_8  and  N2_9
REMARK    7  A    between atoms: N2_9  and  C8_11
REMARK    8  A    between atoms: C11_16  and  N4_17
REMARK    9  A    between atoms: N4_17  and  C12_19
REMARK   10  A    between atoms: C12_19  and  C13_20
ROOT
HETATM    1  C8  UNL     1      25.822  57.556  49.302  1.00  0.00     0.679 A
HETATM    2  N3  UNL     1      27.085  57.562  48.812  1.00  0.00    -0.195 N
ATOM      3  H3  UNL     1      27.282  56.998  47.985  1.00  0.00     0.184 HD
HETATM    4  C9  UNL     1      28.081  58.258  49.346  1.00  0.00     0.036 A
HETATM    5  C10 UNL     1      27.842  59.023  50.460  1.00  0.00     0.009 A
HETATM    6  C11 UNL     1      26.553  59.042  50.994  1.00  0.00     0.125 A
HETATM    7  N5  UNL     1      25.600  58.305  50.386  1.00  0.00    -0.176 N
ATOM      8  H5  UNL     1      24.658  58.320  50.776  1.00  0.00     0.186 HD
HETATM    9  C14 UNL     1      29.084  59.716  50.897  1.00  0.00     0.045 C
HETATM   10  C15 UNL     1      29.889  59.728  49.634  1.00  0.00     0.011 C
HETATM   11  C16 UNL     1      29.539  58.426  48.993  1.00  0.00     0.058 C
ENDROOT
BRANCH   1  12
HETATM   12  N2  UNL     1      24.934  56.878  48.755  1.00  0.00    -0.226 N
ATOM     13  H2  UNL     1      23.989  57.209  48.948  1.00  0.00     0.177 HD
BRANCH  12  14
HETATM   14  C7  UNL     1      24.977  55.723  47.907  1.00  0.00     0.140 C
BRANCH  14  15
HETATM   15  C6  UNL     1      25.774  54.604  48.439  1.00  0.00     0.050 C
BRANCH  15  16
HETATM   16  C5  UNL     1      25.260  53.226  48.264  1.00  0.00     0.274 C
BRANCH  16  17
HETATM   17  N1  UNL     1      26.042  52.249  47.578  1.00  0.00     0.087 N
BRANCH  17  18
HETATM   18  C2  UNL     1      25.101  51.584  46.621  1.00  0.00     0.268 C
HETATM   19  C1  UNL     1      24.333  52.592  45.836  1.00  0.00     0.037 C
ENDBRANCH  17  18
BRANCH  17  20
HETATM   20  C3  UNL     1      26.587  51.171  48.348  1.00  0.00     0.268 C
HETATM   21  C4  UNL     1      27.588  50.305  47.621  1.00  0.00     0.037 C
ENDBRANCH  17  20
ENDBRANCH  16  17
ENDBRANCH  15  16
ENDBRANCH  14  15
ENDBRANCH  12  14
ENDBRANCH   1  12
BRANCH   6  22
HETATM   22  N4  UNL     1      26.373  59.769  52.036  1.00  0.00    -0.365 N
ATOM     23  H4  UNL     1      26.000  60.713  51.940  1.00  0.00     0.161 HD
BRANCH  22  24
HETATM   24  C12 UNL     1      26.697  59.251  53.340  1.00  0.00     0.234 C
BRANCH  24  25
HETATM   25  C13 UNL     1      25.916  59.933  54.424  1.00  0.00     0.191 C
HETATM   26  O1  UNL     1      24.863  59.396  54.796  1.00  0.00    -0.647 OA
HETATM   27  O2  UNL     1      26.329  61.108  55.000  1.00  0.00    -0.647 OA
ENDBRANCH  24  25
ENDBRANCH  22  24
ENDBRANCH   6  22
TORSDOF 10
ENDMDL