MODEL 3
REMARK VINA RESULT: -7.858482767      1.232      1.361
REMARK  8 active torsions:
REMARK  status: ('A' for Active; 'I' for Inactive)
REMARK    1  A    between atoms: S1_2  and  N1_5
REMARK    2  A    between atoms: N1_5  and  S2_7
REMARK    3  A    between atoms: S2_7  and  N2_10
REMARK    4  A    between atoms: N2_10  and  C1_12
REMARK    5  A    between atoms: C1_12  and  C2_13
REMARK    6  A    between atoms: C2_13  and  C3_14
REMARK    7  A    between atoms: C3_14  and  C4_15
REMARK    8  A    between atoms: C4_15  and  C5_16
ROOT
HETATM    1  C1  UNL     1      25.912  58.867  49.139  1.00  0.00     0.133 C
ENDROOT
BRANCH   1   2
HETATM    2  N2  UNL     1      26.580  59.009  50.396  1.00  0.00    -0.302 N
ATOM      3  H2  UNL     1      26.143  59.057  51.316  1.00  0.00     0.173 HD
BRANCH   2   4
HETATM    4  S2  UNL     1      28.303  59.084  50.044  1.00  0.00     0.329 S
HETATM    5  O4  UNL     1      28.735  60.269  49.322  1.00  0.00    -0.182 OA
HETATM    6  O5  UNL     1      28.552  57.880  49.065  1.00  0.00    -0.182 OA
BRANCH   4   7
HETATM    7  N1  UNL     1      29.192  58.705  51.452  1.00  0.00    -0.175 N
ATOM      8  H1  UNL     1      30.157  58.376  51.477  1.00  0.00     0.196 HD
BRANCH   7   9
HETATM    9  S1  UNL     1      28.179  58.974  52.828  1.00  0.00     0.219 S
HETATM   10  O1  UNL     1      29.026  59.007  54.053  1.00  0.00    -0.577 OA
HETATM   11  O2  UNL     1      27.590  60.355  52.658  1.00  0.00    -0.577 OA
HETATM   12  O3  UNL     1      26.945  57.852  52.919  1.00  0.00    -0.577 OA
ENDBRANCH   7   9
ENDBRANCH   4   7
ENDBRANCH   2   4
ENDBRANCH   1   2
BRANCH   1  13
HETATM   13  C2  UNL     1      25.155  57.558  49.218  1.00  0.00     0.020 C
BRANCH  13  14
HETATM   14  C3  UNL     1      25.303  56.500  48.270  1.00  0.00     0.004 C
BRANCH  14  15
HETATM   15  C4  UNL     1      26.058  55.331  48.826  1.00  0.00     0.024 C
BRANCH  15  16
HETATM   16  C5  UNL     1      25.951  54.047  48.032  1.00  0.00     0.076 C
HETATM   17  C6  UNL     1      24.528  53.918  47.611  1.00  0.00     0.024 C
HETATM   18  C7  UNL     1      24.131  52.709  46.876  1.00  0.00     0.002 C
HETATM   19  C8  UNL     1      25.211  51.950  46.181  1.00  0.00     0.002 C
HETATM   20  C9  UNL     1      26.338  51.527  47.073  1.00  0.00     0.019 C
HETATM   21  C10 UNL     1      26.026  51.668  48.534  1.00  0.00     0.114 C
HETATM   22  N3  UNL     1      26.390  53.001  48.933  1.00  0.00    -0.417 N
ATOM     23  H3  UNL     1      26.916  53.195  49.785  1.00  0.00     0.153 HD
ENDBRANCH  15  16
ENDBRANCH  14  15
ENDBRANCH  13  14
ENDBRANCH   1  13
TORSDOF 8
ENDMDL