MODEL 5
REMARK VINA RESULT: -6.775684689      3.556      5.234
REMARK  10 active torsions:
REMARK  status: ('A' for Active; 'I' for Inactive)
REMARK    1  A    between atoms: C3_8  and  N3_9
REMARK    2  A    between atoms: C6_15  and  C7_16
REMARK    3  A    between atoms: C7_16  and  C8_17
REMARK    4  A    between atoms: C8_17  and  C9_18
REMARK    5  A    between atoms: C9_18  and  C10_19
REMARK    6  A    between atoms: C10_19  and  C11_20
REMARK    7  A    between atoms: C11_20  and  O1_21
REMARK    8  A    between atoms: S1_23  and  C12_24
REMARK    9  A    between atoms: C12_24  and  C13_25
REMARK   10  A    between atoms: C13_25  and  C14_26
ROOT
HETATM    1  N1  UNL     1      30.717  58.621  51.031  1.00  0.00    -0.389 N
ATOM      2  H11 UNL     1      31.002  58.958  50.111  1.00  0.00     0.157 HD
ATOM      3  H12 UNL     1      31.247  57.774  51.238  1.00  0.00     0.157 HD
HETATM    4  C1  UNL     1      29.852  59.136  51.818  1.00  0.00     0.077 C
HETATM    5  N2  UNL     1      29.457  58.668  53.090  1.00  0.00    -0.365 N
ATOM      6  H2  UNL     1      29.821  57.846  53.570  1.00  0.00     0.162 HD
HETATM    7  C2  UNL     1      28.446  59.567  53.586  1.00  0.00     0.167 C
HETATM    8  C3  UNL     1      28.811  60.892  52.893  1.00  0.00     0.226 C
HETATM    9  C4  UNL     1      29.066  60.390  51.511  1.00  0.00     0.087 C
HETATM   10  C5  UNL     1      27.883  60.113  50.673  1.00  0.00     0.029 C
HETATM   11  C6  UNL     1      26.685  59.501  51.310  1.00  0.00     0.040 C
HETATM   12  S1  UNL     1      26.905  59.089  52.968  1.00  0.00    -0.190 SA
ENDROOT
BRANCH  11  13
HETATM   13  C7  UNL     1      26.339  58.208  50.549  1.00  0.00     0.014 C
BRANCH  13  14
HETATM   14  C8  UNL     1      25.666  58.490  49.247  1.00  0.00     0.001 C
BRANCH  14  15
HETATM   15  C9  UNL     1      25.630  57.260  48.401  1.00  0.00     0.002 C
BRANCH  15  16
HETATM   16  C10 UNL     1      26.373  56.093  48.993  1.00  0.00     0.026 C
BRANCH  16  17
HETATM   17  C11 UNL     1      25.776  54.775  48.515  1.00  0.00     0.164 C
BRANCH  17  18
HETATM   18  O1  UNL     1      26.351  53.763  49.301  1.00  0.00    -0.401 OA
ATOM     19  H1  UNL     1      26.562  53.047  48.712  1.00  0.00     0.209 HD
ENDBRANCH  17  18
ENDBRANCH  16  17
ENDBRANCH  15  16
ENDBRANCH  14  15
ENDBRANCH  13  14
ENDBRANCH  11  13
BRANCH  12  20
HETATM   20  C12 UNL     1      25.540  59.382  54.019  1.00  0.00     0.076 C
BRANCH  20  21
HETATM   21  C13 UNL     1      25.846  60.306  55.172  1.00  0.00     0.122 C
BRANCH  21  22
HETATM   22  C14 UNL     1      25.037  59.943  56.363  1.00  0.00     0.173 C
HETATM   23  O2  UNL     1      25.436  59.089  57.179  1.00  0.00    -0.648 OA
HETATM   24  O3  UNL     1      23.825  60.574  56.551  1.00  0.00    -0.648 OA
ENDBRANCH  21  22
ENDBRANCH  20  21
ENDBRANCH  12  20
BRANCH   8  25
HETATM   25  N3  UNL     1      30.063  61.399  53.429  1.00  0.00    -0.071 N
ATOM     26  H33 UNL     1      30.176  62.398  53.261  1.00  0.00     0.274 HD
ATOM     27  H32 UNL     1      30.064  61.419  54.449  1.00  0.00     0.274 HD
ATOM     28  H31 UNL     1      30.843  60.857  53.055  1.00  0.00     0.274 HD
ENDBRANCH   8  25
TORSDOF 10
ENDMDL