MODEL 3
REMARK VINA RESULT: -7.516991559      2.644      6.420
REMARK  10 active torsions:
REMARK  status: ('A' for Active; 'I' for Inactive)
REMARK    1  A    between atoms: C4_7  and  C5_8
REMARK    2  A    between atoms: C5_8  and  C6_9
REMARK    3  A    between atoms: N3_14  and  C8_15
REMARK    4  A    between atoms: C10_17  and  C11_18
REMARK    5  A    between atoms: C11_18  and  C12_19
REMARK    6  A    between atoms: C12_19  and  C13_20
REMARK    7  A    between atoms: C13_20  and  C14_21
REMARK    8  A    between atoms: C14_21  and  C15_22
REMARK    9  A    between atoms: C15_22  and  C16_23
REMARK   10  A    between atoms: C16_23  and  O3_24
ROOT
HETATM    1  C6  UNL     1      28.900  59.663  50.409  1.00  0.00     0.061 A
HETATM    2  N2  UNL     1      30.104  60.128  50.788  1.00  0.00    -0.307 N
ATOM      3  H2  UNL     1      30.302  60.804  51.526  1.00  0.00     0.170 HD
HETATM    4  C7  UNL     1      30.996  59.509  49.984  1.00  0.00     0.327 A
HETATM    5  O2  UNL     1      32.230  59.703  50.054  1.00  0.00    -0.246 OA
HETATM    6  N3  UNL     1      30.387  58.680  49.122  1.00  0.00    -0.301 N
HETATM    7  C10 UNL     1      29.073  58.767  49.379  1.00  0.00     0.043 A
ENDROOT
BRANCH   1   8
HETATM    8  C5  UNL     1      27.635  60.058  51.005  1.00  0.00     0.066 C
BRANCH   8   9
HETATM    9  C4  UNL     1      27.417  60.115  52.299  1.00  0.00     0.104 A
HETATM   10  C3  UNL     1      27.043  59.064  53.107  1.00  0.00     0.273 A
HETATM   11  N1  UNL     1      26.929  59.566  54.369  1.00  0.00    -0.308 N
HETATM   12  O1  UNL     1      26.838  57.866  52.785  1.00  0.00    -0.266 OA
HETATM   13  C2  UNL     1      27.217  60.875  54.364  1.00  0.00     0.098 A
ATOM     14  H1  UNL     1      26.666  59.027  55.194  1.00  0.00     0.170 HD
HETATM   15  C1  UNL     1      27.204  61.673  55.425  1.00  0.00     0.063 C
HETATM   16  N4  UNL     1      27.512  61.193  53.096  1.00  0.00    -0.339 N
ATOM     17  H4  UNL     1      27.772  62.127  52.778  1.00  0.00     0.167 HD
ENDBRANCH   8   9
ENDBRANCH   1   8
BRANCH   7  18
HETATM   18  C11 UNL     1      27.989  58.021  48.664  1.00  0.00     0.060 C
BRANCH  18  19
HETATM   19  C12 UNL     1      27.561  56.811  49.452  1.00  0.00     0.006 C
BRANCH  19  20
HETATM   20  C13 UNL     1      26.056  56.628  49.435  1.00  0.00     0.000 C
BRANCH  20  21
HETATM   21  C14 UNL     1      25.482  56.607  48.070  1.00  0.00     0.002 C
BRANCH  21  22
HETATM   22  C15 UNL     1      24.723  55.370  47.687  1.00  0.00     0.026 C
BRANCH  22  23
HETATM   23  C16 UNL     1      25.407  54.085  47.955  1.00  0.00     0.164 C
BRANCH  23  24
HETATM   24  O3  UNL     1      24.674  53.132  48.639  1.00  0.00    -0.401 OA
ATOM     25  H3  UNL     1      25.123  52.320  48.838  1.00  0.00     0.209 HD
ENDBRANCH  23  24
ENDBRANCH  22  23
ENDBRANCH  21  22
ENDBRANCH  20  21
ENDBRANCH  19  20
ENDBRANCH  18  19
ENDBRANCH   7  18
BRANCH   6  26
HETATM   26  C8  UNL     1      30.979  57.832  48.095  1.00  0.00     0.129 C
HETATM   27  C9  UNL     1      31.149  58.581  46.789  1.00  0.00     0.027 C
ENDBRANCH   6  26
TORSDOF 10
ENDMDL