MODEL 1
REMARK VINA RESULT: -7.664702403      0.000      0.000
REMARK  10 active torsions:
REMARK  status: ('A' for Active; 'I' for Inactive)
REMARK    1  A    between atoms: C1_4  and  C2_5
REMARK    2  A    between atoms: C1_4  and  N4_19
REMARK    3  A    between atoms: C2_5  and  C3_6
REMARK    4  A    between atoms: C3_6  and  C4_7
REMARK    5  A    between atoms: C4_7  and  C5_8
REMARK    6  A    between atoms: C5_8  and  C6_9
REMARK    7  A    between atoms: C6_9  and  C7_10
REMARK    8  A    between atoms: C7_10  and  C8_11
REMARK    9  A    between atoms: C8_11  and  N2_12
REMARK   10  A    between atoms: C14_25  and  O2_26
ROOT
HETATM    1  C2  UNL     1      28.354  60.508  51.679  1.00  0.00     0.076 C
ENDROOT
BRANCH   1   2
HETATM    2  C1  UNL     1      28.208  59.652  52.860  1.00  0.00     0.081 C
HETATM    3  N1  UNL     1      28.852  58.545  52.935  1.00  0.00    -0.389 N
ATOM      4  H12 UNL     1      29.483  58.300  52.172  1.00  0.00     0.157 HD
ATOM      5  H11 UNL     1      28.751  57.950  53.757  1.00  0.00     0.157 HD
BRANCH   2   6
HETATM    6  N4  UNL     1      27.317  59.999  53.938  1.00  0.00    -0.285 N
HETATM    7  C12 UNL     1      27.635  61.023  54.876  1.00  0.00     0.177 C
HETATM    8  S1  UNL     1      28.972  61.988  54.884  1.00  0.00    -0.041 SA
HETATM    9  N5  UNL     1      26.560  61.060  55.825  1.00  0.00    -0.363 N
HETATM   10  C13 UNL     1      25.922  59.757  55.756  1.00  0.00     0.176 C
ATOM     11  H5  UNL     1      26.297  61.842  56.425  1.00  0.00     0.162 HD
HETATM   12  C14 UNL     1      26.037  59.444  54.274  1.00  0.00     0.246 C
BRANCH  12  13
HETATM   13  O2  UNL     1      24.987  60.146  53.648  1.00  0.00    -0.374 OA
ATOM     14  H2  UNL     1      24.898  59.900  52.735  1.00  0.00     0.212 HD
ENDBRANCH  12  13
ENDBRANCH   2   6
ENDBRANCH   1   2
BRANCH   1  15
HETATM   15  C3  UNL     1      27.915  59.924  50.383  1.00  0.00     0.007 C
BRANCH  15  16
HETATM   16  C4  UNL     1      26.436  59.797  50.274  1.00  0.00     0.000 C
BRANCH  16  17
HETATM   17  C5  UNL     1      25.987  58.367  50.092  1.00  0.00     0.000 C
BRANCH  17  18
HETATM   18  C6  UNL     1      25.639  58.031  48.673  1.00  0.00     0.002 C
BRANCH  18  19
HETATM   19  C7  UNL     1      24.705  56.813  48.745  1.00  0.00     0.020 C
BRANCH  19  20
HETATM   20  C8  UNL     1      24.928  55.895  47.559  1.00  0.00     0.127 C
BRANCH  20  21
HETATM   21  N2  UNL     1      25.395  54.603  47.953  1.00  0.00    -0.333 N
HETATM   22  C9  UNL     1      24.939  53.341  47.395  1.00  0.00     0.147 C
HETATM   23  C10 UNL     1      25.948  52.298  47.846  1.00  0.00     0.144 C
HETATM   24  N3  UNL     1      26.359  52.854  49.133  1.00  0.00    -0.341 N
HETATM   25  C11 UNL     1      26.370  54.276  48.938  1.00  0.00     0.318 C
ATOM     26  H3  UNL     1      26.588  52.343  49.986  1.00  0.00     0.164 HD
HETATM   27  O1  UNL     1      27.134  55.094  49.551  1.00  0.00    -0.247 OA
ENDBRANCH  20  21
ENDBRANCH  19  20
ENDBRANCH  18  19
ENDBRANCH  17  18
ENDBRANCH  16  17
ENDBRANCH  15  16
ENDBRANCH   1  15
TORSDOF 10
ENDMDL