MODEL 4
REMARK VINA RESULT: -8.046635983      2.152      3.021
REMARK  9 active torsions:
REMARK  status: ('A' for Active; 'I' for Inactive)
REMARK    1  A    between atoms: C2_7  and  C3_8
REMARK    2  A    between atoms: C3_8  and  C4_9
REMARK       I    between atoms: N4_18  and  C10_19
REMARK    3  A    between atoms: C10_19  and  C11_21
REMARK    4  A    between atoms: C11_21  and  C12_22
REMARK    5  A    between atoms: C12_22  and  C13_23
REMARK    6  A    between atoms: C13_23  and  C14_24
REMARK    7  A    between atoms: C14_24  and  C15_25
REMARK    8  A    between atoms: C15_25  and  C16_26
REMARK    9  A    between atoms: C16_26  and  N5_27
ROOT
HETATM    1  N1  UNL     1      24.360  58.553  49.278  1.00  0.00    -0.371 N
ATOM      2  H11 UNL     1      24.015  57.749  48.753  1.00  0.00     0.159 HD
ATOM      3  H12 UNL     1      23.674  59.306  49.224  1.00  0.00     0.159 HD
HETATM    4  C1  UNL     1      25.479  58.642  49.917  1.00  0.00     0.178 C
HETATM    5  N2  UNL     1      25.967  59.784  50.661  1.00  0.00    -0.356 N
ATOM      6  H2  UNL     1      25.440  60.586  51.006  1.00  0.00     0.163 HD
HETATM    7  C2  UNL     1      27.371  59.516  50.796  1.00  0.00     0.104 C
HETATM    8  C9  UNL     1      27.441  58.046  50.963  1.00  0.00     0.160 C
HETATM    9  N4  UNL     1      26.429  57.599  49.991  1.00  0.00    -0.288 N
HETATM   10  C10 UNL     1      26.495  56.340  49.318  1.00  0.00     0.226 C
HETATM   11  O2  UNL     1      27.448  55.543  49.536  1.00  0.00    -0.273 OA
ENDROOT
BRANCH  10  12
HETATM   12  C11 UNL     1      25.452  55.931  48.347  1.00  0.00     0.103 C
BRANCH  12  13
HETATM   13  C12 UNL     1      25.399  54.444  48.271  1.00  0.00     0.009 C
BRANCH  13  14
HETATM   14  C13 UNL     1      24.566  54.016  47.052  1.00  0.00     0.001 C
BRANCH  14  15
HETATM   15  C14 UNL     1      25.199  52.803  46.491  1.00  0.00     0.002 C
BRANCH  15  16
HETATM   16  C15 UNL     1      25.189  51.560  47.295  1.00  0.00     0.027 C
BRANCH  16  17
HETATM   17  C16 UNL     1      26.537  51.038  47.656  1.00  0.00     0.229 C
BRANCH  17  18
HETATM   18  N5  UNL     1      26.881  51.261  49.036  1.00  0.00    -0.079 N
ATOM     19  H53 UNL     1      27.891  51.227  49.168  1.00  0.00     0.274 HD
ATOM     20  H52 UNL     1      26.710  52.232  49.299  1.00  0.00     0.274 HD
ATOM     21  H51 UNL     1      26.409  50.622  49.676  1.00  0.00     0.274 HD
ENDBRANCH  17  18
ENDBRANCH  16  17
ENDBRANCH  15  16
ENDBRANCH  14  15
ENDBRANCH  13  14
ENDBRANCH  12  13
ENDBRANCH  10  12
BRANCH   7  22
HETATM   22  C3  UNL     1      28.127  60.394  51.679  1.00  0.00     0.041 C
BRANCH  22  23
HETATM   23  C4  UNL     1      28.341  60.030  53.101  1.00  0.00     0.080 C
HETATM   24  C5  UNL     1      28.230  61.323  53.908  1.00  0.00     0.015 C
HETATM   25  C6  UNL     1      29.503  61.901  54.386  1.00  0.00     0.020 C
HETATM   26  C7  UNL     1      30.692  61.672  53.507  1.00  0.00     0.122 C
HETATM   27  N3  UNL     1      30.804  60.229  53.201  1.00  0.00    -0.361 N
HETATM   28  C8  UNL     1      29.647  59.436  53.425  1.00  0.00     0.221 C
ATOM     29  H3  UNL     1      31.669  59.823  52.845  1.00  0.00     0.162 HD
HETATM   30  O1  UNL     1      29.762  58.290  53.879  1.00  0.00    -0.273 OA
ENDBRANCH  22  23
ENDBRANCH   7  22
TORSDOF 9
ENDMDL