MODEL 3
REMARK VINA RESULT: -7.222543856      1.627      3.964
REMARK  11 active torsions:
REMARK  status: ('A' for Active; 'I' for Inactive)
REMARK    1  A    between atoms: C6_6  and  C7_7
REMARK    2  A    between atoms: C8_8  and  N1_9
REMARK    3  A    between atoms: N1_9  and  C9_10
REMARK    4  A    between atoms: C9_10  and  C10_11
REMARK    5  A    between atoms: C10_11  and  C11_12
REMARK    6  A    between atoms: C11_12  and  O1_13
REMARK    7  A    between atoms: C11_12  and  C12_15
REMARK    8  A    between atoms: C12_15  and  O2_16
REMARK    9  A    between atoms: C15_20  and  O3_21
REMARK   10  A    between atoms: C16_23  and  C17_24
REMARK   11  A    between atoms: C17_24  and  O4_25
ROOT
HETATM    1  N1  UNL     1      27.134  58.983  49.776  1.00  0.00    -0.038 N
HETATM    2  C13 UNL     1      27.136  60.278  50.413  1.00  0.00     0.246 C
HETATM    3  C14 UNL     1      28.587  60.706  50.584  1.00  0.00     0.062 C
HETATM    4  C15 UNL     1      29.354  59.450  50.271  1.00  0.00     0.153 C
HETATM    5  C16 UNL     1      28.425  58.840  49.223  1.00  0.00     0.247 C
ENDROOT
BRANCH   1   6
HETATM    6  C8  UNL     1      26.025  58.708  48.994  1.00  0.00     0.204 C
HETATM    7  C7  UNL     1      25.102  57.615  48.994  1.00  0.00     0.032 C
BRANCH   7   8
HETATM    8  C6  UNL     1      25.455  56.209  48.721  1.00  0.00    -0.053 A
HETATM    9  C5  UNL     1      26.438  55.408  49.463  1.00  0.00     0.066 A
HETATM   10  C4  UNL     1      26.563  54.002  49.094  1.00  0.00    -0.021 A
HETATM   11  C3  UNL     1      25.889  53.369  48.166  1.00  0.00     0.007 A
HETATM   12  C2  UNL     1      24.916  54.147  47.427  1.00  0.00    -0.045 A
HETATM   13  C1  UNL     1      24.212  53.554  46.480  1.00  0.00     0.023 C
HETATM   14  C18 UNL     1      24.767  55.539  47.765  1.00  0.00     0.018 A
ENDBRANCH   7   8
ENDBRANCH   1   6
BRANCH   1  15
HETATM   15  C9  UNL     1      27.043  58.083  50.981  1.00  0.00     0.246 C
BRANCH  15  16
HETATM   16  C10 UNL     1      26.306  58.716  52.109  1.00  0.00     0.062 C
BRANCH  16  17
HETATM   17  C11 UNL     1      27.156  58.545  53.386  1.00  0.00     0.143 C
BRANCH  17  18
HETATM   18  O1  UNL     1      28.333  57.896  53.010  1.00  0.00    -0.393 OA
ATOM     19  H1  UNL     1      29.041  58.519  53.121  1.00  0.00     0.210 HD
ENDBRANCH  17  18
BRANCH  17  20
HETATM   20  C12 UNL     1      27.541  59.896  53.938  1.00  0.00     0.195 C
BRANCH  20  21
HETATM   21  O2  UNL     1      26.437  60.747  53.949  1.00  0.00    -0.398 OA
ATOM     22  H2  UNL     1      26.558  61.452  53.324  1.00  0.00     0.209 HD
ENDBRANCH  20  21
ENDBRANCH  17  20
ENDBRANCH  16  17
ENDBRANCH  15  16
ENDBRANCH   1  15
BRANCH   5  23
HETATM   23  C17 UNL     1      28.897  57.458  48.895  1.00  0.00     0.200 C
BRANCH  23  24
HETATM   24  O4  UNL     1      29.991  57.632  48.008  1.00  0.00    -0.399 OA
ATOM     25  H4  UNL     1      30.592  58.215  48.456  1.00  0.00     0.209 HD
ENDBRANCH  23  24
ENDBRANCH   5  23
BRANCH   4  26
HETATM   26  O3  UNL     1      30.561  59.765  49.602  1.00  0.00    -0.393 OA
ATOM     27  H3  UNL     1      31.010  60.473  50.048  1.00  0.00     0.210 HD
ENDBRANCH   4  26
TORSDOF 11
ENDMDL