MODEL 2
REMARK VINA RESULT: -7.756951621      1.569      2.188
REMARK  12 active torsions:
REMARK  status: ('A' for Active; 'I' for Inactive)
REMARK    1  A    between atoms: N1_1  and  C1_5
REMARK    2  A    between atoms: C1_5  and  C2_6
REMARK    3  A    between atoms: C2_6  and  C3_7
REMARK    4  A    between atoms: C3_7  and  C4_8
REMARK    5  A    between atoms: C4_8  and  N2_9
REMARK       I    between atoms: N2_9  and  C5_11
REMARK    6  A    between atoms: C5_11  and  C6_13
REMARK    7  A    between atoms: C6_13  and  C7_14
REMARK    8  A    between atoms: C7_14  and  C8_15
REMARK    9  A    between atoms: C9_16  and  C10_17
REMARK   10  A    between atoms: C10_17  and  C11_18
REMARK   11  A    between atoms: C15_22  and  O2_23
REMARK   12  A    between atoms: N3_27  and  O3_28
ROOT
HETATM    1  C8  UNL     1      25.986  58.779  49.601  1.00  0.00    -0.030 C
HETATM    2  C9  UNL     1      27.300  58.593  49.644  1.00  0.00    -0.030 C
ENDROOT
BRANCH   1   3
HETATM    3  C7  UNL     1      25.106  57.668  49.221  1.00  0.00     0.036 C
BRANCH   3   4
HETATM    4  C6  UNL     1      25.636  56.971  47.988  1.00  0.00     0.106 C
BRANCH   4   5
HETATM    5  C5  UNL     1      25.376  55.510  48.164  1.00  0.00     0.217 C
HETATM    6  N2  UNL     1      24.386  54.927  47.329  1.00  0.00    -0.361 N
ATOM      7  H2  UNL     1      23.881  55.488  46.642  1.00  0.00     0.162 HD
HETATM    8  O1  UNL     1      26.013  54.832  49.020  1.00  0.00    -0.274 OA
BRANCH   6   9
HETATM    9  C4  UNL     1      24.117  53.516  47.481  1.00  0.00     0.122 C
BRANCH   9  10
HETATM   10  C3  UNL     1      24.918  52.658  46.546  1.00  0.00     0.021 C
BRANCH  10  11
HETATM   11  C2  UNL     1      25.245  51.359  47.235  1.00  0.00     0.029 C
BRANCH  11  12
HETATM   12  C1  UNL     1      26.667  51.302  47.722  1.00  0.00     0.229 C
BRANCH  12  13
HETATM   13  N1  UNL     1      26.757  51.775  49.084  1.00  0.00    -0.079 N
ATOM     14  H13 UNL     1      27.434  52.532  49.178  1.00  0.00     0.274 HD
ATOM     15  H12 UNL     1      25.918  52.284  49.364  1.00  0.00     0.274 HD
ATOM     16  H11 UNL     1      26.963  51.004  49.719  1.00  0.00     0.274 HD
ENDBRANCH  12  13
ENDBRANCH  11  12
ENDBRANCH  10  11
ENDBRANCH   9  10
ENDBRANCH   6   9
ENDBRANCH   4   5
ENDBRANCH   3   4
ENDBRANCH   1   3
BRANCH   2  17
HETATM   17  C10 UNL     1      28.273  59.683  50.023  1.00  0.00     0.032 C
BRANCH  17  18
HETATM   18  C11 UNL     1      27.854  60.450  51.217  1.00  0.00    -0.000 A
HETATM   19  C12 UNL     1      27.606  59.987  52.559  1.00  0.00    -0.002 A
HETATM   20  C13 UNL     1      28.062  58.806  53.281  1.00  0.00     0.030 C
HETATM   21  C17 UNL     1      28.787  60.896  52.297  1.00  0.00     0.017 A
HETATM   22  C14 UNL     1      29.539  58.607  53.462  1.00  0.00     0.117 C
HETATM   23  C15 UNL     1      30.119  59.895  54.062  1.00  0.00     0.158 C
HETATM   24  N3  UNL     1      30.281  58.913  52.298  1.00  0.00    -0.185 NA
HETATM   25  C16 UNL     1      30.101  60.294  52.574  1.00  0.00     0.121 C
BRANCH  23  26
HETATM   26  O2  UNL     1      29.238  60.607  54.836  1.00  0.00    -0.392 OA
ATOM     27  H2  UNL     1      29.597  61.405  55.208  1.00  0.00     0.210 HD
ENDBRANCH  23  26
BRANCH  24  28
HETATM   28  O3  UNL     1      31.517  58.470  52.169  1.00  0.00    -0.312 OA
ATOM     29  H3  UNL     1      31.813  58.124  51.335  1.00  0.00     0.237 HD
ENDBRANCH  24  28
ENDBRANCH  17  18
ENDBRANCH   2  17
TORSDOF 12
ENDMDL