MODEL 3
REMARK VINA RESULT: -7.247813893      3.308      5.670
REMARK  11 active torsions:
REMARK  status: ('A' for Active; 'I' for Inactive)
REMARK    1  A    between atoms: C3_3  and  C4_4
REMARK    2  A    between atoms: C4_4  and  N1_5
REMARK    3  A    between atoms: N1_5  and  C6_7
REMARK    4  A    between atoms: C6_7  and  C7_8
REMARK    5  A    between atoms: C7_8  and  C8_9
REMARK    6  A    between atoms: C8_9  and  N2_10
REMARK    7  A    between atoms: N2_10  and  C9_12
REMARK    8  A    between atoms: C10_15  and  N4_16
REMARK    9  A    between atoms: C11_21  and  N6_22
REMARK       I    between atoms: N6_22  and  C12_24
REMARK   10  A    between atoms: C12_24  and  C13_26
REMARK   11  A    between atoms: C13_26  and  C14_27
ROOT
HETATM    1  C1  UNL     1      24.391  51.985  45.792  1.00  0.00     0.012 C
HETATM    2  C2  UNL     1      24.476  52.992  46.448  1.00  0.00    -0.116 C
HETATM    3  C3  UNL     1      24.582  54.211  47.275  1.00  0.00     0.112 C
ENDROOT
BRANCH   3   4
HETATM    4  C4  UNL     1      25.586  54.037  48.378  1.00  0.00     0.128 C
BRANCH   4   5
HETATM    5  N1  UNL     1      25.799  55.306  49.014  1.00  0.00    -0.416 N
HETATM    6  C5  UNL     1      27.076  55.486  49.600  1.00  0.00     0.143 C
BRANCH   5   7
HETATM    7  C6  UNL     1      25.216  56.413  48.349  1.00  0.00     0.118 C
BRANCH   7   8
HETATM    8  C7  UNL     1      26.081  57.626  48.268  1.00  0.00     0.039 C
BRANCH   8   9
HETATM    9  C8  UNL     1      25.582  58.737  49.191  1.00  0.00     0.139 C
BRANCH   9  10
HETATM   10  N2  UNL     1      25.609  58.410  50.565  1.00  0.00    -0.225 N
ATOM     11  H2  UNL     1      24.882  57.783  50.909  1.00  0.00     0.177 HD
BRANCH  10  12
HETATM   12  C9  UNL     1      26.467  58.833  51.417  1.00  0.00     0.707 A
HETATM   13  N3  UNL     1      27.799  58.641  51.313  1.00  0.00    -0.022 N
HETATM   14  C10 UNL     1      28.690  59.089  52.220  1.00  0.00     0.705 A
ATOM     15  H3  UNL     1      28.151  58.130  50.504  1.00  0.00     0.203 HD
HETATM   16  N5  UNL     1      28.221  59.754  53.272  1.00  0.00    -0.021 N
HETATM   17  C11 UNL     1      26.884  59.989  53.449  1.00  0.00     0.714 A
ATOM     18  H5  UNL     1      28.880  60.099  53.970  1.00  0.00     0.203 HD
HETATM   19  N7  UNL     1      26.050  59.525  52.524  1.00  0.00    -0.021 N
ATOM     20  H7  UNL     1      25.051  59.692  52.643  1.00  0.00     0.203 HD
BRANCH  14  21
HETATM   21  N4  UNL     1      29.968  58.904  52.119  1.00  0.00    -0.234 N
ATOM     22  H42 UNL     1      30.439  59.196  51.263  1.00  0.00     0.174 HD
ATOM     23  H41 UNL     1      30.536  58.480  52.853  1.00  0.00     0.174 HD
ENDBRANCH  14  21
BRANCH  17  24
HETATM   24  N6  UNL     1      26.545  60.639  54.507  1.00  0.00    -0.159 N
HETATM   25  C12 UNL     1      25.588  60.080  55.389  1.00  0.00     0.235 C
HETATM   26  O1  UNL     1      24.416  59.834  55.022  1.00  0.00    -0.273 OA
ATOM     27  H6  UNL     1      26.962  61.548  54.709  1.00  0.00     0.187 HD
BRANCH  25  28
HETATM   28  C13 UNL     1      25.922  59.755  56.805  1.00  0.00     0.103 C
BRANCH  28  29
HETATM   29  C14 UNL     1      24.792  59.961  57.756  1.00  0.00     0.005 C
HETATM   30  C15 UNL     1      24.746  61.428  58.131  1.00  0.00     0.005 C
ENDBRANCH  28  29
ENDBRANCH  25  28
ENDBRANCH  17  24
ENDBRANCH  10  12
ENDBRANCH   9  10
ENDBRANCH   8   9
ENDBRANCH   7   8
ENDBRANCH   5   7
ENDBRANCH   4   5
ENDBRANCH   3   4
TORSDOF 11
ENDMDL