MODEL 3
REMARK VINA RESULT: -6.252115342      0.850      4.440
REMARK  13 active torsions:
REMARK  status: ('A' for Active; 'I' for Inactive)
REMARK    1  A    between atoms: S1_2  and  C2_3
REMARK    2  A    between atoms: C2_3  and  C3_4
REMARK    3  A    between atoms: C3_4  and  C4_5
REMARK    4  A    between atoms: C4_5  and  N1_6
REMARK    5  A    between atoms: N1_6  and  C5_8
REMARK    6  A    between atoms: C6_11  and  N3_12
REMARK    7  A    between atoms: N3_12  and  C7_14
REMARK    8  A    between atoms: C7_14  and  C8_15
REMARK    9  A    between atoms: C8_15  and  O1_16
REMARK   10  A    between atoms: C9_20  and  N5_21
REMARK   11  A    between atoms: N5_21  and  C10_23
REMARK   12  A    between atoms: C10_23  and  C11_24
REMARK   13  A    between atoms: C11_24  and  O2_25
ROOT
HETATM    1  C5  UNL     1      26.292  59.033  50.089  1.00  0.00     0.707 A
HETATM    2  N2  UNL     1      26.305  59.543  51.334  1.00  0.00    -0.022 N
ATOM      3  H2  UNL     1      25.484  59.401  51.921  1.00  0.00     0.203 HD
HETATM    4  C6  UNL     1      27.349  60.236  51.850  1.00  0.00     0.707 A
HETATM    5  N4  UNL     1      28.424  60.417  51.063  1.00  0.00    -0.022 N
ATOM      6  H4  UNL     1      29.228  60.935  51.419  1.00  0.00     0.203 HD
HETATM    7  C9  UNL     1      28.452  59.928  49.821  1.00  0.00     0.707 A
HETATM    8  N6  UNL     1      27.394  59.242  49.342  1.00  0.00    -0.022 N
ATOM      9  H6  UNL     1      27.428  58.874  48.392  1.00  0.00     0.203 HD
ENDROOT
BRANCH   1  10
HETATM   10  N1  UNL     1      25.277  58.379  49.636  1.00  0.00    -0.225 N
ATOM     11  H1  UNL     1      24.393  58.500  50.131  1.00  0.00     0.177 HD
BRANCH  10  12
HETATM   12  C4  UNL     1      25.272  57.506  48.514  1.00  0.00     0.139 C
BRANCH  12  13
HETATM   13  C3  UNL     1      25.923  56.156  48.834  1.00  0.00     0.030 C
BRANCH  13  14
HETATM   14  C2  UNL     1      25.285  55.148  47.913  1.00  0.00     0.075 C
BRANCH  14  15
HETATM   15  S1  UNL     1      25.640  53.454  48.380  1.00  0.00    -0.173 SA
HETATM   16  C1  UNL     1      25.594  52.387  46.916  1.00  0.00     0.089 C
ENDBRANCH  14  15
ENDBRANCH  13  14
ENDBRANCH  12  13
ENDBRANCH  10  12
ENDBRANCH   1  10
BRANCH   4  17
HETATM   17  N3  UNL     1      27.330  60.712  53.041  1.00  0.00    -0.223 N
ATOM     18  H3  UNL     1      27.486  61.708  53.201  1.00  0.00     0.177 HD
BRANCH  17  19
HETATM   19  C7  UNL     1      27.089  59.827  54.147  1.00  0.00     0.164 C
BRANCH  19  20
HETATM   20  C8  UNL     1      25.735  60.064  54.778  1.00  0.00     0.184 C
BRANCH  20  21
HETATM   21  O1  UNL     1      24.711  59.416  54.126  1.00  0.00    -0.399 OA
ATOM     22  H1  UNL     1      23.858  59.579  54.511  1.00  0.00     0.209 HD
ENDBRANCH  20  21
ENDBRANCH  19  20
ENDBRANCH  17  19
ENDBRANCH   4  17
BRANCH   7  23
HETATM   23  N5  UNL     1      29.479  60.101  49.071  1.00  0.00    -0.223 N
ATOM     24  H5  UNL     1      29.639  61.037  48.699  1.00  0.00     0.177 HD
BRANCH  23  25
HETATM   25  C10 UNL     1      30.417  59.079  48.716  1.00  0.00     0.164 C
BRANCH  25  26
HETATM   26  C11 UNL     1      31.515  59.075  49.774  1.00  0.00     0.184 C
BRANCH  26  27
HETATM   27  O2  UNL     1      31.077  58.365  50.903  1.00  0.00    -0.399 OA
ATOM     28  H2  UNL     1      31.143  57.432  50.738  1.00  0.00     0.209 HD
ENDBRANCH  26  27
ENDBRANCH  25  26
ENDBRANCH  23  25
ENDBRANCH   7  23
TORSDOF 13
ENDMDL