MODEL 2
REMARK VINA RESULT: -7.383371288      1.522      2.412
REMARK  9 active torsions:
REMARK  status: ('A' for Active; 'I' for Inactive)
REMARK    1  A    between atoms: C2_2  and  N1_3
REMARK    2  A    between atoms: N1_3  and  C3_4
REMARK    3  A    between atoms: N1_3  and  C6_11
REMARK    4  A    between atoms: C3_4  and  C4_5
REMARK    5  A    between atoms: C4_5  and  N2_6
REMARK    6  A    between atoms: C6_11  and  C7_12
REMARK    7  A    between atoms: C7_12  and  N5_13
REMARK    8  A    between atoms: N5_13  and  C8_15
REMARK    9  A    between atoms: C9_18  and  N7_19
ROOT
HETATM    1  C8  UNL     1      28.349  59.416  52.074  1.00  0.00     0.700 A
HETATM    2  N6  UNL     1      27.065  59.162  52.354  1.00  0.00    -0.022 N
ATOM      3  H6  UNL     1      26.582  58.421  51.846  1.00  0.00     0.203 HD
HETATM    4  C9  UNL     1      26.388  59.869  53.304  1.00  0.00     0.692 A
HETATM    5  N8  UNL     1      27.059  60.838  53.953  1.00  0.00    -0.175 N
ATOM      6  H8  UNL     1      26.571  61.379  54.667  1.00  0.00     0.186 HD
HETATM    7  C10 UNL     1      28.357  61.123  53.697  1.00  0.00     0.143 A
HETATM    8  C11 UNL     1      29.221  62.057  54.235  1.00  0.00     0.051 A
HETATM    9  C12 UNL     1      30.422  61.903  53.597  1.00  0.00     0.022 A
HETATM   10  C13 UNL     1      30.252  60.882  52.695  1.00  0.00     0.117 A
HETATM   11  N9  UNL     1      28.993  60.389  52.738  1.00  0.00    -0.142 N
ENDROOT
BRANCH   1  12
HETATM   12  N5  UNL     1      28.956  58.747  51.176  1.00  0.00    -0.220 N
ATOM     13  H5  UNL     1      29.668  58.067  51.440  1.00  0.00     0.178 HD
BRANCH  12  14
HETATM   14  C7  UNL     1      28.637  58.950  49.794  1.00  0.00     0.182 C
BRANCH  14  15
HETATM   15  C6  UNL     1      28.531  57.655  49.022  1.00  0.00     0.078 C
BRANCH  15  16
HETATM   16  N1  UNL     1      27.253  57.168  48.782  1.00  0.00    -0.391 N
BRANCH  16  17
HETATM   17  C2  UNL     1      26.236  58.034  48.305  1.00  0.00     0.117 C
HETATM   18  C1  UNL     1      25.208  58.466  49.310  1.00  0.00     0.026 C
ENDBRANCH  16  17
BRANCH  16  19
HETATM   19  C3  UNL     1      26.784  56.101  49.611  1.00  0.00     0.141 C
BRANCH  19  20
HETATM   20  C4  UNL     1      26.034  55.034  48.842  1.00  0.00     0.141 C
BRANCH  20  21
HETATM   21  N2  UNL     1      26.454  53.705  49.123  1.00  0.00    -0.365 N
HETATM   22  C5  UNL     1      26.095  52.737  48.376  1.00  0.00     0.197 C
HETATM   23  N3  UNL     1      25.272  52.974  47.252  1.00  0.00    -0.067 NA
HETATM   24  N4  UNL     1      26.508  51.408  48.648  1.00  0.00    -0.067 NA
ATOM     25  H2  UNL     1      27.049  53.525  49.932  1.00  0.00     0.161 HD
ENDBRANCH  20  21
ENDBRANCH  19  20
ENDBRANCH  16  19
ENDBRANCH  15  16
ENDBRANCH  14  15
ENDBRANCH  12  14
ENDBRANCH   1  12
BRANCH   4  26
HETATM   26  N7  UNL     1      25.152  59.635  53.584  1.00  0.00    -0.234 N
ATOM     27  H72 UNL     1      24.629  58.936  53.057  1.00  0.00     0.174 HD
ATOM     28  H71 UNL     1      24.660  60.129  54.329  1.00  0.00     0.174 HD
ENDBRANCH   4  26
TORSDOF 9
ENDMDL