MODEL 1
REMARK VINA RESULT: -6.898136213      0.000      0.000
REMARK  10 active torsions:
REMARK  status: ('A' for Active; 'I' for Inactive)
REMARK    1  A    between atoms: C1_2  and  N1_3
REMARK    2  A    between atoms: N1_3  and  C2_5
REMARK    3  A    between atoms: C2_5  and  C3_6
REMARK    4  A    between atoms: C3_6  and  C4_7
REMARK    5  A    between atoms: C4_7  and  C5_8
REMARK    6  A    between atoms: C6_11  and  C7_12
REMARK    7  A    between atoms: C7_12  and  C8_13
REMARK    8  A    between atoms: C8_13  and  O2_14
REMARK    9  A    between atoms: C9_16  and  O3_17
REMARK   10  A    between atoms: C10_19  and  C11_20
ROOT
HETATM    1  C5  UNL     1      26.652  58.169  49.857  1.00  0.00     0.169 C
HETATM    2  N2  UNL     1      26.188  59.169  50.720  1.00  0.00    -0.402 N
ATOM      3  H2  UNL     1      25.259  59.571  50.589  1.00  0.00     0.154 HD
HETATM    4  C6  UNL     1      27.021  59.619  51.780  1.00  0.00     0.110 C
HETATM    5  C9  UNL     1      27.995  60.673  51.425  1.00  0.00     0.163 C
HETATM    6  C10 UNL     1      29.132  60.302  50.571  1.00  0.00     0.119 C
HETATM    7  N3  UNL     1      28.921  59.391  49.510  1.00  0.00    -0.352 N
ATOM      8  H3  UNL     1      29.489  59.562  48.681  1.00  0.00     0.163 HD
HETATM    9  C14 UNL     1      28.057  58.291  49.412  1.00  0.00     0.240 C
HETATM   10  O4  UNL     1      28.498  57.224  48.871  1.00  0.00    -0.271 OA
ENDROOT
BRANCH   1  11
HETATM   11  C4  UNL     1      25.813  58.200  48.599  1.00  0.00     0.036 C
BRANCH  11  12
HETATM   12  C3  UNL     1      24.797  57.108  48.594  1.00  0.00     0.022 C
BRANCH  12  13
HETATM   13  C2  UNL     1      25.326  55.922  47.832  1.00  0.00     0.122 C
BRANCH  13  14
HETATM   14  N1  UNL     1      26.008  55.023  48.742  1.00  0.00    -0.368 N
ATOM     15  H1  UNL     1      26.615  55.431  49.452  1.00  0.00     0.161 HD
BRANCH  14  16
HETATM   16  C1  UNL     1      25.884  53.617  48.705  1.00  0.00     0.348 C
HETATM   17  O1  UNL     1      24.827  53.028  48.299  1.00  0.00    -0.284 OA
ENDBRANCH  14  16
ENDBRANCH  13  14
ENDBRANCH  12  13
ENDBRANCH  11  12
ENDBRANCH   1  11
BRANCH   4  18
HETATM   18  C7  UNL     1      27.576  58.492  52.621  1.00  0.00     0.053 C
BRANCH  18  19
HETATM   19  C8  UNL     1      27.857  59.049  53.994  1.00  0.00     0.166 C
BRANCH  19  20
HETATM   20  O2  UNL     1      26.608  59.400  54.537  1.00  0.00    -0.401 OA
ATOM     21  H2  UNL     1      26.792  59.967  55.278  1.00  0.00     0.209 HD
ENDBRANCH  19  20
ENDBRANCH  18  19
ENDBRANCH   4  18
BRANCH   5  22
HETATM   22  O3  UNL     1      27.288  61.741  50.858  1.00  0.00    -0.391 OA
ATOM     23  H3  UNL     1      27.199  61.572  49.928  1.00  0.00     0.210 HD
ENDBRANCH   5  22
BRANCH   6  24
HETATM   24  C11 UNL     1      30.359  59.846  51.375  1.00  0.00     0.011 A
HETATM   25  C12 UNL     1      31.591  59.531  50.551  1.00  0.00     0.007 A
HETATM   26  C13 UNL     1      31.597  60.745  51.365  1.00  0.00     0.007 A
ENDBRANCH   6  24
TORSDOF 10
ENDMDL