MODEL 4
REMARK VINA RESULT: -6.611585012      2.905      5.136
REMARK  9 active torsions:
REMARK  status: ('A' for Active; 'I' for Inactive)
REMARK    1  A    between atoms: N3_4  and  C2_6
REMARK    2  A    between atoms: C2_6  and  C3_7
REMARK    3  A    between atoms: C3_7  and  C4_8
REMARK    4  A    between atoms: C4_8  and  C5_9
REMARK    5  A    between atoms: C5_9  and  C6_10
REMARK    6  A    between atoms: C5_9  and  N7_23
REMARK    7  A    between atoms: C6_10  and  N4_11
REMARK    8  A    between atoms: C6_10  and  C7_15
REMARK    9  A    between atoms: C7_15  and  C8_16
ROOT
HETATM    1  C5  UNL     1      27.444  58.191  49.447  1.00  0.00     0.256 C
ENDROOT
BRANCH   1   2
HETATM    2  C4  UNL     1      28.712  57.833  48.773  1.00  0.00     0.040 C
BRANCH   2   3
HETATM    3  C3  UNL     1      29.898  58.714  48.866  1.00  0.00     0.022 C
BRANCH   3   4
HETATM    4  C2  UNL     1      30.665  58.449  47.542  1.00  0.00     0.122 C
BRANCH   4   5
HETATM    5  N3  UNL     1      31.315  59.639  47.093  1.00  0.00    -0.367 N
HETATM    6  C1  UNL     1      31.840  59.637  45.919  1.00  0.00     0.196 C
HETATM    7  N1  UNL     1      31.820  58.534  45.034  1.00  0.00    -0.067 NA
HETATM    8  N2  UNL     1      32.482  60.825  45.485  1.00  0.00    -0.067 NA
ATOM      9  H3  UNL     1      31.361  60.467  47.686  1.00  0.00     0.161 HD
ENDBRANCH   4   5
ENDBRANCH   3   4
ENDBRANCH   2   3
ENDBRANCH   1   2
BRANCH   1  10
HETATM   10  C6  UNL     1      27.822  58.788  50.756  1.00  0.00     0.222 C
BRANCH  10  11
HETATM   11  N4  UNL     1      27.483  58.158  51.956  1.00  0.00    -0.073 N
ATOM     12  H43 UNL     1      26.739  58.698  52.399  1.00  0.00     0.274 HD
ATOM     13  H42 UNL     1      27.003  57.287  51.732  1.00  0.00     0.274 HD
ATOM     14  H41 UNL     1      28.192  57.958  52.661  1.00  0.00     0.274 HD
ENDBRANCH  10  11
BRANCH  10  15
HETATM   15  C7  UNL     1      27.449  60.250  50.868  1.00  0.00     0.093 C
BRANCH  15  16
HETATM   16  C8  UNL     1      28.284  60.888  51.967  1.00  0.00     0.027 A
HETATM   17  C9  UNL     1      29.659  60.855  52.086  1.00  0.00     0.114 A
HETATM   18  N5  UNL     1      29.995  61.541  53.197  1.00  0.00    -0.360 N
HETATM   19  C10 UNL     1      28.871  62.001  53.773  1.00  0.00     0.180 A
ATOM     20  H5  UNL     1      30.943  61.686  53.542  1.00  0.00     0.166 HD
HETATM   21  N6  UNL     1      27.841  61.596  53.015  1.00  0.00    -0.355 N
ATOM     22  H6  UNL     1      26.860  61.798  53.208  1.00  0.00     0.166 HD
ENDBRANCH  15  16
ENDBRANCH  10  15
ENDBRANCH   1  10
BRANCH   1  23
HETATM   23  N7  UNL     1      26.399  57.237  49.456  1.00  0.00     0.120 N
HETATM   24  C11 UNL     1      25.661  57.251  48.207  1.00  0.00     0.301 C
HETATM   25  C12 UNL     1      25.128  55.833  48.025  1.00  0.00     0.200 C
HETATM   26  O1  UNL     1      26.058  55.091  48.656  1.00  0.00    -0.361 OA
HETATM   27  C13 UNL     1      26.785  55.882  49.549  1.00  0.00     0.441 C
ENDBRANCH   1  23
TORSDOF 9
ENDMDL