MODEL 1
REMARK VINA RESULT: -7.341131773      0.000      0.000
REMARK  11 active torsions:
REMARK  status: ('A' for Active; 'I' for Inactive)
REMARK    1  A    between atoms: N1_2  and  C2_4
REMARK    2  A    between atoms: N3_8  and  C4_10
REMARK    3  A    between atoms: C4_10  and  C5_11
REMARK    4  A    between atoms: C5_11  and  C6_12
REMARK    5  A    between atoms: C6_12  and  O1_13
REMARK    6  A    between atoms: O1_13  and  C7_14
REMARK    7  A    between atoms: C7_14  and  C8_15
REMARK    8  A    between atoms: C8_15  and  O2_16
REMARK    9  A    between atoms: C9_20  and  N5_21
REMARK   10  A    between atoms: N5_21  and  C10_23
REMARK   11  A    between atoms: C10_23  and  C11_24
ROOT
HETATM    1  C2  UNL     1      29.254  59.642  49.407  1.00  0.00     0.706 A
HETATM    2  N2  UNL     1      28.164  58.970  48.927  1.00  0.00    -0.022 N
ATOM      3  H2  UNL     1      28.284  58.389  48.097  1.00  0.00     0.203 HD
HETATM    4  C3  UNL     1      26.951  59.029  49.482  1.00  0.00     0.707 A
HETATM    5  N3  UNL     1      25.927  58.407  49.045  1.00  0.00    -0.225 N
ATOM      6  H3  UNL     1      25.051  58.531  49.552  1.00  0.00     0.177 HD
HETATM    7  N4  UNL     1      26.812  59.816  50.597  1.00  0.00    -0.022 N
ATOM      8  H4  UNL     1      25.900  59.888  51.048  1.00  0.00     0.203 HD
HETATM    9  C9  UNL     1      27.854  60.495  51.106  1.00  0.00     0.707 A
HETATM   10  N6  UNL     1      29.053  60.395  50.501  1.00  0.00    -0.022 N
ATOM     11  H6  UNL     1      29.841  60.912  50.891  1.00  0.00     0.203 HD
ENDROOT
BRANCH   5  12
HETATM   12  C4  UNL     1      25.909  57.551  47.903  1.00  0.00     0.140 C
BRANCH  12  13
HETATM   13  C5  UNL     1      25.483  56.132  48.207  1.00  0.00     0.046 C
BRANCH  13  14
HETATM   14  C6  UNL     1      26.397  55.421  49.162  1.00  0.00     0.169 C
BRANCH  14  15
HETATM   15  O1  UNL     1      26.008  54.111  49.347  1.00  0.00    -0.389 OA
BRANCH  15  16
HETATM   16  C7  UNL     1      25.402  53.511  48.274  1.00  0.00     0.193 C
BRANCH  16  17
HETATM   17  C8  UNL     1      26.068  52.196  47.911  1.00  0.00     0.190 C
BRANCH  17  18
HETATM   18  O2  UNL     1      26.651  51.633  49.057  1.00  0.00    -0.399 OA
ATOM     19  H2  UNL     1      27.576  51.483  48.901  1.00  0.00     0.209 HD
ENDBRANCH  17  18
ENDBRANCH  16  17
ENDBRANCH  15  16
ENDBRANCH  14  15
ENDBRANCH  13  14
ENDBRANCH  12  13
ENDBRANCH   5  12
BRANCH   1  20
HETATM   20  N1  UNL     1      30.415  59.566  48.852  1.00  0.00    -0.229 N
HETATM   21  C1  UNL     1      30.824  58.273  48.336  1.00  0.00     0.165 C
ATOM     22  H1  UNL     1      31.023  60.383  48.778  1.00  0.00     0.177 HD
ENDBRANCH   1  20
BRANCH   9  23
HETATM   23  N5  UNL     1      27.698  61.231  52.159  1.00  0.00    -0.215 N
ATOM     24  H5  UNL     1      27.493  62.227  52.076  1.00  0.00     0.178 HD
BRANCH  23  25
HETATM   25  C10 UNL     1      27.820  60.613  53.441  1.00  0.00     0.251 C
BRANCH  25  26
HETATM   26  C11 UNL     1      26.864  59.535  53.687  1.00  0.00     0.191 C
HETATM   27  O3  UNL     1      25.773  59.715  54.278  1.00  0.00    -0.647 OA
HETATM   28  O4  UNL     1      27.175  58.259  53.249  1.00  0.00    -0.647 OA
ENDBRANCH  25  26
ENDBRANCH  23  25
ENDBRANCH   9  23
TORSDOF 11
ENDMDL