MODEL 2
REMARK VINA RESULT: -7.905788973      1.427      1.952
REMARK  10 active torsions:
REMARK  status: ('A' for Active; 'I' for Inactive)
REMARK       I    between atoms: C1_2  and  N6_23
REMARK    1  A    between atoms: N2_3  and  C2_5
REMARK    2  A    between atoms: C2_5  and  C3_6
REMARK    3  A    between atoms: C3_6  and  C4_7
REMARK    4  A    between atoms: C4_7  and  O1_8
REMARK    5  A    between atoms: O1_8  and  C5_9
REMARK    6  A    between atoms: C5_9  and  C6_10
REMARK    7  A    between atoms: C6_10  and  N3_11
REMARK    8  A    between atoms: C6_10  and  C7_15
REMARK    9  A    between atoms: C7_15  and  C8_16
REMARK   10  A    between atoms: N6_23  and  C11_25
ROOT
HETATM    1  C4  UNL     1      29.340  58.178  49.001  1.00  0.00     0.169 C
ENDROOT
BRANCH   1   2
HETATM    2  C3  UNL     1      28.952  59.501  49.574  1.00  0.00     0.046 C
BRANCH   2   3
HETATM    3  C2  UNL     1      29.052  59.435  51.098  1.00  0.00     0.124 C
BRANCH   3   4
HETATM    4  N2  UNL     1      27.789  59.899  51.618  1.00  0.00    -0.364 N
HETATM    5  C1  UNL     1      26.943  59.152  52.232  1.00  0.00     0.189 C
HETATM    6  N1  UNL     1      27.135  57.772  52.480  1.00  0.00    -0.063 NA
HETATM    7  N6  UNL     1      25.743  59.770  52.683  1.00  0.00    -0.315 N
ATOM      8  H6  UNL     1      25.040  60.094  52.020  1.00  0.00     0.170 HD
ATOM      9  H2  UNL     1      27.553  60.884  51.490  1.00  0.00     0.162 HD
BRANCH   7  10
HETATM   10  C11 UNL     1      25.569  59.909  53.954  1.00  0.00     0.137 A
HETATM   11  C12 UNL     1      26.603  60.110  54.841  1.00  0.00     0.154 A
HETATM   12  N7  UNL     1      26.031  60.206  56.047  1.00  0.00    -0.292 N
HETATM   13  N8  UNL     1      24.710  60.071  55.921  1.00  0.00    -0.021 NA
ATOM     14  H7  UNL     1      26.527  60.358  56.925  1.00  0.00     0.183 HD
HETATM   15  N9  UNL     1      24.412  59.888  54.634  1.00  0.00    -0.268 N
ATOM     16  H9  UNL     1      23.479  59.757  54.241  1.00  0.00     0.186 HD
ENDBRANCH   7  10
ENDBRANCH   3   4
ENDBRANCH   2   3
ENDBRANCH   1   2
BRANCH   1  17
HETATM   17  O1  UNL     1      28.270  57.334  48.890  1.00  0.00    -0.389 OA
BRANCH  17  18
HETATM   18  C5  UNL     1      27.174  57.876  48.281  1.00  0.00     0.200 C
BRANCH  18  19
HETATM   19  C6  UNL     1      25.952  57.032  48.610  1.00  0.00     0.212 C
BRANCH  19  20
HETATM   20  N3  UNL     1      25.002  57.752  49.409  1.00  0.00    -0.073 N
ATOM     21  H33 UNL     1      25.462  58.454  49.989  1.00  0.00     0.274 HD
ATOM     22  H32 UNL     1      24.429  58.370  48.834  1.00  0.00     0.274 HD
ATOM     23  H31 UNL     1      24.424  57.127  49.971  1.00  0.00     0.274 HD
ENDBRANCH  19  20
BRANCH  19  24
HETATM   24  C7  UNL     1      26.444  55.837  49.425  1.00  0.00     0.093 C
BRANCH  24  25
HETATM   25  C8  UNL     1      26.030  54.566  48.753  1.00  0.00     0.027 A
HETATM   26  C9  UNL     1      25.150  54.484  47.669  1.00  0.00     0.114 A
HETATM   27  N4  UNL     1      25.060  53.184  47.387  1.00  0.00    -0.360 N
HETATM   28  C10 UNL     1      25.813  52.439  48.207  1.00  0.00     0.180 A
ATOM     29  H4  UNL     1      24.485  52.802  46.636  1.00  0.00     0.166 HD
HETATM   30  N5  UNL     1      26.408  53.313  49.047  1.00  0.00    -0.355 N
ATOM     31  H5  UNL     1      27.050  53.057  49.797  1.00  0.00     0.166 HD
ENDBRANCH  24  25
ENDBRANCH  19  24
ENDBRANCH  18  19
ENDBRANCH  17  18
ENDBRANCH   1  17
TORSDOF 10
ENDMDL