MODEL 5
REMARK VINA RESULT: -6.295203177      2.245      6.527
REMARK  13 active torsions:
REMARK  status: ('A' for Active; 'I' for Inactive)
REMARK    1  A    between atoms: C2_2  and  C3_3
REMARK    2  A    between atoms: C3_3  and  N1_5
REMARK    3  A    between atoms: C3_3  and  C5_9
REMARK    4  A    between atoms: C5_9  and  N2_10
REMARK    5  A    between atoms: N2_10  and  C6_12
REMARK    6  A    between atoms: C7_15  and  N4_16
REMARK    7  A    between atoms: N4_16  and  C8_18
REMARK    8  A    between atoms: C8_18  and  C9_19
REMARK    9  A    between atoms: C10_23  and  N6_24
REMARK   10  A    between atoms: N6_24  and  C11_26
REMARK   11  A    between atoms: C11_26  and  C12_27
REMARK   12  A    between atoms: C12_27  and  C13_28
REMARK   13  A    between atoms: C13_28  and  N7_29
ROOT
HETATM    1  C6  UNL     1      26.809  59.653  51.536  1.00  0.00     0.707 A
HETATM    2  N3  UNL     1      27.982  59.991  50.989  1.00  0.00    -0.022 N
ATOM      3  H3  UNL     1      28.644  60.566  51.510  1.00  0.00     0.203 HD
HETATM    4  C7  UNL     1      28.285  59.570  49.749  1.00  0.00     0.707 A
HETATM    5  N5  UNL     1      27.436  58.811  49.034  1.00  0.00    -0.022 N
ATOM      6  H5  UNL     1      27.684  58.501  48.095  1.00  0.00     0.203 HD
HETATM    7  C10 UNL     1      26.255  58.468  49.577  1.00  0.00     0.707 A
HETATM    8  N8  UNL     1      25.965  58.899  50.825  1.00  0.00    -0.022 N
ATOM      9  H8  UNL     1      25.070  58.639  51.240  1.00  0.00     0.203 HD
ENDROOT
BRANCH   1  10
HETATM   10  N2  UNL     1      26.508  60.040  52.700  1.00  0.00    -0.223 N
ATOM     11  H2  UNL     1      25.722  60.685  52.780  1.00  0.00     0.177 HD
BRANCH  10  12
HETATM   12  C5  UNL     1      27.158  59.664  53.917  1.00  0.00     0.176 C
BRANCH  12  13
HETATM   13  C3  UNL     1      26.570  60.421  55.086  1.00  0.00     0.136 C
HETATM   14  C4  UNL     1      27.286  60.006  56.331  1.00  0.00     0.048 C
BRANCH  13  15
HETATM   15  C2  UNL     1      25.091  60.131  55.188  1.00  0.00     0.035 C
HETATM   16  C1  UNL     1      24.547  60.403  56.555  1.00  0.00     0.007 C
ENDBRANCH  13  15
BRANCH  13  17
HETATM   17  N1  UNL     1      26.709  61.836  54.789  1.00  0.00    -0.069 N
ATOM     18  H13 UNL     1      27.390  62.026  54.055  1.00  0.00     0.275 HD
ATOM     19  H12 UNL     1      25.894  62.228  54.317  1.00  0.00     0.275 HD
ATOM     20  H11 UNL     1      26.926  62.307  55.668  1.00  0.00     0.275 HD
ENDBRANCH  13  17
ENDBRANCH  12  13
ENDBRANCH  10  12
ENDBRANCH   1  10
BRANCH   4  21
HETATM   21  N4  UNL     1      29.412  59.872  49.175  1.00  0.00    -0.219 N
ATOM     22  H4  UNL     1      29.823  60.787  49.363  1.00  0.00     0.178 HD
BRANCH  21  23
HETATM   23  C8  UNL     1      30.106  58.977  48.289  1.00  0.00     0.207 C
BRANCH  23  24
HETATM   24  C9  UNL     1      31.428  58.631  48.916  1.00  0.00     0.251 C
HETATM   25  O1  UNL     1      31.553  58.428  50.109  1.00  0.00    -0.305 OA
ENDBRANCH  23  24
ENDBRANCH  21  23
ENDBRANCH   4  21
BRANCH   7  26
HETATM   26  N6  UNL     1      25.390  57.737  48.942  1.00  0.00    -0.225 N
ATOM     27  H6  UNL     1      24.423  57.762  49.266  1.00  0.00     0.177 HD
BRANCH  26  28
HETATM   28  C11 UNL     1      25.692  56.897  47.817  1.00  0.00     0.139 C
BRANCH  28  29
HETATM   29  C12 UNL     1      25.355  55.460  48.184  1.00  0.00     0.047 C
BRANCH  29  30
HETATM   30  C13 UNL     1      26.345  54.873  49.142  1.00  0.00     0.231 C
BRANCH  30  31
HETATM   31  N7  UNL     1      26.314  53.424  49.126  1.00  0.00    -0.079 N
ATOM     32  H73 UNL     1      25.370  53.071  49.288  1.00  0.00     0.274 HD
ATOM     33  H72 UNL     1      26.461  53.060  48.184  1.00  0.00     0.274 HD
ATOM     34  H71 UNL     1      26.979  53.025  49.788  1.00  0.00     0.274 HD
ENDBRANCH  30  31
ENDBRANCH  29  30
ENDBRANCH  28  29
ENDBRANCH  26  28
ENDBRANCH   7  26
TORSDOF 13
ENDMDL