MODEL 4
REMARK VINA RESULT: -6.632951962      1.660      4.821
REMARK  12 active torsions:
REMARK  status: ('A' for Active; 'I' for Inactive)
REMARK    1  A    between atoms: N1_2  and  C2_5
REMARK    2  A    between atoms: C2_5  and  C3_6
REMARK    3  A    between atoms: C3_6  and  C4_7
REMARK    4  A    between atoms: C4_7  and  C5_8
REMARK    5  A    between atoms: C5_8  and  N2_9
REMARK    6  A    between atoms: N2_9  and  C6_11
REMARK    7  A    between atoms: C7_14  and  N4_15
REMARK    8  A    between atoms: N4_15  and  C8_17
REMARK    9  A    between atoms: C8_17  and  C9_18
REMARK   10  A    between atoms: C9_18  and  N5_19
REMARK   11  A    between atoms: C10_25  and  N7_26
REMARK   12  A    between atoms: N7_26  and  C11_28
ROOT
HETATM    1  C6  UNL     1      27.023  58.867  49.587  1.00  0.00     0.707 A
HETATM    2  N3  UNL     1      28.207  58.774  48.947  1.00  0.00    -0.022 N
ATOM      3  H3  UNL     1      28.303  58.089  48.199  1.00  0.00     0.203 HD
HETATM    4  C7  UNL     1      29.267  59.543  49.251  1.00  0.00     0.707 A
HETATM    5  N6  UNL     1      29.094  60.442  50.253  1.00  0.00    -0.022 N
ATOM      6  H6  UNL     1      29.875  61.045  50.512  1.00  0.00     0.203 HD
HETATM    7  C10 UNL     1      27.941  60.564  50.911  1.00  0.00     0.707 A
HETATM    8  N8  UNL     1      26.915  59.774  50.571  1.00  0.00    -0.022 N
ATOM      9  H8  UNL     1      26.030  59.863  51.070  1.00  0.00     0.203 HD
ENDROOT
BRANCH   1  10
HETATM   10  N2  UNL     1      26.019  58.102  49.262  1.00  0.00    -0.225 N
ATOM     11  H2  UNL     1      25.059  58.436  49.347  1.00  0.00     0.177 HD
BRANCH  10  12
HETATM   12  C5  UNL     1      26.295  56.781  48.784  1.00  0.00     0.138 C
BRANCH  12  13
HETATM   13  C4  UNL     1      25.194  56.236  47.908  1.00  0.00     0.022 C
BRANCH  13  14
HETATM   14  C3  UNL     1      25.246  54.727  47.969  1.00  0.00     0.029 C
BRANCH  14  15
HETATM   15  C2  UNL     1      26.227  54.245  49.033  1.00  0.00     0.231 C
BRANCH  15  16
HETATM   16  N1  UNL     1      26.268  52.801  48.961  1.00  0.00    -0.079 N
HETATM   17  C1  UNL     1      25.980  52.344  47.629  1.00  0.00     0.266 C
ATOM     18  H12 UNL     1      25.649  52.371  49.648  1.00  0.00     0.276 HD
ATOM     19  H11 UNL     1      27.156  52.432  49.301  1.00  0.00     0.276 HD
ENDBRANCH  15  16
ENDBRANCH  14  15
ENDBRANCH  13  14
ENDBRANCH  12  13
ENDBRANCH  10  12
ENDBRANCH   1  10
BRANCH   4  20
HETATM   20  N4  UNL     1      30.380  59.429  48.623  1.00  0.00    -0.223 N
ATOM     21  H4  UNL     1      31.167  60.032  48.861  1.00  0.00     0.177 HD
BRANCH  20  22
HETATM   22  C8  UNL     1      30.511  58.443  47.578  1.00  0.00     0.165 C
BRANCH  22  23
HETATM   23  C9  UNL     1      31.582  58.807  46.577  1.00  0.00     0.249 C
BRANCH  23  24
HETATM   24  N5  UNL     1      31.249  60.120  46.052  1.00  0.00    -0.078 N
ATOM     25  H53 UNL     1      30.317  60.434  46.324  1.00  0.00     0.274 HD
ATOM     26  H52 UNL     1      31.776  60.873  46.495  1.00  0.00     0.274 HD
ATOM     27  H51 UNL     1      31.379  60.081  45.041  1.00  0.00     0.274 HD
ENDBRANCH  23  24
ENDBRANCH  22  23
ENDBRANCH  20  22
ENDBRANCH   4  20
BRANCH   7  28
HETATM   28  N7  UNL     1      27.742  61.403  51.867  1.00  0.00    -0.220 N
ATOM     29  H7  UNL     1      27.203  62.258  51.725  1.00  0.00     0.178 HD
BRANCH  28  30
HETATM   30  C11 UNL     1      28.321  61.072  53.154  1.00  0.00     0.099 A
HETATM   31  C12 UNL     1      27.817  61.915  54.306  1.00  0.00     0.028 A
HETATM   32  C13 UNL     1      29.217  62.054  53.828  1.00  0.00     0.028 A
ENDBRANCH  28  30
ENDBRANCH   7  28
TORSDOF 12
ENDMDL