MODEL 2
REMARK VINA RESULT: -6.556365400      2.530      6.458
REMARK  12 active torsions:
REMARK  status: ('A' for Active; 'I' for Inactive)
REMARK    1  A    between atoms: C2_2  and  C3_3
REMARK    2  A    between atoms: C3_3  and  C4_4
REMARK    3  A    between atoms: C4_4  and  N2_8
REMARK    4  A    between atoms: C7_14  and  C8_15
REMARK    5  A    between atoms: C8_15  and  N5_20
REMARK    6  A    between atoms: N4_16  and  O1_18
REMARK    7  A    between atoms: N5_20  and  C10_22
REMARK    8  A    between atoms: C10_22  and  C11_23
REMARK    9  A    between atoms: C11_23  and  N6_24
REMARK   10  A    between atoms: N6_24  and  C12_27
REMARK   11  A    between atoms: C12_27  and  C13_28
REMARK   12  A    between atoms: C13_28  and  O2_29
ROOT
HETATM    1  C8  UNL     1      26.643  59.030  51.246  1.00  0.00     0.150 C
HETATM    2  N4  UNL     1      25.713  59.882  51.031  1.00  0.00    -0.253 N
ATOM      3  H4  UNL     1      25.281  60.328  51.841  1.00  0.00     0.195 HD
ENDROOT
BRANCH   1   4
HETATM    4  C7  UNL     1      27.059  58.723  52.616  1.00  0.00     0.357 C
HETATM    5  N2  UNL     1      26.948  59.830  53.533  1.00  0.00    -0.335 N
HETATM    6  C5  UNL     1      27.982  60.752  53.159  1.00  0.00     0.154 C
HETATM    7  C6  UNL     1      29.097  59.804  52.705  1.00  0.00     0.255 C
HETATM    8  N3  UNL     1      28.511  58.474  52.696  1.00  0.00    -0.045 N
ATOM      9  H32 UNL     1      28.873  57.863  51.963  1.00  0.00     0.280 HD
ATOM     10  H31 UNL     1      28.793  57.887  53.480  1.00  0.00     0.280 HD
BRANCH   5  11
HETATM   11  C4  UNL     1      25.994  59.927  54.573  1.00  0.00     0.078 C
HETATM   12  N1  UNL     1      24.726  59.977  54.340  1.00  0.00    -0.389 N
ATOM     13  H12 UNL     1      24.038  60.047  55.091  1.00  0.00     0.157 HD
ATOM     14  H11 UNL     1      24.450  59.942  53.359  1.00  0.00     0.157 HD
BRANCH  11  15
HETATM   15  C3  UNL     1      26.399  59.979  56.016  1.00  0.00     0.102 C
BRANCH  15  16
HETATM   16  C2  UNL     1      25.198  60.345  56.812  1.00  0.00    -0.029 C
HETATM   17  C1  UNL     1      25.004  59.771  57.988  1.00  0.00     0.007 C
ENDBRANCH  15  16
ENDBRANCH  11  15
ENDBRANCH   5  11
ENDBRANCH   1   4
BRANCH   1  18
HETATM   18  N5  UNL     1      27.261  58.392  50.153  1.00  0.00    -0.369 N
HETATM   19  C9  UNL     1      28.303  59.013  49.365  1.00  0.00     0.151 C
BRANCH  18  20
HETATM   20  C10 UNL     1      26.842  57.054  49.796  1.00  0.00     0.151 C
BRANCH  20  21
HETATM   21  C11 UNL     1      26.085  57.003  48.480  1.00  0.00     0.252 C
BRANCH  21  22
HETATM   22  N6  UNL     1      25.599  55.699  48.179  1.00  0.00    -0.072 N
ATOM     23  H62 UNL     1      24.582  55.659  48.247  1.00  0.00     0.277 HD
ATOM     24  H61 UNL     1      25.703  55.485  47.188  1.00  0.00     0.277 HD
BRANCH  22  25
HETATM   25  C12 UNL     1      26.211  54.702  48.990  1.00  0.00     0.258 C
BRANCH  25  26
HETATM   26  C13 UNL     1      25.796  53.316  48.575  1.00  0.00     0.191 C
BRANCH  26  27
HETATM   27  O2  UNL     1      26.608  52.356  49.191  1.00  0.00    -0.399 OA
ATOM     28  H2  UNL     1      26.747  51.617  48.612  1.00  0.00     0.209 HD
ENDBRANCH  26  27
ENDBRANCH  25  26
ENDBRANCH  22  25
ENDBRANCH  21  22
ENDBRANCH  20  21
ENDBRANCH  18  20
ENDBRANCH   1  18
BRANCH   2  29
HETATM   29  O1  UNL     1      25.256  60.235  49.787  1.00  0.00    -0.288 OA
ATOM     30  H1  UNL     1      25.716  60.813  49.191  1.00  0.00     0.244 HD
ENDBRANCH   2  29
TORSDOF 12
ENDMDL