MODEL 3
REMARK VINA RESULT: -8.113463310      2.673      6.282
REMARK  17 active torsions:
REMARK  status: ('A' for Active; 'I' for Inactive)
REMARK    1  A    between atoms: N1_1  and  N2_4
REMARK    2  A    between atoms: N2_4  and  C1_5
REMARK    3  A    between atoms: C1_5  and  C2_6
REMARK    4  A    between atoms: C2_6  and  C3_7
REMARK    5  A    between atoms: C3_7  and  C4_8
REMARK    6  A    between atoms: C4_8  and  C5_9
REMARK    7  A    between atoms: C5_9  and  C6_10
REMARK    8  A    between atoms: C6_10  and  N3_11
REMARK    9  A    between atoms: N3_11  and  C7_13
REMARK   10  A    between atoms: C8_16  and  N6_17
REMARK   11  A    between atoms: C9_21  and  O1_22
REMARK   12  A    between atoms: O1_22  and  C10_23
REMARK   13  A    between atoms: C11_27  and  C12_28
REMARK   14  A    between atoms: C12_28  and  N8_29
REMARK   15  A    between atoms: C14_34  and  O2_35
REMARK   16  A    between atoms: C15_37  and  O3_38
REMARK   17  A    between atoms: C16_40  and  N11_41
ROOT
HETATM    1  C10 UNL     1      35.304  52.779  16.504  1.00  0.00     0.355 C
HETATM    2  N7  UNL     1      34.932  51.431  16.901  1.00  0.00    -0.038 N
ATOM      3  H71 UNL     1      35.693  50.778  16.710  1.00  0.00     0.281 HD
ATOM      4  H72 UNL     1      34.221  51.057  16.274  1.00  0.00     0.281 HD
HETATM    5  C11 UNL     1      34.509  51.320  18.261  1.00  0.00     0.237 C
HETATM    6  C14 UNL     1      35.482  51.981  19.215  1.00  0.00     0.181 C
HETATM    7  C15 UNL     1      35.630  53.416  18.813  1.00  0.00     0.183 C
HETATM    8  C16 UNL     1      34.782  53.721  17.571  1.00  0.00     0.270 C
ENDROOT
BRANCH   1   9
HETATM    9  O1  UNL     1      36.677  52.941  16.478  1.00  0.00    -0.345 OA
BRANCH   9  10
HETATM   10  C9  UNL     1      37.177  53.391  15.278  1.00  0.00     0.211 C
HETATM   11  C7  UNL     1      36.124  53.915  14.333  1.00  0.00     0.224 C
HETATM   12  N4  UNL     1      36.325  55.314  14.165  1.00  0.00    -0.118 NA
HETATM   13  N5  UNL     1      37.180  55.758  15.157  1.00  0.00    -0.110 NA
HETATM   14  C8  UNL     1      37.987  54.635  15.574  1.00  0.00     0.323 C
BRANCH  11  15
HETATM   15  N3  UNL     1      36.016  53.178  13.107  1.00  0.00    -0.381 N
ATOM     16  H3  UNL     1      36.697  53.304  12.358  1.00  0.00     0.160 HD
BRANCH  15  17
HETATM   17  C6  UNL     1      34.944  52.276  12.968  1.00  0.00     0.057 C
BRANCH  17  18
HETATM   18  C5  UNL     1      35.297  50.841  12.637  1.00  0.00     0.044 C
BRANCH  18  19
HETATM   19  C4  UNL     1      34.553  50.350  11.433  1.00  0.00     0.005 C
BRANCH  19  20
HETATM   20  C3  UNL     1      35.295  49.666  10.374  1.00  0.00     0.002 C
BRANCH  20  21
HETATM   21  C2  UNL     1      36.734  49.837  10.171  1.00  0.00     0.018 C
BRANCH  21  22
HETATM   22  C1  UNL     1      37.246  50.887   9.267  1.00  0.00     0.134 C
BRANCH  22  23
HETATM   23  N2  UNL     1      37.953  51.939   9.985  1.00  0.00    -0.148 NA
BRANCH  23  24
HETATM   24  N1  UNL     1      38.864  52.625   9.200  1.00  0.00    -0.348 N
ATOM     25  H12 UNL     1      38.698  53.577   8.874  1.00  0.00     0.172 HD
ATOM     26  H11 UNL     1      39.703  52.085   8.987  1.00  0.00     0.172 HD
ENDBRANCH  23  24
ENDBRANCH  22  23
ENDBRANCH  21  22
ENDBRANCH  20  21
ENDBRANCH  19  20
ENDBRANCH  18  19
ENDBRANCH  17  18
ENDBRANCH  15  17
ENDBRANCH  11  15
BRANCH  14  27
HETATM   27  N6  UNL     1      39.299  54.638  15.018  1.00  0.00    -0.057 N
ATOM     28  H63 UNL     1      39.319  55.162  14.143  1.00  0.00     0.276 HD
ATOM     29  H62 UNL     1      39.927  55.216  15.577  1.00  0.00     0.276 HD
ATOM     30  H61 UNL     1      39.690  53.704  14.888  1.00  0.00     0.276 HD
ENDBRANCH  14  27
ENDBRANCH   9  10
ENDBRANCH   1   9
BRANCH   8  31
HETATM   31  N11 UNL     1      35.041  55.111  17.251  1.00  0.00    -0.068 N
ATOM     32 3H11 UNL     1      35.063  55.685  18.094  1.00  0.00     0.275 HD
ATOM     33 2H11 UNL     1      36.004  55.244  16.939  1.00  0.00     0.275 HD
ATOM     34 1H11 UNL     1      34.378  55.482  16.570  1.00  0.00     0.275 HD
ENDBRANCH   8  31
BRANCH   5  35
HETATM   35  C12 UNL     1      34.409  49.839  18.623  1.00  0.00     0.157 C
BRANCH  35  36
HETATM   36  N8  UNL     1      33.642  49.637  19.820  1.00  0.00    -0.365 N
HETATM   37  C13 UNL     1      32.376  49.470  19.858  1.00  0.00     0.197 C
HETATM   38  N9  UNL     1      31.759  49.280  21.125  1.00  0.00    -0.067 NA
HETATM   39  N10 UNL     1      31.532  49.460  18.714  1.00  0.00    -0.067 NA
ATOM     40  H8  UNL     1      34.146  49.625  20.707  1.00  0.00     0.161 HD
ENDBRANCH  35  36
ENDBRANCH   5  35
BRANCH   7  41
HETATM   41  O3  UNL     1      35.444  54.325  19.820  1.00  0.00    -0.391 OA
ATOM     42  H3  UNL     1      35.977  55.109  19.761  1.00  0.00     0.210 HD
ENDBRANCH   7  41
BRANCH   6  43
HETATM   43  O2  UNL     1      34.972  51.908  20.511  1.00  0.00    -0.391 OA
ATOM     44  H2  UNL     1      34.041  52.095  20.491  1.00  0.00     0.210 HD
ENDBRANCH   6  43
TORSDOF 17
ENDMDL