MODEL 4
REMARK VINA RESULT: -6.841667861      2.342      4.431
REMARK  21 active torsions:
REMARK  status: ('A' for Active; 'I' for Inactive)
REMARK    1  A    between atoms: C1_4  and  N2_5
REMARK    2  A    between atoms: C1_4  and  O1_10
REMARK    3  A    between atoms: N2_5  and  N3_7
REMARK    4  A    between atoms: O1_10  and  C2_11
REMARK    5  A    between atoms: C3_12  and  O2_13
REMARK    6  A    between atoms: C4_15  and  C5_16
REMARK    7  A    between atoms: C5_16  and  N4_17
REMARK    8  A    between atoms: C6_21  and  O3_22
REMARK    9  A    between atoms: C7_24  and  N5_25
REMARK   10  A    between atoms: C8_29  and  O4_30
REMARK   11  A    between atoms: C9_32  and  N6_33
REMARK   12  A    between atoms: N6_33  and  C10_35
REMARK   13  A    between atoms: C10_35  and  C11_36
REMARK   14  A    between atoms: C11_36  and  N7_37
REMARK   15  A    between atoms: N7_37  and  C12_40
REMARK   16  A    between atoms: C12_40  and  C13_41
REMARK   17  A    between atoms: C13_41  and  N8_42
REMARK   18  A    between atoms: N8_42  and  C14_45
REMARK   19  A    between atoms: C14_45  and  C15_46
REMARK   20  A    between atoms: C15_46  and  N9_47
REMARK   21  A    between atoms: N9_47  and  N10_48
ROOT
HETATM    1  C2  UNL     1      35.893  54.451  16.658  1.00  0.00     0.186 C
HETATM    2  C3  UNL     1      36.197  55.812  16.158  1.00  0.00     0.158 C
HETATM    3  C4  UNL     1      35.640  56.124  14.809  1.00  0.00     0.073 C
HETATM    4  C6  UNL     1      35.936  55.245  13.688  1.00  0.00     0.159 C
HETATM    5  C7  UNL     1      37.094  54.321  13.721  1.00  0.00     0.243 C
HETATM    6  C8  UNL     1      37.013  53.210  14.742  1.00  0.00     0.176 C
HETATM    7  C9  UNL     1      35.874  53.338  15.674  1.00  0.00     0.139 C
ENDROOT
BRANCH   7   8
HETATM    8  N6  UNL     1      35.663  52.103  16.384  1.00  0.00    -0.411 N
ATOM      9  H6  UNL     1      35.567  52.067  17.399  1.00  0.00     0.153 HD
BRANCH   8  10
HETATM   10  C10 UNL     1      35.596  50.925  15.561  1.00  0.00     0.142 C
BRANCH  10  11
HETATM   11  C11 UNL     1      34.546  49.967  16.162  1.00  0.00     0.251 C
BRANCH  11  12
HETATM   12  N7  UNL     1      34.791  49.946  17.570  1.00  0.00    -0.072 N
ATOM     13  H72 UNL     1      35.779  49.800  17.778  1.00  0.00     0.277 HD
ATOM     14  H71 UNL     1      34.681  50.871  17.984  1.00  0.00     0.277 HD
BRANCH  12  15
HETATM   15  C12 UNL     1      33.965  48.972  18.222  1.00  0.00     0.259 C
BRANCH  15  16
HETATM   16  C13 UNL     1      34.195  49.033  19.708  1.00  0.00     0.259 C
BRANCH  16  17
HETATM   17  N8  UNL     1      35.229  50.043  19.924  1.00  0.00    -0.072 N
ATOM     18  H82 UNL     1      36.173  49.676  19.798  1.00  0.00     0.277 HD
ATOM     19  H81 UNL     1      35.257  50.745  19.184  1.00  0.00     0.277 HD
BRANCH  17  20
HETATM   20  C14 UNL     1      35.021  50.616  21.233  1.00  0.00     0.250 C
BRANCH  20  21
HETATM   21  C15 UNL     1      33.571  51.098  21.353  1.00  0.00     0.161 C
BRANCH  21  22
HETATM   22  N9  UNL     1      33.458  51.896  22.563  1.00  0.00    -0.147 NA
BRANCH  22  23
HETATM   23  N10 UNL     1      33.046  51.141  23.641  1.00  0.00    -0.348 N
ATOM     24 2H10 UNL     1      33.675  50.843  24.386  1.00  0.00     0.172 HD
ATOM     25 1H10 UNL     1      32.050  50.925  23.595  1.00  0.00     0.172 HD
ENDBRANCH  22  23
ENDBRANCH  21  22
ENDBRANCH  20  21
ENDBRANCH  17  20
ENDBRANCH  16  17
ENDBRANCH  15  16
ENDBRANCH  12  15
ENDBRANCH  11  12
ENDBRANCH  10  11
ENDBRANCH   8  10
ENDBRANCH   7   8
BRANCH   1  26
HETATM   26  O1  UNL     1      36.673  54.178  17.805  1.00  0.00    -0.311 OA
BRANCH  26  27
HETATM   27  C1  UNL     1      36.286  54.621  19.084  1.00  0.00     0.232 C
HETATM   28  N1  UNL     1      35.210  54.073  19.529  1.00  0.00    -0.364 N
ATOM     29  H12 UNL     1      34.930  54.394  20.456  1.00  0.00     0.159 HD
ATOM     30  H11 UNL     1      34.686  53.378  18.997  1.00  0.00     0.159 HD
BRANCH  27  31
HETATM   31  N2  UNL     1      37.007  55.578  19.818  1.00  0.00    -0.272 N
ATOM     32  H2  UNL     1      37.215  55.410  20.803  1.00  0.00     0.190 HD
BRANCH  31  33
HETATM   33  N3  UNL     1      37.437  56.748  19.214  1.00  0.00    -0.342 N
ATOM     34  H32 UNL     1      37.976  56.685  18.350  1.00  0.00     0.176 HD
ATOM     35  H31 UNL     1      37.218  57.653  19.628  1.00  0.00     0.176 HD
ENDBRANCH  31  33
ENDBRANCH  27  31
ENDBRANCH  26  27
ENDBRANCH   1  26
BRANCH   6  36
HETATM   36  O4  UNL     1      38.235  53.012  15.392  1.00  0.00    -0.391 OA
ATOM     37  H4  UNL     1      38.971  53.175  14.813  1.00  0.00     0.210 HD
ENDBRANCH   6  36
BRANCH   2  38
HETATM   38  O2  UNL     1      37.528  56.189  16.324  1.00  0.00    -0.392 OA
ATOM     39  H2  UNL     1      38.012  56.260  15.510  1.00  0.00     0.210 HD
ENDBRANCH   2  38
BRANCH   5  40
HETATM   40  N5  UNL     1      38.397  54.957  13.742  1.00  0.00    -0.070 N
ATOM     41  H53 UNL     1      38.816  54.865  14.667  1.00  0.00     0.274 HD
ATOM     42  H52 UNL     1      39.061  54.414  13.189  1.00  0.00     0.274 HD
ATOM     43  H51 UNL     1      38.411  55.934  13.448  1.00  0.00     0.274 HD
ENDBRANCH   5  40
BRANCH   3  44
HETATM   44  C5  UNL     1      35.923  57.609  14.512  1.00  0.00     0.239 C
BRANCH  44  45
HETATM   45  N4  UNL     1      34.722  58.383  14.493  1.00  0.00    -0.079 N
ATOM     46  H43 UNL     1      34.854  59.285  14.952  1.00  0.00     0.274 HD
ATOM     47  H42 UNL     1      34.509  58.714  13.552  1.00  0.00     0.274 HD
ATOM     48  H41 UNL     1      33.936  57.872  14.895  1.00  0.00     0.274 HD
ENDBRANCH  44  45
ENDBRANCH   3  44
BRANCH   4  49
HETATM   49  O3  UNL     1      36.139  56.066  12.544  1.00  0.00    -0.393 OA
ATOM     50  H3  UNL     1      36.397  55.498  11.828  1.00  0.00     0.210 HD
ENDBRANCH   4  49
TORSDOF 21
ENDMDL