MODEL 4
REMARK VINA RESULT: -7.793586805      2.310      7.464
REMARK  17 active torsions:
REMARK  status: ('A' for Active; 'I' for Inactive)
REMARK    1  A    between atoms: N1_1  and  C1_5
REMARK    2  A    between atoms: C1_5  and  C2_6
REMARK    3  A    between atoms: C2_6  and  C3_7
REMARK    4  A    between atoms: C3_7  and  N2_8
REMARK    5  A    between atoms: N2_8  and  C4_11
REMARK    6  A    between atoms: C4_11  and  C5_12
REMARK    7  A    between atoms: C6_13  and  O1_14
REMARK    8  A    between atoms: O1_14  and  C7_15
REMARK    9  A    between atoms: C7_15  and  C8_16
REMARK   10  A    between atoms: C8_16  and  N3_17
REMARK       I    between atoms: N3_17  and  C9_19
REMARK   11  A    between atoms: N5_21  and  N6_23
REMARK   12  A    between atoms: C10_25  and  N7_26
REMARK   13  A    between atoms: N7_26  and  N8_28
REMARK   14  A    between atoms: N8_28  and  N9_29
REMARK   15  A    between atoms: C11_35  and  N11_36
REMARK       I    between atoms: N11_36  and  C12_38
REMARK   16  A    between atoms: C13_41  and  O3_42
REMARK   17  A    between atoms: C14_44  and  O4_45
ROOT
HETATM    1  C5  UNL     1      36.688  54.956  14.454  1.00  0.00     0.099 C
HETATM    2  C6  UNL     1      36.817  54.066  15.673  1.00  0.00     0.331 C
HETATM    3  N10 UNL     1      35.596  53.236  15.696  1.00  0.00    -0.025 N
ATOM      4 1H10 UNL     1      34.722  53.755  15.604  1.00  0.00     0.282 HD
ATOM      5 2H10 UNL     1      35.373  52.826  16.602  1.00  0.00     0.282 HD
HETATM    6  C11 UNL     1      35.854  52.261  14.622  1.00  0.00     0.322 C
HETATM    7  C13 UNL     1      35.676  52.942  13.308  1.00  0.00     0.197 C
HETATM    8  C14 UNL     1      36.376  54.261  13.191  1.00  0.00     0.160 C
ENDROOT
BRANCH   2   9
HETATM    9  O1  UNL     1      36.921  54.841  16.794  1.00  0.00    -0.357 OA
BRANCH   9  10
HETATM   10  C7  UNL     1      37.833  54.419  17.736  1.00  0.00     0.190 C
BRANCH  10  11
HETATM   11  C8  UNL     1      37.363  54.531  19.165  1.00  0.00     0.148 C
BRANCH  11  12
HETATM   12  N3  UNL     1      35.914  54.524  19.166  1.00  0.00    -0.361 N
HETATM   13  C9  UNL     1      35.272  53.381  19.750  1.00  0.00     0.203 C
HETATM   14  N4  UNL     1      34.170  53.606  20.604  1.00  0.00    -0.062 NA
HETATM   15  N5  UNL     1      35.713  52.216  19.482  1.00  0.00    -0.273 N
ATOM     16  H5  UNL     1      36.511  52.090  18.862  1.00  0.00     0.189 HD
ATOM     17  H3  UNL     1      35.376  55.296  18.771  1.00  0.00     0.162 HD
BRANCH  15  18
HETATM   18  N6  UNL     1      35.073  51.110  20.061  1.00  0.00    -0.293 N
HETATM   19  C10 UNL     1      35.643  50.504  21.069  1.00  0.00     0.212 C
ATOM     20  H6  UNL     1      34.176  50.783  19.700  1.00  0.00     0.187 HD
BRANCH  19  21
HETATM   21  N7  UNL     1      34.973  49.379  21.642  1.00  0.00    -0.279 N
ATOM     22  H7  UNL     1      35.457  48.793  22.323  1.00  0.00     0.185 HD
BRANCH  21  23
HETATM   23  N8  UNL     1      33.665  49.081  21.276  1.00  0.00    -0.029 NA
BRANCH  23  24
HETATM   24  N9  UNL     1      32.915  48.834  22.431  1.00  0.00    -0.329 N
ATOM     25  H92 UNL     1      33.127  48.110  23.118  1.00  0.00     0.174 HD
ATOM     26  H91 UNL     1      32.135  49.490  22.466  1.00  0.00     0.174 HD
ENDBRANCH  23  24
ENDBRANCH  21  23
ENDBRANCH  19  21
ENDBRANCH  15  18
ENDBRANCH  11  12
ENDBRANCH  10  11
ENDBRANCH   9  10
ENDBRANCH   2   9
BRANCH   1  27
HETATM   27  C4  UNL     1      35.702  56.044  14.823  1.00  0.00     0.243 C
BRANCH  27  28
HETATM   28  N2  UNL     1      36.313  57.285  15.176  1.00  0.00    -0.074 N
ATOM     29  H22 UNL     1      36.373  57.377  16.190  1.00  0.00     0.277 HD
ATOM     30  H21 UNL     1      35.686  58.062  14.967  1.00  0.00     0.277 HD
BRANCH  28  31
HETATM   31  C3  UNL     1      37.594  57.506  14.579  1.00  0.00     0.233 C
BRANCH  31  32
HETATM   32  C2  UNL     1      38.707  57.700  15.567  1.00  0.00     0.055 C
BRANCH  32  33
HETATM   33  C1  UNL     1      39.792  56.690  15.213  1.00  0.00     0.231 C
BRANCH  33  34
HETATM   34  N1  UNL     1      39.682  56.242  13.853  1.00  0.00    -0.079 N
ATOM     35  H13 UNL     1      38.732  55.937  13.639  1.00  0.00     0.274 HD
ATOM     36  H12 UNL     1      39.751  57.021  13.199  1.00  0.00     0.274 HD
ATOM     37  H11 UNL     1      40.363  55.513  13.638  1.00  0.00     0.274 HD
ENDBRANCH  33  34
ENDBRANCH  32  33
ENDBRANCH  31  32
ENDBRANCH  28  31
ENDBRANCH  27  28
ENDBRANCH   1  27
BRANCH   8  38
HETATM   38  O4  UNL     1      37.599  54.030  12.514  1.00  0.00    -0.392 OA
ATOM     39  H4  UNL     1      37.409  53.983  11.584  1.00  0.00     0.210 HD
ENDBRANCH   8  38
BRANCH   6  40
HETATM   40  N11 UNL     1      34.917  51.169  14.752  1.00  0.00    -0.315 N
HETATM   41  C12 UNL     1      34.721  50.453  15.946  1.00  0.00     0.330 C
HETATM   42  N12 UNL     1      33.791  49.394  16.013  1.00  0.00    -0.040 NA
HETATM   43  O2  UNL     1      35.377  50.754  16.963  1.00  0.00    -0.251 OA
ATOM     44  H11 UNL     1      34.368  50.905  13.934  1.00  0.00     0.166 HD
ENDBRANCH   6  40
BRANCH   7  45
HETATM   45  O3  UNL     1      36.145  52.082  12.312  1.00  0.00    -0.389 OA
ATOM     46  H3  UNL     1      36.154  52.562  11.492  1.00  0.00     0.210 HD
ENDBRANCH   7  45
TORSDOF 17
ENDMDL