MODEL 5
REMARK VINA RESULT: -7.431993087      1.447      1.687
REMARK  20 active torsions:
REMARK  status: ('A' for Active; 'I' for Inactive)
REMARK    1  A    between atoms: N1_1  and  C1_5
REMARK    2  A    between atoms: C1_5  and  C2_6
REMARK    3  A    between atoms: C2_6  and  C3_7
REMARK    4  A    between atoms: C2_6  and  N3_18
REMARK    5  A    between atoms: C3_7  and  O1_8
REMARK    6  A    between atoms: O1_8  and  C4_9
REMARK    7  A    between atoms: C4_9  and  C5_10
REMARK    8  A    between atoms: C5_10  and  N2_11
REMARK    9  A    between atoms: N2_11  and  C6_14
REMARK   10  A    between atoms: C6_14  and  C7_15
REMARK   11  A    between atoms: C7_15  and  O2_16
REMARK   12  A    between atoms: N3_18  and  C8_20
REMARK   13  A    between atoms: C8_20  and  C9_21
REMARK   14  A    between atoms: C10_24  and  O3_25
REMARK   15  A    between atoms: O3_25  and  C11_26
REMARK   16  A    between atoms: C12_30  and  N6_31
REMARK   17  A    between atoms: C14_36  and  N7_37
REMARK   18  A    between atoms: C15_41  and  N8_42
REMARK   19  A    between atoms: C16_46  and  O4_47
REMARK   20  A    between atoms: C17_49  and  O5_50
ROOT
HETATM    1  C9  UNL     1      35.948  53.137  15.862  1.00  0.00     0.127 C
HETATM    2  N4  UNL     1      36.807  53.615  14.858  1.00  0.00    -0.387 N
ATOM      3  H4  UNL     1      37.198  52.986  14.157  1.00  0.00     0.156 HD
HETATM    4  C10 UNL     1      37.118  55.015  14.850  1.00  0.00     0.253 C
HETATM    5  C15 UNL     1      37.769  55.358  16.144  1.00  0.00     0.262 C
HETATM    6  C16 UNL     1      37.107  54.790  17.351  1.00  0.00     0.183 C
HETATM    7  C17 UNL     1      35.849  54.009  17.088  1.00  0.00     0.173 C
ENDROOT
BRANCH   1   8
HETATM    8  C8  UNL     1      36.243  51.702  16.247  1.00  0.00     0.141 C
BRANCH   8   9
HETATM    9  N3  UNL     1      35.679  51.355  17.498  1.00  0.00    -0.411 N
ATOM     10  H3  UNL     1      36.129  51.606  18.378  1.00  0.00     0.153 HD
BRANCH   9  11
HETATM   11  C2  UNL     1      34.450  50.638  17.464  1.00  0.00     0.125 C
BRANCH  11  12
HETATM   12  C1  UNL     1      34.494  49.489  16.479  1.00  0.00     0.256 C
BRANCH  12  13
HETATM   13  N1  UNL     1      34.469  48.196  17.092  1.00  0.00    -0.077 N
ATOM     14  H13 UNL     1      34.844  47.490  16.458  1.00  0.00     0.274 HD
ATOM     15  H12 UNL     1      35.161  48.141  17.840  1.00  0.00     0.274 HD
ATOM     16  H11 UNL     1      33.549  47.918  17.434  1.00  0.00     0.274 HD
ENDBRANCH  12  13
ENDBRANCH  11  12
BRANCH  11  17
HETATM   17  C3  UNL     1      33.974  50.139  18.783  1.00  0.00     0.194 C
BRANCH  17  18
HETATM   18  O1  UNL     1      32.583  50.096  18.776  1.00  0.00    -0.387 OA
BRANCH  18  19
HETATM   19  C4  UNL     1      32.113  49.177  19.709  1.00  0.00     0.195 C
BRANCH  19  20
HETATM   20  C5  UNL     1      33.061  49.207  20.896  1.00  0.00     0.258 C
BRANCH  20  21
HETATM   21  N2  UNL     1      32.456  49.914  22.012  1.00  0.00    -0.071 N
ATOM     22  H22 UNL     1      31.491  50.172  21.807  1.00  0.00     0.277 HD
ATOM     23  H21 UNL     1      32.292  49.288  22.801  1.00  0.00     0.277 HD
BRANCH  21  24
HETATM   24  C6  UNL     1      33.224  51.055  22.407  1.00  0.00     0.258 C
BRANCH  24  25
HETATM   25  C7  UNL     1      32.234  52.215  22.583  1.00  0.00     0.191 C
BRANCH  25  26
HETATM   26  O2  UNL     1      32.896  53.417  22.660  1.00  0.00    -0.399 OA
ATOM     27  H2  UNL     1      33.461  53.445  23.423  1.00  0.00     0.209 HD
ENDBRANCH  25  26
ENDBRANCH  24  25
ENDBRANCH  21  24
ENDBRANCH  20  21
ENDBRANCH  19  20
ENDBRANCH  18  19
ENDBRANCH  17  18
ENDBRANCH  11  17
ENDBRANCH   9  11
ENDBRANCH   8   9
ENDBRANCH   1   8
BRANCH   7  28
HETATM   28  O5  UNL     1      34.706  54.812  17.098  1.00  0.00    -0.391 OA
ATOM     29  H5  UNL     1      34.541  55.215  17.942  1.00  0.00     0.210 HD
ENDBRANCH   7  28
BRANCH   4  30
HETATM   30  O3  UNL     1      35.992  55.731  14.543  1.00  0.00    -0.330 OA
BRANCH  30  31
HETATM   31  C11 UNL     1      35.968  56.309  13.305  1.00  0.00     0.356 C
HETATM   32  N5  UNL     1      34.737  56.928  12.940  1.00  0.00    -0.018 N
HETATM   33  C12 UNL     1      34.844  58.263  13.501  1.00  0.00     0.385 C
ATOM     34  H52 UNL     1      34.534  56.906  11.940  1.00  0.00     0.282 HD
ATOM     35  H51 UNL     1      33.904  56.415  13.230  1.00  0.00     0.282 HD
HETATM   36  C13 UNL     1      36.320  58.623  13.409  1.00  0.00     0.099 C
HETATM   37  C14 UNL     1      37.006  57.331  13.026  1.00  0.00     0.243 C
BRANCH  33  38
HETATM   38  N6  UNL     1      34.448  58.287  14.879  1.00  0.00    -0.050 N
ATOM     39  H63 UNL     1      34.087  57.382  15.180  1.00  0.00     0.276 HD
ATOM     40  H62 UNL     1      35.256  58.349  15.499  1.00  0.00     0.276 HD
ATOM     41  H61 UNL     1      33.778  59.035  15.063  1.00  0.00     0.276 HD
ENDBRANCH  33  38
BRANCH  37  42
HETATM   42  N7  UNL     1      37.333  57.401  11.619  1.00  0.00    -0.071 N
ATOM     43  H73 UNL     1      36.500  57.294  11.040  1.00  0.00     0.274 HD
ATOM     44  H72 UNL     1      37.596  58.348  11.347  1.00  0.00     0.274 HD
ATOM     45  H71 UNL     1      38.054  56.727  11.361  1.00  0.00     0.274 HD
ENDBRANCH  37  42
ENDBRANCH  30  31
ENDBRANCH   4  30
BRANCH   6  46
HETATM   46  O4  UNL     1      36.779  55.805  18.281  1.00  0.00    -0.391 OA
ATOM     47  H4  UNL     1      35.993  55.586  18.767  1.00  0.00     0.210 HD
ENDBRANCH   6  46
BRANCH   5  48
HETATM   48  N8  UNL     1      39.161  54.874  16.054  1.00  0.00    -0.068 N
ATOM     49  H83 UNL     1      39.677  55.276  15.272  1.00  0.00     0.275 HD
ATOM     50  H82 UNL     1      39.760  55.230  16.798  1.00  0.00     0.275 HD
ATOM     51  H81 UNL     1      39.112  53.856  16.025  1.00  0.00     0.275 HD
ENDBRANCH   5  48
TORSDOF 20
ENDMDL