MODEL 5
REMARK VINA RESULT: -7.137637151      2.206      7.593
REMARK  18 active torsions:
REMARK  status: ('A' for Active; 'I' for Inactive)
REMARK    1  A    between atoms: N1_1  and  C1_5
REMARK    2  A    between atoms: C1_5  and  N2_6
REMARK    3  A    between atoms: N2_6  and  N3_8
REMARK    4  A    between atoms: N3_8  and  C2_10
REMARK    5  A    between atoms: C2_10  and  C3_11
REMARK    6  A    between atoms: N4_12  and  C4_14
REMARK    7  A    between atoms: C6_16  and  C7_17
REMARK    8  A    between atoms: C7_17  and  N5_18
REMARK    9  A    between atoms: N5_18  and  C8_21
REMARK   10  A    between atoms: C8_21  and  C9_22
REMARK   11  A    between atoms: C9_22  and  O1_23
REMARK   12  A    between atoms: C10_25  and  O2_26
REMARK   13  A    between atoms: C11_28  and  O3_29
REMARK   14  A    between atoms: O3_29  and  C12_30
REMARK   15  A    between atoms: C13_31  and  N6_32
REMARK   16  A    between atoms: C15_37  and  N7_38
REMARK   17  A    between atoms: C16_42  and  O4_43
REMARK   18  A    between atoms: C17_45  and  N8_46
ROOT
HETATM    1  C4  UNL     1      36.107  53.053  16.572  1.00  0.00     0.112 C
HETATM    2  C5  UNL     1      36.763  52.560  15.348  1.00  0.00     0.036 C
HETATM    3  C6  UNL     1      35.451  52.256  14.497  1.00  0.00     0.044 C
HETATM    4  C10 UNL     1      35.033  51.140  15.540  1.00  0.00     0.154 C
HETATM    5  C11 UNL     1      34.892  51.951  16.758  1.00  0.00     0.173 C
ENDROOT
BRANCH   5   6
HETATM    6  O3  UNL     1      35.102  51.203  17.856  1.00  0.00    -0.372 OA
BRANCH   6   7
HETATM    7  C12 UNL     1      34.105  50.641  18.601  1.00  0.00     0.185 C
HETATM    8  C13 UNL     1      34.772  49.569  19.554  1.00  0.00     0.216 C
HETATM    9  C14 UNL     1      34.141  49.471  20.858  1.00  0.00     0.070 C
HETATM   10  C15 UNL     1      33.809  50.748  21.535  1.00  0.00     0.216 C
HETATM   11  C16 UNL     1      33.999  51.941  20.607  1.00  0.00     0.181 C
HETATM   12  C17 UNL     1      33.251  51.540  19.307  1.00  0.00     0.244 C
BRANCH   8  13
HETATM   13  N6  UNL     1      34.492  48.284  18.873  1.00  0.00    -0.072 N
ATOM     14  H63 UNL     1      35.159  48.038  18.143  1.00  0.00     0.274 HD
ATOM     15  H62 UNL     1      34.653  47.456  19.447  1.00  0.00     0.274 HD
ATOM     16  H61 UNL     1      33.531  48.395  18.549  1.00  0.00     0.274 HD
ENDBRANCH   8  13
BRANCH  10  17
HETATM   17  N7  UNL     1      34.543  50.904  22.787  1.00  0.00    -0.072 N
ATOM     18  H73 UNL     1      34.471  50.068  23.367  1.00  0.00     0.274 HD
ATOM     19  H72 UNL     1      35.551  50.904  22.630  1.00  0.00     0.274 HD
ATOM     20  H71 UNL     1      34.248  51.736  23.299  1.00  0.00     0.274 HD
ENDBRANCH  10  17
BRANCH  11  21
HETATM   21  O4  UNL     1      33.509  53.044  21.226  1.00  0.00    -0.391 OA
ATOM     22  H4  UNL     1      32.749  53.345  20.742  1.00  0.00     0.210 HD
ENDBRANCH  11  21
BRANCH  12  23
HETATM   23  N8  UNL     1      31.923  51.082  19.698  1.00  0.00    -0.070 N
ATOM     24  H83 UNL     1      31.813  50.108  19.416  1.00  0.00     0.274 HD
ATOM     25  H82 UNL     1      31.888  50.999  20.714  1.00  0.00     0.274 HD
ATOM     26  H81 UNL     1      31.110  51.611  19.382  1.00  0.00     0.274 HD
ENDBRANCH  12  23
ENDBRANCH   6   7
ENDBRANCH   5   6
BRANCH   1  27
HETATM   27  N4  UNL     1      36.787  53.030  17.816  1.00  0.00    -0.393 N
HETATM   28  C3  UNL     1      37.528  54.075  18.270  1.00  0.00     0.077 C
ATOM     29  H4  UNL     1      36.718  52.193  18.395  1.00  0.00     0.159 HD
BRANCH  28  30
HETATM   30  C2  UNL     1      37.096  55.456  18.677  1.00  0.00     0.183 C
BRANCH  30  31
HETATM   31  N3  UNL     1      37.707  56.340  17.708  1.00  0.00    -0.335 N
ATOM     32  H3  UNL     1      38.718  56.441  17.804  1.00  0.00     0.180 HD
BRANCH  31  33
HETATM   33  N2  UNL     1      37.173  57.047  16.707  1.00  0.00    -0.315 N
ATOM     34  H2  UNL     1      36.889  58.013  16.870  1.00  0.00     0.181 HD
BRANCH  33  35
HETATM   35  C1  UNL     1      36.990  56.467  15.404  1.00  0.00     0.368 C
BRANCH  35  36
HETATM   36  N1  UNL     1      35.512  56.362  15.262  1.00  0.00    -0.062 N
ATOM     37  H13 UNL     1      34.985  56.796  16.020  1.00  0.00     0.276 HD
ATOM     38  H12 UNL     1      35.121  56.935  14.514  1.00  0.00     0.276 HD
ATOM     39  H11 UNL     1      35.346  55.361  15.155  1.00  0.00     0.276 HD
ENDBRANCH  35  36
ENDBRANCH  33  35
ENDBRANCH  31  33
ENDBRANCH  30  31
ENDBRANCH  28  30
ENDBRANCH   1  27
BRANCH   4  40
HETATM   40  O2  UNL     1      34.145  50.239  15.163  1.00  0.00    -0.392 OA
ATOM     41  H2  UNL     1      33.271  50.539  14.944  1.00  0.00     0.210 HD
ENDBRANCH   4  40
BRANCH   3  42
HETATM   42  C7  UNL     1      35.869  51.541  13.271  1.00  0.00     0.239 C
BRANCH  42  43
HETATM   43  N5  UNL     1      34.598  51.370  12.464  1.00  0.00    -0.073 N
ATOM     44  H52 UNL     1      33.755  51.085  12.963  1.00  0.00     0.277 HD
ATOM     45  H51 UNL     1      34.153  52.211  12.097  1.00  0.00     0.277 HD
BRANCH  43  46
HETATM   46  C8  UNL     1      35.211  50.363  11.435  1.00  0.00     0.258 C
BRANCH  46  47
HETATM   47  C9  UNL     1      34.165  49.688  10.672  1.00  0.00     0.191 C
BRANCH  47  48
HETATM   48  O1  UNL     1      34.633  49.591   9.318  1.00  0.00    -0.399 OA
ATOM     49  H1  UNL     1      34.034  50.096   8.781  1.00  0.00     0.209 HD
ENDBRANCH  47  48
ENDBRANCH  46  47
ENDBRANCH  43  46
ENDBRANCH  42  43
ENDBRANCH   3  42
TORSDOF 18
ENDMDL