MODEL 2
REMARK VINA RESULT: -7.473562428      1.047      1.294
REMARK  18 active torsions:
REMARK  status: ('A' for Active; 'I' for Inactive)
REMARK       I    between atoms: C1_4  and  N3_6
REMARK    1  A    between atoms: N3_6  and  C2_8
REMARK    2  A    between atoms: C2_8  and  C3_9
REMARK    3  A    between atoms: C3_9  and  C4_10
REMARK    4  A    between atoms: C4_10  and  C5_11
REMARK    5  A    between atoms: C5_11  and  O1_12
REMARK    6  A    between atoms: O1_12  and  C6_13
REMARK    7  A    between atoms: C6_13  and  C7_14
REMARK    8  A    between atoms: C7_14  and  C8_15
REMARK    9  A    between atoms: C8_15  and  N4_16
REMARK   10  A    between atoms: N4_16  and  C9_18
REMARK   11  A    between atoms: C10_19  and  O2_20
REMARK   12  A    between atoms: C11_22  and  O3_23
REMARK   13  A    between atoms: C12_25  and  O4_26
REMARK   14  A    between atoms: C13_28  and  N5_29
REMARK   15  A    between atoms: C13_28  and  O5_34
REMARK   16  A    between atoms: O5_34  and  N8_35
REMARK   17  A    between atoms: N8_35  and  O6_36
REMARK   18  A    between atoms: N9_38  and  N10_39
ROOT
HETATM    1  C9  UNL     1      34.337  50.513  17.946  1.00  0.00     0.113 C
HETATM    2  C10 UNL     1      33.934  49.071  17.896  1.00  0.00     0.213 C
HETATM    3  C11 UNL     1      34.093  48.440  19.272  1.00  0.00     0.189 C
HETATM    4  C12 UNL     1      33.623  49.307  20.394  1.00  0.00     0.225 C
HETATM    5  C13 UNL     1      34.156  50.721  20.278  1.00  0.00     0.271 C
HETATM    6  N9  UNL     1      33.664  51.265  19.010  1.00  0.00    -0.130 NA
ENDROOT
BRANCH   1   7
HETATM    7  N4  UNL     1      34.422  51.232  16.748  1.00  0.00    -0.360 N
ATOM      8  H4  UNL     1      33.617  51.813  16.511  1.00  0.00     0.165 HD
BRANCH   7   9
HETATM    9  C8  UNL     1      35.463  51.246  15.861  1.00  0.00     0.064 C
BRANCH   9  10
HETATM   10  C7  UNL     1      35.255  51.159  14.381  1.00  0.00     0.071 C
BRANCH  10  11
HETATM   11  C6  UNL     1      35.537  52.453  13.638  1.00  0.00     0.172 C
BRANCH  11  12
HETATM   12  O1  UNL     1      36.692  53.036  14.070  1.00  0.00    -0.391 OA
BRANCH  12  13
HETATM   13  C5  UNL     1      36.790  54.355  13.692  1.00  0.00     0.167 C
BRANCH  13  14
HETATM   14  C4  UNL     1      35.911  55.296  14.467  1.00  0.00     0.028 C
BRANCH  14  15
HETATM   15  C3  UNL     1      36.349  55.426  15.902  1.00  0.00     0.022 C
BRANCH  15  16
HETATM   16  C2  UNL     1      35.480  54.653  16.863  1.00  0.00     0.122 C
BRANCH  16  17
HETATM   17  N3  UNL     1      35.866  54.994  18.209  1.00  0.00    -0.365 N
HETATM   18  C1  UNL     1      35.806  54.046  19.246  1.00  0.00     0.181 C
HETATM   19  N1  UNL     1      36.621  53.066  19.274  1.00  0.00    -0.374 N
HETATM   20  N2  UNL     1      34.851  54.179  20.279  1.00  0.00    -0.064 NA
ATOM     21  H12 UNL     1      36.579  52.379  20.027  1.00  0.00     0.158 HD
ATOM     22  H11 UNL     1      37.311  52.970  18.529  1.00  0.00     0.158 HD
ATOM     23  H3  UNL     1      36.187  55.940  18.413  1.00  0.00     0.162 HD
ENDBRANCH  16  17
ENDBRANCH  15  16
ENDBRANCH  14  15
ENDBRANCH  13  14
ENDBRANCH  12  13
ENDBRANCH  11  12
ENDBRANCH  10  11
ENDBRANCH   9  10
ENDBRANCH   7   9
ENDBRANCH   1   7
BRANCH   2  24
HETATM   24  O2  UNL     1      34.933  48.434  17.102  1.00  0.00    -0.386 OA
ATOM     25  H2  UNL     1      34.997  47.551  17.447  1.00  0.00     0.210 HD
ENDBRANCH   2  24
BRANCH   6  26
HETATM   26  N10 UNL     1      32.301  51.094  19.009  1.00  0.00    -0.354 NA
ATOM     27 2H10 UNL     1      32.132  50.089  18.977  1.00  0.00     0.171 HD
ATOM     28 1H10 UNL     1      31.850  51.489  18.184  1.00  0.00     0.171 HD
ENDBRANCH   6  26
BRANCH   3  29
HETATM   29  O3  UNL     1      35.356  47.895  19.463  1.00  0.00    -0.390 OA
ATOM     30  H3  UNL     1      35.379  46.961  19.289  1.00  0.00     0.210 HD
ENDBRANCH   3  29
BRANCH   5  31
HETATM   31  N5  UNL     1      33.811  51.455  21.407  1.00  0.00    -0.317 N
HETATM   32  C14 UNL     1      32.857  51.803  22.082  1.00  0.00     0.200 C
HETATM   33  N6  UNL     1      33.080  52.630  23.244  1.00  0.00    -0.067 NA
HETATM   34  N7  UNL     1      31.522  51.450  21.806  1.00  0.00    -0.067 NA
ATOM     35  H5  UNL     1      34.661  51.842  21.818  1.00  0.00     0.166 HD
ENDBRANCH   5  31
BRANCH   5  36
HETATM   36  O5  UNL     1      35.569  50.659  20.246  1.00  0.00    -0.207 OA
BRANCH  36  37
HETATM   37  N8  UNL     1      36.063  50.708  21.475  1.00  0.00     0.068 NA
BRANCH  37  38
HETATM   38  O6  UNL     1      36.846  49.650  21.734  1.00  0.00    -0.271 OA
ATOM     39  H6  UNL     1      37.493  49.849  22.400  1.00  0.00     0.241 HD
ENDBRANCH  37  38
ENDBRANCH  36  37
ENDBRANCH   5  36
BRANCH   4  40
HETATM   40  O4  UNL     1      34.039  48.772  21.598  1.00  0.00    -0.386 OA
ATOM     41  H4  UNL     1      34.661  49.360  22.009  1.00  0.00     0.210 HD
ENDBRANCH   4  40
TORSDOF 18
ENDMDL