MODEL 2
REMARK VINA RESULT: -7.868008956      1.811      2.678
REMARK  18 active torsions:
REMARK  status: ('A' for Active; 'I' for Inactive)
REMARK    1  A    between atoms: N1_2  and  N2_3
REMARK    2  A    between atoms: N2_3  and  C2_4
REMARK    3  A    between atoms: C2_4  and  C3_5
REMARK    4  A    between atoms: C3_5  and  C4_6
REMARK    5  A    between atoms: C4_6  and  C5_7
REMARK    6  A    between atoms: C4_6  and  N4_12
REMARK    7  A    between atoms: C5_7  and  N3_8
REMARK    8  A    between atoms: N4_12  and  C6_14
REMARK    9  A    between atoms: C6_14  and  C7_15
REMARK   10  A    between atoms: C8_17  and  C9_18
REMARK   11  A    between atoms: C9_18  and  N5_19
REMARK   12  A    between atoms: N5_19  and  C10_22
REMARK   13  A    between atoms: C11_23  and  N6_24
REMARK   14  A    between atoms: C12_28  and  O2_29
REMARK   15  A    between atoms: C13_31  and  O3_32
REMARK   16  A    between atoms: C14_34  and  N7_35
REMARK   17  A    between atoms: C15_39  and  O4_40
REMARK   18  A    between atoms: C16_42  and  N8_43
ROOT
HETATM    1  C9  UNL     1      35.545  52.139  19.953  1.00  0.00     0.266 C
ENDROOT
BRANCH   1   2
HETATM    2  C8  UNL     1      35.442  53.244  18.949  1.00  0.00     0.172 C
HETATM    3  O1  UNL     1      36.420  54.267  19.099  1.00  0.00    -0.373 OA
HETATM    4  C7  UNL     1      36.279  54.445  17.707  1.00  0.00     0.164 C
HETATM    5  C16 UNL     1      36.082  52.979  17.594  1.00  0.00     0.143 C
BRANCH   4   6
HETATM    6  C6  UNL     1      37.453  55.098  17.053  1.00  0.00     0.148 C
BRANCH   6   7
HETATM    7  N4  UNL     1      37.126  56.441  16.680  1.00  0.00    -0.413 N
ATOM      8  H4  UNL     1      36.581  57.055  17.285  1.00  0.00     0.153 HD
BRANCH   7   9
HETATM    9  C4  UNL     1      37.616  56.871  15.396  1.00  0.00     0.103 C
BRANCH   9  10
HETATM   10  C3  UNL     1      38.945  57.516  15.557  1.00  0.00     0.043 C
BRANCH  10  11
HETATM   11  C2  UNL     1      40.102  56.744  14.968  1.00  0.00     0.132 C
BRANCH  11  12
HETATM   12  N2  UNL     1      40.802  55.913  15.888  1.00  0.00    -0.149 NA
BRANCH  12  13
HETATM   13  N1  UNL     1      42.148  56.289  15.883  1.00  0.00    -0.153 NA
HETATM   14  C1  UNL     1      42.485  57.060  14.701  1.00  0.00     0.154 C
ENDBRANCH  12  13
ENDBRANCH  11  12
ENDBRANCH  10  11
ENDBRANCH   9  10
BRANCH   9  15
HETATM   15  C5  UNL     1      36.593  57.729  14.688  1.00  0.00     0.254 C
BRANCH  15  16
HETATM   16  N3  UNL     1      35.251  57.263  14.838  1.00  0.00    -0.077 N
ATOM     17  H33 UNL     1      35.201  56.256  14.686  1.00  0.00     0.274 HD
ATOM     18  H32 UNL     1      34.962  57.303  15.815  1.00  0.00     0.274 HD
ATOM     19  H31 UNL     1      34.580  57.750  14.245  1.00  0.00     0.274 HD
ENDBRANCH  15  16
ENDBRANCH   9  15
ENDBRANCH   7   9
ENDBRANCH   6   7
ENDBRANCH   4   6
BRANCH   5  20
HETATM   20  N8  UNL     1      35.040  52.601  16.648  1.00  0.00    -0.378 N
HETATM   21  C17 UNL     1      35.254  51.727  15.726  1.00  0.00     0.185 C
HETATM   22  N9  UNL     1      34.236  51.368  14.814  1.00  0.00    -0.097 NA
ATOM     23  H8  UNL     1      34.121  53.039  16.718  1.00  0.00     0.160 HD
ENDBRANCH   5  20
ENDBRANCH   1   2
BRANCH   1  24
HETATM   24  N5  UNL     1      35.607  50.863  19.331  1.00  0.00    -0.064 N
ATOM     25  H52 UNL     1      35.520  50.951  18.319  1.00  0.00     0.277 HD
ATOM     26  H51 UNL     1      36.550  50.480  19.389  1.00  0.00     0.277 HD
BRANCH  24  27
HETATM   27  C10 UNL     1      34.634  49.909  19.848  1.00  0.00     0.249 C
HETATM   28  C11 UNL     1      33.348  50.089  19.103  1.00  0.00     0.247 C
HETATM   29  C12 UNL     1      32.365  49.092  19.723  1.00  0.00     0.181 C
HETATM   30  C13 UNL     1      32.074  49.609  21.107  1.00  0.00     0.182 C
HETATM   31  C14 UNL     1      33.285  49.681  21.982  1.00  0.00     0.245 C
HETATM   32  C15 UNL     1      34.580  49.843  21.311  1.00  0.00     0.184 C
BRANCH  28  33
HETATM   33  N6  UNL     1      33.536  49.642  17.723  1.00  0.00    -0.070 N
ATOM     34  H63 UNL     1      33.638  50.420  17.071  1.00  0.00     0.274 HD
ATOM     35  H62 UNL     1      34.449  49.211  17.574  1.00  0.00     0.274 HD
ATOM     36  H61 UNL     1      32.767  49.021  17.472  1.00  0.00     0.274 HD
ENDBRANCH  28  33
BRANCH  29  37
HETATM   37  O2  UNL     1      31.155  49.063  19.026  1.00  0.00    -0.391 OA
ATOM     38  H2  UNL     1      30.620  48.322  19.286  1.00  0.00     0.210 HD
ENDBRANCH  29  37
BRANCH  30  39
HETATM   39  O3  UNL     1      31.486  50.867  20.972  1.00  0.00    -0.391 OA
ATOM     40  H3  UNL     1      31.740  51.384  21.727  1.00  0.00     0.210 HD
ENDBRANCH  30  39
BRANCH  31  41
HETATM   41  N7  UNL     1      33.041  50.761  22.946  1.00  0.00    -0.070 N
ATOM     42  H73 UNL     1      32.691  51.616  22.513  1.00  0.00     0.274 HD
ATOM     43  H72 UNL     1      32.239  50.588  23.551  1.00  0.00     0.274 HD
ATOM     44  H71 UNL     1      33.913  50.896  23.458  1.00  0.00     0.274 HD
ENDBRANCH  31  41
BRANCH  32  45
HETATM   45  O4  UNL     1      35.491  48.841  21.741  1.00  0.00    -0.391 OA
ATOM     46  H4  UNL     1      36.257  49.273  22.101  1.00  0.00     0.210 HD
ENDBRANCH  32  45
ENDBRANCH  24  27
ENDBRANCH   1  24
TORSDOF 18
ENDMDL