MODEL 4
REMARK VINA RESULT: -6.959225918      1.625      2.231
REMARK  22 active torsions:
REMARK  status: ('A' for Active; 'I' for Inactive)
REMARK    1  A    between atoms: N1_1  and  N2_4
REMARK    2  A    between atoms: N2_4  and  C1_5
REMARK    3  A    between atoms: C2_6  and  N3_7
REMARK    4  A    between atoms: C3_11  and  N4_12
REMARK    5  A    between atoms: C4_16  and  O1_17
REMARK    6  A    between atoms: C5_19  and  N5_20
REMARK    7  A    between atoms: C6_24  and  N6_25
REMARK    8  A    between atoms: N6_25  and  C7_28
REMARK    9  A    between atoms: C7_28  and  C8_29
REMARK   10  A    between atoms: C8_29  and  C9_30
REMARK   11  A    between atoms: C9_30  and  C10_31
REMARK   12  A    between atoms: C10_31  and  N7_32
REMARK   13  A    between atoms: N7_32  and  C11_35
REMARK   14  A    between atoms: C11_35  and  C12_36
REMARK   15  A    between atoms: C12_36  and  C13_37
REMARK   16  A    between atoms: C13_37  and  C14_38
REMARK   17  A    between atoms: C13_37  and  C15_41
REMARK   18  A    between atoms: C13_37  and  C16_44
REMARK   19  A    between atoms: C14_38  and  O2_39
REMARK   20  A    between atoms: C15_41  and  O3_42
REMARK   21  A    between atoms: C16_44  and  O4_45
REMARK   22  A    between atoms: C17_47  and  O5_48
ROOT
HETATM    1  C1  UNL     1      37.187  55.278  14.385  1.00  0.00     0.162 C
HETATM    2  C2  UNL     1      37.679  56.038  15.561  1.00  0.00     0.239 C
HETATM    3  C3  UNL     1      38.232  55.285  16.702  1.00  0.00     0.246 C
HETATM    4  C4  UNL     1      37.440  54.354  17.467  1.00  0.00     0.183 C
HETATM    5  C5  UNL     1      36.121  53.886  17.038  1.00  0.00     0.247 C
HETATM    6  C6  UNL     1      35.908  53.479  15.635  1.00  0.00     0.248 C
HETATM    7  C17 UNL     1      35.913  54.568  14.621  1.00  0.00     0.174 C
ENDROOT
BRANCH   6   8
HETATM    8  N6  UNL     1      36.542  52.271  15.202  1.00  0.00    -0.066 N
ATOM      9  H62 UNL     1      36.371  52.112  14.209  1.00  0.00     0.277 HD
ATOM     10  H61 UNL     1      37.556  52.385  15.185  1.00  0.00     0.277 HD
BRANCH   8  11
HETATM   11  C7  UNL     1      36.174  51.101  15.979  1.00  0.00     0.233 C
BRANCH  11  12
HETATM   12  C8  UNL     1      34.790  50.613  15.618  1.00  0.00     0.029 C
BRANCH  12  13
HETATM   13  C9  UNL     1      34.393  49.411  16.439  1.00  0.00     0.029 C
BRANCH  13  14
HETATM   14  C10 UNL     1      34.092  49.759  17.867  1.00  0.00     0.232 C
BRANCH  14  15
HETATM   15  N7  UNL     1      32.824  49.236  18.266  1.00  0.00    -0.075 N
ATOM     16  H72 UNL     1      32.075  49.669  17.725  1.00  0.00     0.277 HD
ATOM     17  H71 UNL     1      32.726  48.269  17.958  1.00  0.00     0.277 HD
BRANCH  15  18
HETATM   18  C11 UNL     1      32.548  49.343  19.686  1.00  0.00     0.233 C
BRANCH  18  19
HETATM   19  C12 UNL     1      32.359  50.756  20.097  1.00  0.00     0.043 C
BRANCH  19  20
HETATM   20  C13 UNL     1      33.284  51.302  21.132  1.00  0.00     0.025 C
BRANCH  20  21
HETATM   21  C14 UNL     1      34.056  52.437  20.450  1.00  0.00     0.177 C
BRANCH  21  22
HETATM   22  O2  UNL     1      34.061  53.606  21.149  1.00  0.00    -0.400 OA
ATOM     23  H2  UNL     1      34.057  54.384  20.605  1.00  0.00     0.209 HD
ENDBRANCH  21  22
ENDBRANCH  20  21
BRANCH  20  24
HETATM   24  C15 UNL     1      32.579  51.894  22.319  1.00  0.00     0.177 C
BRANCH  24  25
HETATM   25  O3  UNL     1      33.298  51.964  23.478  1.00  0.00    -0.400 OA
ATOM     26  H3  UNL     1      32.910  51.550  24.241  1.00  0.00     0.209 HD
ENDBRANCH  24  25
ENDBRANCH  20  24
BRANCH  20  27
HETATM   27  C16 UNL     1      34.267  50.266  21.627  1.00  0.00     0.177 C
BRANCH  27  28
HETATM   28  O4  UNL     1      35.431  50.798  22.117  1.00  0.00    -0.400 OA
ATOM     29  H4  UNL     1      35.988  50.165  22.554  1.00  0.00     0.209 HD
ENDBRANCH  27  28
ENDBRANCH  20  27
ENDBRANCH  19  20
ENDBRANCH  18  19
ENDBRANCH  15  18
ENDBRANCH  14  15
ENDBRANCH  13  14
ENDBRANCH  12  13
ENDBRANCH  11  12
ENDBRANCH   8  11
ENDBRANCH   6   8
BRANCH   5  30
HETATM   30  N5  UNL     1      35.092  54.836  17.447  1.00  0.00    -0.070 N
ATOM     31  H53 UNL     1      35.024  54.910  18.462  1.00  0.00     0.274 HD
ATOM     32  H52 UNL     1      35.359  55.798  17.242  1.00  0.00     0.274 HD
ATOM     33  H51 UNL     1      34.198  54.590  17.023  1.00  0.00     0.274 HD
ENDBRANCH   5  30
BRANCH   7  34
HETATM   34  O5  UNL     1      35.546  53.971  13.391  1.00  0.00    -0.392 OA
ATOM     35  H5  UNL     1      34.646  54.223  13.222  1.00  0.00     0.210 HD
ENDBRANCH   7  34
BRANCH   4  36
HETATM   36  O1  UNL     1      38.235  53.210  17.750  1.00  0.00    -0.391 OA
ATOM     37  H1  UNL     1      38.735  53.378  18.540  1.00  0.00     0.210 HD
ENDBRANCH   4  36
BRANCH   1  38
HETATM   38  N2  UNL     1      38.195  54.498  13.694  1.00  0.00    -0.139 NA
BRANCH  38  39
HETATM   39  N1  UNL     1      38.370  55.039  12.394  1.00  0.00    -0.348 N
ATOM     40  H12 UNL     1      38.955  55.844  12.170  1.00  0.00     0.172 HD
ATOM     41  H11 UNL     1      37.816  54.489  11.737  1.00  0.00     0.172 HD
ENDBRANCH  38  39
ENDBRANCH   1  38
BRANCH   3  42
HETATM   42  N4  UNL     1      39.492  54.669  16.232  1.00  0.00    -0.070 N
ATOM     43  H43 UNL     1      40.128  55.337  15.796  1.00  0.00     0.274 HD
ATOM     44  H42 UNL     1      40.108  54.383  16.992  1.00  0.00     0.274 HD
ATOM     45  H41 UNL     1      39.229  53.902  15.615  1.00  0.00     0.274 HD
ENDBRANCH   3  42
BRANCH   2  46
HETATM   46  N3  UNL     1      36.695  57.043  15.919  1.00  0.00    -0.071 N
ATOM     47  H33 UNL     1      37.040  57.993  15.777  1.00  0.00     0.274 HD
ATOM     48  H32 UNL     1      35.915  57.075  15.263  1.00  0.00     0.274 HD
ATOM     49  H31 UNL     1      36.390  56.881  16.879  1.00  0.00     0.274 HD
ENDBRANCH   2  46
TORSDOF 22
ENDMDL