MODEL 5
REMARK VINA RESULT: -6.628829381      1.383      1.810
REMARK  20 active torsions:
REMARK  status: ('A' for Active; 'I' for Inactive)
REMARK    1  A    between atoms: N1_1  and  C1_5
REMARK    2  A    between atoms: C1_5  and  C2_6
REMARK    3  A    between atoms: C2_6  and  N2_7
REMARK    4  A    between atoms: N2_7  and  C3_10
REMARK    5  A    between atoms: C3_10  and  C4_11
REMARK    6  A    between atoms: C4_11  and  C5_12
REMARK    7  A    between atoms: C4_11  and  N4_17
REMARK    8  A    between atoms: C5_12  and  N3_13
REMARK    9  A    between atoms: N4_17  and  C6_19
REMARK   10  A    between atoms: C7_20  and  N5_21
REMARK   11  A    between atoms: N5_21  and  C8_23
REMARK   12  A    between atoms: C8_23  and  C9_24
REMARK   13  A    between atoms: C9_24  and  N6_25
REMARK   14  A    between atoms: C10_29  and  N7_30
REMARK   15  A    between atoms: C11_34  and  O1_35
REMARK   16  A    between atoms: O1_35  and  C12_36
REMARK   17  A    between atoms: C13_37  and  O2_38
REMARK   18  A    between atoms: C14_40  and  N8_41
REMARK   19  A    between atoms: C16_46  and  N9_47
REMARK   20  A    between atoms: C17_51  and  O3_52
ROOT
HETATM    1  C6  UNL     1      35.215  51.725  17.313  1.00  0.00     0.132 C
HETATM    2  C7  UNL     1      34.867  50.571  16.579  1.00  0.00     0.134 C
HETATM    3  C10 UNL     1      35.646  51.019  15.364  1.00  0.00     0.238 C
HETATM    4  C11 UNL     1      36.587  51.755  16.250  1.00  0.00     0.179 C
ENDROOT
BRANCH   4   5
HETATM    5  O1  UNL     1      36.907  52.955  16.103  1.00  0.00    -0.371 OA
BRANCH   5   6
HETATM    6  C12 UNL     1      37.247  54.138  15.982  1.00  0.00     0.183 C
HETATM    7  C13 UNL     1      37.886  54.820  17.153  1.00  0.00     0.180 C
HETATM    8  C14 UNL     1      38.162  56.271  16.886  1.00  0.00     0.216 C
HETATM    9  C15 UNL     1      37.847  56.727  15.524  1.00  0.00     0.071 C
HETATM   10  C16 UNL     1      36.411  56.397  15.151  1.00  0.00     0.216 C
HETATM   11  C17 UNL     1      35.969  55.021  15.580  1.00  0.00     0.180 C
BRANCH   7  12
HETATM   12  O2  UNL     1      37.042  54.726  18.300  1.00  0.00    -0.391 OA
ATOM     13  H2  UNL     1      37.252  55.414  18.920  1.00  0.00     0.210 HD
ENDBRANCH   7  12
BRANCH   8  14
HETATM   14  N8  UNL     1      37.537  57.113  17.884  1.00  0.00    -0.072 N
ATOM     15  H83 UNL     1      36.519  57.061  17.835  1.00  0.00     0.274 HD
ATOM     16  H82 UNL     1      37.667  56.741  18.825  1.00  0.00     0.274 HD
ATOM     17  H81 UNL     1      37.867  58.075  17.811  1.00  0.00     0.274 HD
ENDBRANCH   8  14
BRANCH  10  18
HETATM   18  N9  UNL     1      36.267  56.551  13.677  1.00  0.00    -0.072 N
ATOM     19  H93 UNL     1      35.356  56.923  13.408  1.00  0.00     0.274 HD
ATOM     20  H92 UNL     1      36.840  57.306  13.302  1.00  0.00     0.274 HD
ATOM     21  H91 UNL     1      36.468  55.650  13.242  1.00  0.00     0.274 HD
ENDBRANCH  10  18
BRANCH  11  22
HETATM   22  O3  UNL     1      35.128  55.040  16.613  1.00  0.00    -0.391 OA
ATOM     23  H3  UNL     1      34.250  55.190  16.283  1.00  0.00     0.210 HD
ENDBRANCH  11  22
ENDBRANCH   5   6
ENDBRANCH   4   5
BRANCH   1  24
HETATM   24  N4  UNL     1      35.754  51.815  18.586  1.00  0.00    -0.405 N
ATOM     25  H4  UNL     1      36.749  52.036  18.619  1.00  0.00     0.154 HD
BRANCH  24  26
HETATM   26  C4  UNL     1      35.168  51.657  19.778  1.00  0.00     0.128 C
BRANCH  26  27
HETATM   27  C3  UNL     1      33.639  51.771  19.689  1.00  0.00     0.258 C
BRANCH  27  28
HETATM   28  N2  UNL     1      32.956  50.763  20.406  1.00  0.00    -0.072 N
ATOM     29  H22 UNL     1      33.598  50.102  20.844  1.00  0.00     0.277 HD
ATOM     30  H21 UNL     1      32.474  50.113  19.785  1.00  0.00     0.277 HD
BRANCH  28  31
HETATM   31  C2  UNL     1      32.051  51.365  21.372  1.00  0.00     0.259 C
BRANCH  31  32
HETATM   32  C1  UNL     1      32.740  52.053  22.507  1.00  0.00     0.257 C
BRANCH  32  33
HETATM   33  N1  UNL     1      33.037  51.188  23.611  1.00  0.00    -0.078 N
ATOM     34  H13 UNL     1      32.827  51.650  24.496  1.00  0.00     0.274 HD
ATOM     35  H12 UNL     1      32.369  50.420  23.656  1.00  0.00     0.274 HD
ATOM     36  H11 UNL     1      33.993  50.833  23.609  1.00  0.00     0.274 HD
ENDBRANCH  32  33
ENDBRANCH  31  32
ENDBRANCH  28  31
ENDBRANCH  27  28
ENDBRANCH  26  27
BRANCH  26  37
HETATM   37  C5  UNL     1      35.513  50.326  20.499  1.00  0.00     0.256 C
BRANCH  37  38
HETATM   38  N3  UNL     1      36.030  50.434  21.776  1.00  0.00    -0.077 N
ATOM     39  H33 UNL     1      35.273  50.395  22.458  1.00  0.00     0.274 HD
ATOM     40  H32 UNL     1      36.538  49.582  22.014  1.00  0.00     0.274 HD
ATOM     41  H31 UNL     1      36.617  51.246  21.962  1.00  0.00     0.274 HD
ENDBRANCH  37  38
ENDBRANCH  26  37
ENDBRANCH  24  26
ENDBRANCH   1  24
BRANCH   3  42
HETATM   42  N7  UNL     1      34.786  51.799  14.511  1.00  0.00    -0.070 N
ATOM     43  H73 UNL     1      34.641  51.360  13.602  1.00  0.00     0.274 HD
ATOM     44  H72 UNL     1      33.817  51.795  14.830  1.00  0.00     0.274 HD
ATOM     45  H71 UNL     1      35.162  52.744  14.429  1.00  0.00     0.274 HD
ENDBRANCH   3  42
BRANCH   2  46
HETATM   46  N5  UNL     1      34.946  49.198  16.767  1.00  0.00    -0.411 N
ATOM     47  H5  UNL     1      35.811  48.679  16.614  1.00  0.00     0.153 HD
BRANCH  46  48
HETATM   48  C8  UNL     1      33.758  48.565  17.182  1.00  0.00     0.141 C
BRANCH  48  49
HETATM   49  C9  UNL     1      34.095  47.959  18.574  1.00  0.00     0.248 C
BRANCH  49  50
HETATM   50  N6  UNL     1      35.332  47.211  18.428  1.00  0.00    -0.078 N
ATOM     51  H63 UNL     1      35.184  46.205  18.351  1.00  0.00     0.274 HD
ATOM     52  H62 UNL     1      35.776  47.347  17.519  1.00  0.00     0.274 HD
ATOM     53  H61 UNL     1      35.934  47.468  19.210  1.00  0.00     0.274 HD
ENDBRANCH  49  50
ENDBRANCH  48  49
ENDBRANCH  46  48
ENDBRANCH   2  46
TORSDOF 20
ENDMDL