MODEL 3
REMARK VINA RESULT: -7.397504582      1.768      2.213
REMARK  20 active torsions:
REMARK  status: ('A' for Active; 'I' for Inactive)
REMARK    1  A    between atoms: N1_1  and  C1_5
REMARK    2  A    between atoms: C1_5  and  C2_6
REMARK    3  A    between atoms: C2_6  and  N2_7
REMARK    4  A    between atoms: N2_7  and  C3_10
REMARK    5  A    between atoms: C3_10  and  C4_11
REMARK    6  A    between atoms: C4_11  and  N3_12
REMARK    7  A    between atoms: C4_11  and  C8_23
REMARK    8  A    between atoms: N3_12  and  C5_14
REMARK    9  A    between atoms: C5_14  and  C6_15
REMARK   10  A    between atoms: C5_14  and  C7_20
REMARK   11  A    between atoms: C6_15  and  N4_16
REMARK   12  A    between atoms: C7_20  and  O1_21
REMARK   13  A    between atoms: C9_25  and  O3_26
REMARK   14  A    between atoms: O3_26  and  C10_27
REMARK   15  A    between atoms: C11_28  and  N5_29
REMARK   16  A    between atoms: C13_34  and  N6_35
REMARK   17  A    between atoms: C14_39  and  O4_40
REMARK   18  A    between atoms: C15_42  and  O5_43
REMARK   19  A    between atoms: C16_45  and  N7_46
REMARK   20  A    between atoms: C17_50  and  N8_51
ROOT
HETATM    1  C8  UNL     1      35.872  54.611  17.646  1.00  0.00     0.181 C
HETATM    2  O2  UNL     1      35.155  53.712  18.443  1.00  0.00    -0.350 OA
HETATM    3  C9  UNL     1      36.106  52.918  19.067  1.00  0.00     0.293 C
HETATM    4  C16 UNL     1      37.388  53.669  19.172  1.00  0.00     0.271 C
HETATM    5  C17 UNL     1      37.100  54.953  18.429  1.00  0.00     0.249 C
ENDROOT
BRANCH   1   6
HETATM    6  C4  UNL     1      36.177  53.953  16.287  1.00  0.00     0.138 C
BRANCH   6   7
HETATM    7  C3  UNL     1      36.116  54.938  15.175  1.00  0.00     0.259 C
BRANCH   7   8
HETATM    8  N2  UNL     1      35.572  56.208  15.505  1.00  0.00    -0.072 N
ATOM      9  H22 UNL     1      35.730  56.419  16.491  1.00  0.00     0.277 HD
ATOM     10  H21 UNL     1      34.553  56.174  15.497  1.00  0.00     0.277 HD
BRANCH   8  11
HETATM   11  C2  UNL     1      36.043  57.274  14.685  1.00  0.00     0.259 C
BRANCH  11  12
HETATM   12  C1  UNL     1      34.876  58.068  14.116  1.00  0.00     0.257 C
BRANCH  12  13
HETATM   13  N1  UNL     1      34.116  58.722  15.140  1.00  0.00    -0.078 N
ATOM     14  H13 UNL     1      34.190  58.225  16.028  1.00  0.00     0.274 HD
ATOM     15  H12 UNL     1      34.546  59.605  15.412  1.00  0.00     0.274 HD
ATOM     16  H11 UNL     1      33.141  58.853  14.870  1.00  0.00     0.274 HD
ENDBRANCH  12  13
ENDBRANCH  11  12
ENDBRANCH   8  11
ENDBRANCH   7   8
ENDBRANCH   6   7
BRANCH   6  17
HETATM   17  N3  UNL     1      35.270  52.904  16.159  1.00  0.00    -0.384 N
ATOM     18  H3  UNL     1      34.291  53.127  16.341  1.00  0.00     0.159 HD
BRANCH  17  19
HETATM   19  C5  UNL     1      35.548  51.598  15.813  1.00  0.00     0.032 C
BRANCH  19  20
HETATM   20  C6  UNL     1      35.759  51.310  14.327  1.00  0.00     0.283 C
BRANCH  20  21
HETATM   21  N4  UNL     1      34.726  51.812  13.482  1.00  0.00    -0.074 N
ATOM     22  H43 UNL     1      33.892  51.230  13.555  1.00  0.00     0.274 HD
ATOM     23  H42 UNL     1      34.358  52.689  13.850  1.00  0.00     0.274 HD
ATOM     24  H41 UNL     1      35.000  51.921  12.506  1.00  0.00     0.274 HD
ENDBRANCH  20  21
ENDBRANCH  19  20
BRANCH  19  25
HETATM   25  C7  UNL     1      34.858  50.465  16.524  1.00  0.00     0.217 C
BRANCH  25  26
HETATM   26  O1  UNL     1      34.073  49.823  15.524  1.00  0.00    -0.395 OA
ATOM     27  H1  UNL     1      33.536  49.197  15.996  1.00  0.00     0.209 HD
ENDBRANCH  25  26
ENDBRANCH  19  25
ENDBRANCH  17  19
ENDBRANCH   6  17
ENDBRANCH   1   6
BRANCH   5  28
HETATM   28  N8  UNL     1      36.826  56.000  19.415  1.00  0.00    -0.070 N
ATOM     29  H83 UNL     1      36.458  56.843  18.974  1.00  0.00     0.274 HD
ATOM     30  H82 UNL     1      36.022  55.764  19.997  1.00  0.00     0.274 HD
ATOM     31  H81 UNL     1      37.651  56.202  19.979  1.00  0.00     0.274 HD
ENDBRANCH   5  28
BRANCH   3  32
HETATM   32  O3  UNL     1      35.731  52.448  20.301  1.00  0.00    -0.349 OA
BRANCH  32  33
HETATM   33  C10 UNL     1      34.744  51.483  20.162  1.00  0.00     0.186 C
HETATM   34  C11 UNL     1      35.254  50.098  20.502  1.00  0.00     0.217 C
HETATM   35  C12 UNL     1      34.050  49.192  20.642  1.00  0.00     0.071 C
HETATM   36  C13 UNL     1      33.362  49.562  21.927  1.00  0.00     0.216 C
HETATM   37  C14 UNL     1      33.203  51.040  22.115  1.00  0.00     0.179 C
HETATM   38  C15 UNL     1      33.499  51.859  20.911  1.00  0.00     0.180 C
BRANCH  34  39
HETATM   39  N5  UNL     1      36.043  50.108  21.705  1.00  0.00    -0.072 N
ATOM     40  H53 UNL     1      37.006  50.387  21.517  1.00  0.00     0.274 HD
ATOM     41  H52 UNL     1      35.773  50.874  22.322  1.00  0.00     0.274 HD
ATOM     42  H51 UNL     1      36.002  49.210  22.186  1.00  0.00     0.274 HD
ENDBRANCH  34  39
BRANCH  36  43
HETATM   43  N6  UNL     1      32.106  48.845  21.983  1.00  0.00    -0.072 N
ATOM     44  H63 UNL     1      31.386  49.267  21.397  1.00  0.00     0.274 HD
ATOM     45  H62 UNL     1      32.147  47.939  21.517  1.00  0.00     0.274 HD
ATOM     46  H61 UNL     1      31.828  48.774  22.961  1.00  0.00     0.274 HD
ENDBRANCH  36  43
BRANCH  37  47
HETATM   47  O4  UNL     1      33.875  51.494  23.272  1.00  0.00    -0.391 OA
ATOM     48  H4  UNL     1      34.695  51.922  23.055  1.00  0.00     0.210 HD
ENDBRANCH  37  47
BRANCH  38  49
HETATM   49  O5  UNL     1      33.641  53.200  21.314  1.00  0.00    -0.390 OA
ATOM     50  H5  UNL     1      32.774  53.526  21.523  1.00  0.00     0.210 HD
ENDBRANCH  38  49
ENDBRANCH  32  33
ENDBRANCH   3  32
BRANCH   4  51
HETATM   51  N7  UNL     1      38.498  52.947  18.525  1.00  0.00    -0.068 N
ATOM     52  H73 UNL     1      38.758  52.115  19.052  1.00  0.00     0.275 HD
ATOM     53  H72 UNL     1      38.196  52.500  17.659  1.00  0.00     0.275 HD
ATOM     54  H71 UNL     1      39.303  53.554  18.368  1.00  0.00     0.275 HD
ENDBRANCH   4  51
TORSDOF 20
ENDMDL