MODEL 1
REMARK VINA RESULT: -6.667614893      0.000      0.000
REMARK  4 active torsions:
REMARK  status: ('A' for Active; 'I' for Inactive)
REMARK    1  A    between atoms: N1_7  and  C6_8
REMARK    2  A    between atoms: C8_11  and  C9_12
REMARK    3  A    between atoms: C9_12  and  O3_13
REMARK    4  A    between atoms: C10_15  and  O4_16
ROOT
HETATM    1  C6  UNL     1      17.374   6.862  26.325  1.00  0.00     0.382 C
HETATM    2  O2  UNL     1      17.454   8.061  25.661  1.00  0.00    -0.343 OA
HETATM    3  C7  UNL     1      16.795   9.020  26.400  1.00  0.00     0.184 C
HETATM    4  C8  UNL     1      17.227   9.043  27.828  1.00  0.00     0.088 C
HETATM    5  C10 UNL     1      17.472   7.669  28.408  1.00  0.00     0.270 C
HETATM    6  O5  UNL     1      18.170   6.926  27.482  1.00  0.00    -0.313 OA
ENDROOT
BRANCH   1   7
HETATM    7  N1  UNL     1      17.813   5.729  25.526  1.00  0.00    -0.275 N
HETATM    8  C1  UNL     1      16.976   4.740  25.165  1.00  0.00     0.251 A
HETATM    9  O1  UNL     1      15.775   4.841  25.558  1.00  0.00    -0.268 OA
HETATM   10  C2  UNL     1      17.359   3.654  24.408  1.00  0.00     0.075 A
HETATM   11  C3  UNL     1      18.672   3.576  23.997  1.00  0.00     0.007 A
HETATM   12  C4  UNL     1      19.545   4.575  24.355  1.00  0.00     0.018 A
HETATM   13  C5  UNL     1      19.096   5.652  25.124  1.00  0.00     0.099 A
ENDBRANCH   1   7
BRANCH   5  14
HETATM   14  O4  UNL     1      16.235   7.057  28.684  1.00  0.00    -0.371 OA
ATOM     15  H4  UNL     1      16.383   6.278  29.208  1.00  0.00     0.212 HD
ENDBRANCH   5  14
BRANCH   4  16
HETATM   16  C9  UNL     1      16.181   9.704  28.714  1.00  0.00     0.175 C
BRANCH  16  17
HETATM   17  O3  UNL     1      14.915   9.594  28.142  1.00  0.00    -0.400 OA
ATOM     18  H3  UNL     1      14.274  10.069  28.658  1.00  0.00     0.209 HD
ENDBRANCH  16  17
ENDBRANCH   4  16
TORSDOF 4
ENDMDL