MODEL 5
REMARK VINA RESULT: -5.282959826      3.062      3.657
REMARK  6 active torsions:
REMARK  status: ('A' for Active; 'I' for Inactive)
REMARK    1  A    between atoms: C4_6  and  N2_7
REMARK    2  A    between atoms: N2_7  and  N3_9
REMARK    3  A    between atoms: N3_9  and  N4_10
REMARK    4  A    between atoms: C5_14  and  C6_15
REMARK    5  A    between atoms: C6_15  and  O3_16
REMARK    6  A    between atoms: C7_18  and  O4_19
ROOT
HETATM    1  N1  UNL     1      19.783  10.106  30.881  1.00  0.00    -0.196 NA
HETATM    2  C1  UNL     1      18.874   9.652  30.352  1.00  0.00     0.074 C
HETATM    3  C2  UNL     1      17.726   9.052  29.675  1.00  0.00     0.198 C
HETATM    4  C3  UNL     1      17.733   7.578  29.792  1.00  0.00     0.197 C
HETATM    5  O1  UNL     1      18.705   6.992  30.188  1.00  0.00    -0.291 OA
HETATM    6  C4  UNL     1      16.490   6.882  29.398  1.00  0.00     0.322 C
HETATM    7  O2  UNL     1      15.352   7.418  29.916  1.00  0.00    -0.347 OA
HETATM    8  C5  UNL     1      15.247   8.763  29.973  1.00  0.00     0.178 C
HETATM    9  C7  UNL     1      16.464   9.525  30.346  1.00  0.00     0.174 C
ENDROOT
BRANCH   9  10
HETATM   10  O4  UNL     1      16.667   9.414  31.733  1.00  0.00    -0.391 OA
ATOM     11  H4  UNL     1      15.815   9.482  32.146  1.00  0.00     0.210 HD
ENDBRANCH   9  10
BRANCH   6  12
HETATM   12  N2  UNL     1      16.588   5.507  29.897  1.00  0.00    -0.216 N
ATOM     13  H2  UNL     1      17.385   4.937  29.612  1.00  0.00     0.200 HD
BRANCH  12  14
HETATM   14  N3  UNL     1      15.746   5.015  30.643  1.00  0.00    -0.246 NA
BRANCH  14  15
HETATM   15  N4  UNL     1      14.920   4.393  31.304  1.00  0.00    -0.261 N
ATOM     16  H42 UNL     1      15.719   3.839  31.611  1.00  0.00     0.193 HD
ATOM     17  H41 UNL     1      14.144   3.957  31.803  1.00  0.00     0.193 HD
ENDBRANCH  14  15
ENDBRANCH  12  14
ENDBRANCH   6  12
BRANCH   8  18
HETATM   18  C6  UNL     1      14.687   9.378  28.685  1.00  0.00     0.198 C
BRANCH  18  19
HETATM   19  O3  UNL     1      13.754  10.366  28.959  1.00  0.00    -0.398 OA
ATOM     20  H3  UNL     1      14.167  11.215  29.062  1.00  0.00     0.209 HD
ENDBRANCH  18  19
ENDBRANCH   8  18
TORSDOF 6
ENDMDL