MODEL 5
REMARK VINA RESULT: -4.849712778      2.247      3.826
REMARK  4 active torsions:
REMARK  status: ('A' for Active; 'I' for Inactive)
REMARK    1  A    between atoms: O1_1  and  C1_3
REMARK    2  A    between atoms: C1_3  and  C2_4
REMARK    3  A    between atoms: C8_12  and  O3_13
REMARK    4  A    between atoms: C9_15  and  O4_16
ROOT
HETATM    1  C2  UNL     1      17.017   7.137  30.596  1.00  0.00     0.063 C
HETATM    2  C3  UNL     1      15.821   7.808  30.043  1.00  0.00    -0.020 C
HETATM    3  C4  UNL     1      15.545   8.828  29.276  1.00  0.00    -0.010 C
HETATM    4  C5  UNL     1      16.358   9.836  28.568  1.00  0.00     0.124 C
HETATM    5  S1  UNL     1      17.322  10.766  29.791  1.00  0.00    -0.153 SA
HETATM    6  C6  UNL     1      18.548   9.583  30.448  1.00  0.00     0.109 C
HETATM    7  C7  UNL     1      18.784   8.516  29.404  1.00  0.00     0.163 C
HETATM    8  O2  UNL     1      18.569   8.947  28.128  1.00  0.00    -0.351 OA
HETATM    9  C8  UNL     1      17.331   9.128  27.670  1.00  0.00     0.274 C
HETATM   10  C9  UNL     1      18.226   7.184  29.745  1.00  0.00     0.157 C
ENDROOT
BRANCH   1  11
HETATM   11  C1  UNL     1      16.676   5.642  30.749  1.00  0.00     0.175 C
BRANCH  11  12
HETATM   12  O1  UNL     1      16.732   4.981  29.547  1.00  0.00    -0.400 OA
ATOM     13  H1  UNL     1      17.338   5.398  28.945  1.00  0.00     0.209 HD
ENDBRANCH  11  12
ENDBRANCH   1  11
BRANCH  10  14
HETATM   14  O4  UNL     1      19.172   6.337  30.382  1.00  0.00    -0.392 OA
ATOM     15  H4  UNL     1      19.118   6.546  31.306  1.00  0.00     0.210 HD
ENDBRANCH  10  14
BRANCH   9  16
HETATM   16  O3  UNL     1      16.696   7.963  27.177  1.00  0.00    -0.370 OA
ATOM     17  H3  UNL     1      17.274   7.227  27.336  1.00  0.00     0.212 HD
ENDBRANCH   9  16
TORSDOF 4
ENDMDL