MODEL 4
REMARK VINA RESULT: -5.571004342      2.117      2.896
REMARK  3 active torsions:
REMARK  status: ('A' for Active; 'I' for Inactive)
REMARK    1  A    between atoms: C6_8  and  C7_9
REMARK    2  A    between atoms: C7_9  and  O3_10
REMARK    3  A    between atoms: C8_12  and  O4_13
ROOT
HETATM    1  C1  UNL     1      17.455  12.039  27.145  1.00  0.00     0.048 C
HETATM    2  C2  UNL     1      17.413  10.559  26.745  1.00  0.00     0.076 C
HETATM    3  C3  UNL     1      18.042  10.511  25.344  1.00  0.00     0.048 C
HETATM    4  C4  UNL     1      16.028  10.090  26.647  1.00  0.00     0.208 C
HETATM    5  O1  UNL     1      15.547   9.299  27.642  1.00  0.00    -0.356 OA
HETATM    6  C5  UNL     1      16.448   8.781  28.511  1.00  0.00     0.289 C
HETATM    7  O2  UNL     1      16.124   7.576  29.079  1.00  0.00    -0.349 OA
HETATM    8  C6  UNL     1      16.917   7.440  30.221  1.00  0.00     0.177 C
HETATM    9  C8  UNL     1      18.379   7.456  29.910  1.00  0.00     0.151 C
HETATM   10  C9  UNL     1      18.711   7.691  28.479  1.00  0.00     0.071 C
HETATM   11  C10 UNL     1      17.771   8.597  27.757  1.00  0.00     0.180 C
HETATM   12  O5  UNL     1      18.250   9.887  27.584  1.00  0.00    -0.368 OA
ENDROOT
BRANCH   8  13
HETATM   13  C7  UNL     1      16.597   6.174  30.982  1.00  0.00     0.198 C
BRANCH  13  14
HETATM   14  O3  UNL     1      16.990   6.305  32.305  1.00  0.00    -0.398 OA
ATOM     15  H3  UNL     1      16.237   6.214  32.877  1.00  0.00     0.209 HD
ENDBRANCH  13  14
ENDBRANCH   8  13
BRANCH   9  16
HETATM   16  O4  UNL     1      18.998   6.251  30.296  1.00  0.00    -0.393 OA
ATOM     17  H4  UNL     1      18.363   5.626  30.628  1.00  0.00     0.210 HD
ENDBRANCH   9  16
TORSDOF 3
ENDMDL