MODEL 3
REMARK VINA RESULT: -5.624383748      3.072      3.731
REMARK  2 active torsions:
REMARK  status: ('A' for Active; 'I' for Inactive)
REMARK    1  A    between atoms: N1_2  and  C2_4
REMARK    2  A    between atoms: C6_9  and  O2_10
ROOT
HETATM    1  C2  UNL     1      16.740   6.108  30.962  1.00  0.00     0.123 C
HETATM    2  C3  UNL     1      18.139   6.577  30.694  1.00  0.00     0.195 C
HETATM    3  O1  UNL     1      18.620   6.339  29.448  1.00  0.00    -0.380 OA
HETATM    4  C4  UNL     1      17.893   6.854  28.403  1.00  0.00     0.173 C
HETATM    5  C5  UNL     1      18.756   7.187  27.206  1.00  0.00     0.098 C
HETATM    6  C6  UNL     1      19.029   8.660  27.073  1.00  0.00     0.285 C
HETATM    7  O3  UNL     1      17.942   9.462  27.280  1.00  0.00    -0.251 OA
HETATM    8  N2  UNL     1      16.809   8.800  27.596  1.00  0.00    -0.063 NA
HETATM    9  C8  UNL     1      16.992   7.991  28.807  1.00  0.00     0.270 C
HETATM   10  O4  UNL     1      15.784   7.480  29.184  1.00  0.00    -0.363 OA
HETATM   11  C9  UNL     1      15.662   6.991  30.444  1.00  0.00     0.197 C
ENDROOT
BRANCH   1  12
HETATM   12  N1  UNL     1      16.496   4.742  30.621  1.00  0.00    -0.417 N
HETATM   13  C1  UNL     1      15.290   4.184  31.146  1.00  0.00     0.140 C
ATOM     14  H1  UNL     1      17.140   4.202  30.042  1.00  0.00     0.153 HD
ENDBRANCH   1  12
BRANCH   6  15
HETATM   15  O2  UNL     1      19.482   8.863  25.771  1.00  0.00    -0.364 OA
HETATM   16  C7  UNL     1      19.947   7.674  25.188  1.00  0.00     0.204 C
ENDBRANCH   6  15
TORSDOF 2
ENDMDL