MODEL 5
REMARK VINA RESULT: -5.058209637      3.259      4.944
REMARK  5 active torsions:
REMARK  status: ('A' for Active; 'I' for Inactive)
REMARK    1  A    between atoms: S1_3  and  N2_4
REMARK    2  A    between atoms: N2_4  and  N4_9
REMARK    3  A    between atoms: N3_5  and  O1_7
REMARK    4  A    between atoms: C3_11  and  C4_12
REMARK    5  A    between atoms: C4_12  and  O2_13
ROOT
HETATM    1  N1  UNL     1      19.351   9.098  30.363  1.00  0.00    -0.182 NA
HETATM    2  C1  UNL     1      18.288   9.354  29.983  1.00  0.00     0.159 C
HETATM    3  S1  UNL     1      16.654   9.722  29.378  1.00  0.00     0.112 SA
ENDROOT
BRANCH   3   4
HETATM    4  N2  UNL     1      16.530   9.108  27.742  1.00  0.00    -0.126 N
HETATM    5  N3  UNL     1      15.610   9.562  27.018  1.00  0.00    -0.181 N
ATOM      6  H3  UNL     1      14.999  10.261  27.440  1.00  0.00     0.218 HD
BRANCH   5   7
HETATM    7  O1  UNL     1      15.347   9.221  25.739  1.00  0.00    -0.272 OA
ATOM      8  H1  UNL     1      15.839   9.482  24.970  1.00  0.00     0.246 HD
ENDBRANCH   5   7
BRANCH   4   9
HETATM    9  N4  UNL     1      17.394   8.163  27.237  1.00  0.00    -0.236 N
HETATM   10  C2  UNL     1      17.435   6.770  27.625  1.00  0.00     0.167 C
HETATM   11  C3  UNL     1      17.735   5.950  26.407  1.00  0.00     0.041 C
HETATM   12  C5  UNL     1      18.988   6.513  25.763  1.00  0.00     0.107 C
HETATM   13  S2  UNL     1      18.681   8.309  26.008  1.00  0.00    -0.033 SA
BRANCH  11  14
HETATM   14  C4  UNL     1      16.589   5.988  25.410  1.00  0.00     0.171 C
BRANCH  14  15
HETATM   15  O2  UNL     1      15.842   4.833  25.433  1.00  0.00    -0.400 OA
ATOM     16  H2  UNL     1      16.212   4.178  26.014  1.00  0.00     0.209 HD
ENDBRANCH  14  15
ENDBRANCH  11  14
ENDBRANCH   4   9
ENDBRANCH   3   4
TORSDOF 5
ENDMDL