MODEL 3
REMARK VINA RESULT: -5.215308841      2.055      3.932
REMARK  4 active torsions:
REMARK  status: ('A' for Active; 'I' for Inactive)
REMARK    1  A    between atoms: O1_2  and  N1_3
REMARK    2  A    between atoms: C8_11  and  O3_12
REMARK    3  A    between atoms: C9_14  and  C10_15
REMARK    4  A    between atoms: C10_15  and  O4_16
ROOT
HETATM    1  N1  UNL     1      16.676   9.384  28.372  1.00  0.00    -0.163 NA
HETATM    2  C2  UNL     1      15.414   9.569  29.014  1.00  0.00     0.127 C
HETATM    3  C3  UNL     1      15.139   8.563  30.086  1.00  0.00     0.049 C
HETATM    4  C4  UNL     1      16.470   8.111  30.676  1.00  0.00     0.134 C
HETATM    5  O2  UNL     1      17.420   9.108  30.575  1.00  0.00    -0.358 OA
HETATM    6  C5  UNL     1      17.793   9.279  29.254  1.00  0.00     0.138 C
HETATM    7  C6  UNL     1      18.686  10.526  29.216  1.00  0.00     0.066 C
HETATM    8  C7  UNL     1      18.695   8.115  28.889  1.00  0.00     0.088 C
HETATM    9  C8  UNL     1      18.211   6.806  29.418  1.00  0.00     0.131 C
HETATM   10  C9  UNL     1      16.849   6.829  30.009  1.00  0.00     0.067 C
ENDROOT
BRANCH  10  11
HETATM   11  C10 UNL     1      16.764   5.727  31.066  1.00  0.00     0.173 C
BRANCH  11  12
HETATM   12  O4  UNL     1      16.970   6.205  32.340  1.00  0.00    -0.400 OA
ATOM     13  H4  UNL     1      17.826   5.974  32.680  1.00  0.00     0.209 HD
ENDBRANCH  11  12
ENDBRANCH  10  11
BRANCH   9  14
HETATM   14  O3  UNL     1      19.104   6.259  30.345  1.00  0.00    -0.395 OA
ATOM     15  H3  UNL     1      18.703   6.153  31.200  1.00  0.00     0.210 HD
ENDBRANCH   9  14
BRANCH   1  16
HETATM   16  O1  UNL     1      16.844  10.212  27.351  1.00  0.00    -0.306 OA
HETATM   17  C1  UNL     1      16.397   9.741  26.137  1.00  0.00     0.230 C
ENDBRANCH   1  16
TORSDOF 4
ENDMDL