MODEL 5
REMARK VINA RESULT: -5.706002318      2.025      4.382
REMARK  4 active torsions:
REMARK  status: ('A' for Active; 'I' for Inactive)
REMARK    1  A    between atoms: O1_2  and  C2_3
REMARK    2  A    between atoms: C6_9  and  O4_10
REMARK    3  A    between atoms: C6_9  and  C7_12
REMARK    4  A    between atoms: C7_12  and  O5_14
ROOT
HETATM    1  C2  UNL     1      17.820   6.802  30.349  1.00  0.00     0.288 C
HETATM    2  O2  UNL     1      18.185   8.125  30.581  1.00  0.00    -0.358 OA
HETATM    3  C3  UNL     1      17.068   8.903  30.269  1.00  0.00     0.179 C
HETATM    4  C4  UNL     1      16.595   8.275  28.986  1.00  0.00     0.066 C
HETATM    5  C5  UNL     1      16.916   6.823  29.141  1.00  0.00     0.188 C
HETATM    6  O3  UNL     1      17.505   6.372  28.000  1.00  0.00    -0.341 OA
HETATM    7  C6  UNL     1      17.851   7.422  27.198  1.00  0.00     0.205 C
HETATM    8  C9  UNL     1      17.448   8.698  27.836  1.00  0.00     0.166 C
HETATM    9  C10 UNL     1      16.650   9.518  26.904  1.00  0.00     0.070 C
HETATM   10  N1  UNL     1      16.025  10.150  26.157  1.00  0.00    -0.197 NA
ENDROOT
BRANCH   7  11
HETATM   11  O4  UNL     1      17.164   7.287  25.971  1.00  0.00    -0.362 OA
ATOM     12  H4  UNL     1      16.603   8.045  25.859  1.00  0.00     0.213 HD
ENDBRANCH   7  11
BRANCH   7  13
HETATM   13  C7  UNL     1      19.316   7.318  26.882  1.00  0.00     0.177 C
HETATM   14  C8  UNL     1      19.441   6.756  25.480  1.00  0.00     0.045 C
BRANCH  13  15
HETATM   15  O5  UNL     1      19.995   8.516  27.026  1.00  0.00    -0.390 OA
ATOM     16  H5  UNL     1      20.131   8.765  27.933  1.00  0.00     0.210 HD
ENDBRANCH  13  15
ENDBRANCH   7  13
BRANCH   1  17
HETATM   17  O1  UNL     1      17.142   6.325  31.457  1.00  0.00    -0.363 OA
HETATM   18  C1  UNL     1      16.227   5.312  31.109  1.00  0.00     0.204 C
ENDBRANCH   1  17
TORSDOF 4
ENDMDL