MODEL 5
REMARK VINA RESULT: -5.047055257      2.329      3.003
REMARK  3 active torsions:
REMARK  status: ('A' for Active; 'I' for Inactive)
REMARK    1  A    between atoms: N1_3  and  C3_5
REMARK    2  A    between atoms: C7_10  and  O2_11
REMARK    3  A    between atoms: C8_13  and  O3_14
ROOT
HETATM    1  C3  UNL     1      17.233   6.949  27.982  1.00  0.00     0.119 C
HETATM    2  C4  UNL     1      16.961   8.456  27.854  1.00  0.00     0.052 C
HETATM    3  C5  UNL     1      18.338   8.987  27.614  1.00  0.00     0.176 C
HETATM    4  O1  UNL     1      19.216   7.910  27.611  1.00  0.00    -0.381 OA
HETATM    5  C6  UNL     1      18.642   7.054  28.581  1.00  0.00     0.175 C
HETATM    6  C7  UNL     1      18.651   7.762  29.879  1.00  0.00     0.179 C
HETATM    7  C8  UNL     1      17.423   8.445  30.302  1.00  0.00     0.164 C
HETATM    8  C9  UNL     1      16.452   8.827  29.252  1.00  0.00     0.098 C
HETATM    9  S1  UNL     1      16.001  10.587  29.312  1.00  0.00    -0.089 SA
ENDROOT
BRANCH   1  10
HETATM   10  N1  UNL     1      17.265   6.424  26.675  1.00  0.00    -0.395 N
HETATM   11  C2  UNL     1      17.037   5.174  26.519  1.00  0.00     0.051 C
HETATM   12  C1  UNL     1      17.052   4.534  25.160  1.00  0.00     0.054 C
ATOM     13  H1  UNL     1      17.466   7.024  25.875  1.00  0.00     0.159 HD
ENDBRANCH   1  10
BRANCH   6  14
HETATM   14  O2  UNL     1      18.990   6.811  30.873  1.00  0.00    -0.390 OA
ATOM     15  H2  UNL     1      18.797   5.952  30.517  1.00  0.00     0.210 HD
ENDBRANCH   6  14
BRANCH   7  16
HETATM   16  O3  UNL     1      16.742   7.685  31.283  1.00  0.00    -0.392 OA
ATOM     17  H3  UNL     1      16.446   6.858  30.920  1.00  0.00     0.210 HD
ENDBRANCH   7  16
TORSDOF 3
ENDMDL