MODEL 1
REMARK VINA RESULT: -6.060159302      0.000      0.000
REMARK  4 active torsions:
REMARK  status: ('A' for Active; 'I' for Inactive)
REMARK    1  A    between atoms: C2_2  and  O1_3
REMARK    2  A    between atoms: O1_3  and  C3_4
REMARK    3  A    between atoms: C9_14  and  O3_15
REMARK    4  A    between atoms: C10_17  and  O4_18
ROOT
HETATM    1  C3  UNL     1      17.430   6.782  26.738  1.00  0.00     0.217 C
HETATM    2  C4  UNL     1      18.679   6.934  25.858  1.00  0.00     0.076 C
HETATM    3  C5  UNL     1      19.122   8.297  26.351  1.00  0.00     0.061 C
HETATM    4  C6  UNL     1      20.608   8.504  26.182  1.00  0.00     0.046 C
HETATM    5  C7  UNL     1      18.355   9.305  25.481  1.00  0.00     0.046 C
HETATM    6  O2  UNL     1      18.675   8.453  27.632  1.00  0.00    -0.320 OA
HETATM    7  C8  UNL     1      17.963   7.351  28.021  1.00  0.00     0.370 C
HETATM    8  N1  UNL     1      16.838   7.657  28.872  1.00  0.00     0.017 N
ATOM      9  H11 UNL     1      15.932   7.491  28.436  1.00  0.00     0.287 HD
ATOM     10  H12 UNL     1      16.705   8.654  29.039  1.00  0.00     0.287 HD
HETATM   11  C9  UNL     1      17.064   6.882  30.079  1.00  0.00     0.381 C
HETATM   12  C10 UNL     1      18.579   6.800  30.062  1.00  0.00     0.319 C
HETATM   13  O5  UNL     1      18.782   6.469  28.704  1.00  0.00    -0.296 OA
ENDROOT
BRANCH   1  14
HETATM   14  O1  UNL     1      17.007   5.488  26.814  1.00  0.00    -0.379 OA
BRANCH  14  15
HETATM   15  C2  UNL     1      16.672   5.098  25.516  1.00  0.00     0.164 C
HETATM   16  C1  UNL     1      17.341   3.830  25.097  1.00  0.00     0.033 C
ENDBRANCH  14  15
ENDBRANCH   1  14
BRANCH  11  17
HETATM   17  O3  UNL     1      16.611   7.615  31.171  1.00  0.00    -0.366 OA
ATOM     18  H3  UNL     1      16.961   7.228  31.964  1.00  0.00     0.212 HD
ENDBRANCH  11  17
BRANCH  12  19
HETATM   19  O4  UNL     1      19.131   8.060  30.243  1.00  0.00    -0.367 OA
ATOM     20  H4  UNL     1      18.903   8.628  29.516  1.00  0.00     0.212 HD
ENDBRANCH  12  19
TORSDOF 4
ENDMDL