MODEL 4
REMARK VINA RESULT: -11.124240530      1.977      5.176
REMARK  0 active torsions:
REMARK  status: ('A' for Active; 'I' for Inactive)
ROOT
HETATM    1  O1  UNL     1      43.857  26.675  68.827  1.00  0.00    -0.265 OA
HETATM    2  C1  UNL     1      43.522  25.729  68.056  1.00  0.00     0.281 A
HETATM    3  N1  UNL     1      44.273  24.631  67.962  1.00  0.00    -0.320 N
ATOM      4  H1  UNL     1      45.126  24.546  68.514  1.00  0.00     0.169 HD
HETATM    5  C2  UNL     1      43.897  23.622  67.126  1.00  0.00     0.046 A
HETATM    6  C3  UNL     1      44.696  22.495  67.050  1.00  0.00     0.030 A
HETATM    7  C4  UNL     1      44.401  21.423  66.236  1.00  0.00     0.002 A
HETATM    8  C5  UNL     1      43.257  21.499  65.474  1.00  0.00     0.001 A
HETATM    9  C6  UNL     1      42.460  22.634  65.556  1.00  0.00     0.014 A
HETATM   10  C7  UNL     1      42.745  23.710  66.365  1.00  0.00     0.005 A
HETATM   11  C8  UNL     1      41.978  24.841  66.466  1.00  0.00     0.031 A
HETATM   12  C9  UNL     1      42.370  25.875  67.327  1.00  0.00     0.157 A
HETATM   13  O2  UNL     1      41.493  26.850  67.263  1.00  0.00    -0.286 OA
HETATM   14  C10 UNL     1      40.553  26.523  66.416  1.00  0.00     0.161 A
HETATM   15  N2  UNL     1      39.411  26.955  65.857  1.00  0.00    -0.335 N
ATOM     16  H2  UNL     1      38.965  27.851  66.050  1.00  0.00     0.168 HD
HETATM   17  C11 UNL     1      38.953  26.039  65.015  1.00  0.00     0.045 A
HETATM   18  C12 UNL     1      37.819  26.072  64.236  1.00  0.00     0.030 A
HETATM   19  C13 UNL     1      37.483  25.017  63.402  1.00  0.00     0.002 A
HETATM   20  C14 UNL     1      38.314  23.921  63.367  1.00  0.00     0.001 A
HETATM   21  C15 UNL     1      39.441  23.926  64.162  1.00  0.00     0.014 A
HETATM   22  C16 UNL     1      39.824  24.934  65.002  1.00  0.00     0.006 A
HETATM   23  C17 UNL     1      40.816  25.256  65.883  1.00  0.00     0.042 A
ENDROOT
TORSDOF 0
ENDMDL