MODEL 2
REMARK VINA RESULT: -8.541735157      1.644      4.800
REMARK  0 active torsions:
REMARK  status: ('A' for Active; 'I' for Inactive)
ROOT
HETATM    1  C1  UNL     1      46.475  22.617  67.480  1.00  0.00     0.309 C
HETATM    2  N1  UNL     1      45.178  22.461  66.914  1.00  0.00     0.085 N
HETATM    3  C2  UNL     1      44.468  23.671  66.670  1.00  0.00     0.272 C
HETATM    4  C3  UNL     1      44.450  24.525  67.906  1.00  0.00     0.030 C
HETATM    5  C4  UNL     1      44.063  25.964  67.615  1.00  0.00     0.002 C
HETATM    6  C5  UNL     1      42.751  26.308  68.264  1.00  0.00     0.000 C
HETATM    7  C6  UNL     1      41.773  26.858  67.232  1.00  0.00     0.000 C
HETATM    8  C7  UNL     1      40.635  25.869  67.140  1.00  0.00     0.000 C
HETATM    9  C8  UNL     1      39.462  26.384  66.369  1.00  0.00     0.000 C
HETATM   10  C9  UNL     1      39.489  26.063  64.913  1.00  0.00     0.002 C
HETATM   11  C10 UNL     1      38.665  24.823  64.571  1.00  0.00     0.027 C
HETATM   12  C11 UNL     1      39.555  23.628  64.422  1.00  0.00     0.232 C
HETATM   13  N2  UNL     1      39.572  23.098  63.073  1.00  0.00    -0.075 N
ATOM     14  H21 UNL     1      39.351  23.800  62.366  1.00  0.00     0.277 HD
ATOM     15  H22 UNL     1      38.792  22.468  62.883  1.00  0.00     0.277 HD
HETATM   16  C12 UNL     1      40.882  22.465  62.862  1.00  0.00     0.233 C
HETATM   17  C13 UNL     1      40.838  21.097  63.486  1.00  0.00     0.055 C
HETATM   18  C14 UNL     1      42.184  20.576  63.885  1.00  0.00     0.234 C
HETATM   19  N3  UNL     1      43.011  21.555  64.549  1.00  0.00    -0.073 N
ATOM     20  H31 UNL     1      42.476  22.384  64.809  1.00  0.00     0.277 HD
ATOM     21  H32 UNL     1      43.669  21.991  63.904  1.00  0.00     0.277 HD
HETATM   22  C15 UNL     1      43.689  20.976  65.694  1.00  0.00     0.262 C
HETATM   23  C16 UNL     1      45.109  21.520  65.834  1.00  0.00     0.299 C
ENDROOT
TORSDOF 0
ENDMDL