MODEL 1
REMARK VINA RESULT: -8.380995658      0.000      0.000
REMARK  5 active torsions:
REMARK  status: ('A' for Active; 'I' for Inactive)
REMARK    1  A    between atoms: C2_2  and  C3_3
REMARK    2  A    between atoms: C3_3  and  C4_4
REMARK    3  A    between atoms: C4_4  and  C5_5
REMARK    4  A    between atoms: C5_5  and  C6_6
REMARK    5  A    between atoms: C14_21  and  C15_22
ROOT
HETATM    1  C6  UNL     1      40.952  22.091  63.211  1.00  0.00     0.095 A
HETATM    2  N1  UNL     1      39.895  22.909  63.000  1.00  0.00    -0.334 N
ATOM      3  H1  UNL     1      39.373  22.825  62.127  1.00  0.00     0.168 HD
HETATM    4  C7  UNL     1      39.508  23.836  63.913  1.00  0.00     0.118 A
HETATM    5  N2  UNL     1      38.442  24.619  63.632  1.00  0.00    -0.328 N
ATOM      6  H2  UNL     1      37.934  24.519  62.753  1.00  0.00     0.169 HD
HETATM    7  C8  UNL     1      38.068  25.535  64.544  1.00  0.00     0.100 A
HETATM    8  N3  UNL     1      37.062  26.293  64.310  1.00  0.00    -0.385 N
ATOM      9  H31 UNL     1      36.779  26.987  65.002  1.00  0.00     0.157 HD
ATOM     10  H32 UNL     1      36.546  26.201  63.435  1.00  0.00     0.157 HD
HETATM   11  C9  UNL     1      38.766  25.658  65.727  1.00  0.00     0.055 A
HETATM   12  C10 UNL     1      39.844  24.864  66.006  1.00  0.00    -0.044 A
HETATM   13  C11 UNL     1      40.620  24.971  67.276  1.00  0.00     0.049 C
HETATM   14  C12 UNL     1      40.223  23.925  65.066  1.00  0.00     0.015 A
HETATM   15  C13 UNL     1      41.316  23.084  65.292  1.00  0.00     0.026 A
HETATM   16  C14 UNL     1      41.707  22.143  64.365  1.00  0.00    -0.014 A
ENDROOT
BRANCH   1  17
HETATM   17  C5  UNL     1      41.356  21.112  62.243  1.00  0.00    -0.048 C
BRANCH  17  18
HETATM   18  C4  UNL     1      41.691  20.307  61.415  1.00  0.00    -0.100 C
BRANCH  18  19
HETATM   19  C3  UNL     1      42.110  19.341  60.396  1.00  0.00     0.094 C
BRANCH  19  20
HETATM   20  C2  UNL     1      43.606  19.167  60.525  1.00  0.00     0.007 C
HETATM   21  C1  UNL     1      44.320  20.456  60.109  1.00  0.00     0.006 C
ENDBRANCH  19  20
ENDBRANCH  18  19
ENDBRANCH  17  18
ENDBRANCH   1  17
BRANCH  16  22
HETATM   22  C15 UNL     1      42.835  21.306  64.650  1.00  0.00    -0.021 C
HETATM   23  C16 UNL     1      42.324  19.910  64.965  1.00  0.00     0.019 C
HETATM   24  C17 UNL     1      43.943  21.166  63.706  1.00  0.00     0.019 C
HETATM   25  C18 UNL     1      43.444  21.788  65.981  1.00  0.00     0.019 C
ENDBRANCH  16  22
TORSDOF 5
ENDMDL