MODEL 1
REMARK VINA RESULT: -9.664972509      0.000      0.000
REMARK  1 active torsions:
REMARK  status: ('A' for Active; 'I' for Inactive)
REMARK       I    between atoms: C1_4  and  N2_5
REMARK       I    between atoms: C1_4  and  N3_21
REMARK    1  A    between atoms: N3_21  and  N4_23
ROOT
HETATM    1  N1  UNL     1      42.179  18.892  64.217  1.00  0.00    -0.233 N
ATOM      2  H11 UNL     1      42.660  18.086  64.616  1.00  0.00     0.174 HD
ATOM      3  H12 UNL     1      41.191  18.798  63.980  1.00  0.00     0.174 HD
HETATM    4  C1  UNL     1      42.846  19.972  64.037  1.00  0.00     0.690 C
HETATM    5  N2  UNL     1      42.179  21.094  63.482  1.00  0.00    -0.198 N
ATOM      6  H2  UNL     1      42.056  21.180  62.474  1.00  0.00     0.183 HD
HETATM    7  C2  UNL     1      41.733  21.994  64.274  1.00  0.00     0.004 C
HETATM    8  C3  UNL     1      41.909  21.877  65.765  1.00  0.00     0.053 C
HETATM    9  C4  UNL     1      42.754  22.993  66.312  1.00  0.00     0.006 C
HETATM   10  C5  UNL     1      41.920  23.962  67.170  1.00  0.00     0.000 C
HETATM   11  C6  UNL     1      42.436  25.330  66.923  1.00  0.00     0.000 C
HETATM   12  C7  UNL     1      41.664  26.469  67.408  1.00  0.00     0.000 C
HETATM   13  C8  UNL     1      40.183  26.309  67.543  1.00  0.00     0.000 C
HETATM   14  C9  UNL     1      39.430  26.855  66.350  1.00  0.00     0.000 C
HETATM   15  C10 UNL     1      38.578  25.805  65.678  1.00  0.00     0.000 C
HETATM   16  C11 UNL     1      38.303  26.139  64.227  1.00  0.00     0.000 C
HETATM   17  C12 UNL     1      39.022  25.203  63.276  1.00  0.00     0.000 C
HETATM   18  C13 UNL     1      38.611  23.782  63.405  1.00  0.00     0.000 C
HETATM   19  C14 UNL     1      39.700  22.787  63.077  1.00  0.00     0.006 C
HETATM   20  C15 UNL     1      41.036  23.164  63.681  1.00  0.00     0.053 C
HETATM   21  N3  UNL     1      44.217  20.104  64.367  1.00  0.00    -0.139 N
ATOM     22  H3  UNL     1      44.590  19.619  65.182  1.00  0.00     0.205 HD
ENDROOT
BRANCH  21  23
HETATM   23  N4  UNL     1      45.064  20.894  63.580  1.00  0.00    -0.331 N
ATOM     24  H42 UNL     1      44.823  21.874  63.431  1.00  0.00     0.177 HD
ATOM     25  H41 UNL     1      45.905  20.494  63.163  1.00  0.00     0.177 HD
ENDBRANCH  21  23
TORSDOF 1
ENDMDL