MODEL 1
REMARK VINA RESULT: -11.519215994      0.000      0.000
REMARK  0 active torsions:
REMARK  status: ('A' for Active; 'I' for Inactive)
ROOT
HETATM    1  C1  UNL     1      37.316  25.420  64.222  1.00  0.00     0.001 A
HETATM    2  C2  UNL     1      37.802  24.595  63.231  1.00  0.00     0.001 A
HETATM    3  C3  UNL     1      38.960  23.899  63.500  1.00  0.00     0.014 A
HETATM    4  C4  UNL     1      39.612  24.017  64.710  1.00  0.00     0.003 A
HETATM    5  C5  UNL     1      40.790  23.308  64.985  1.00  0.00     0.072 A
HETATM    6  C6  UNL     1      41.432  23.438  66.201  1.00  0.00     0.075 A
HETATM    7  C7  UNL     1      40.904  24.278  67.163  1.00  0.00     0.034 A
HETATM    8  C8  UNL     1      39.744  24.980  66.902  1.00  0.00     0.014 A
HETATM    9  C9  UNL     1      39.112  24.847  65.691  1.00  0.00    -0.024 A
HETATM   10  C10 UNL     1      37.937  25.565  65.442  1.00  0.00     0.012 A
HETATM   11  N1  UNL     1      42.512  22.866  66.614  1.00  0.00    -0.297 N
ATOM     12  H1  UNL     1      42.799  23.117  67.560  1.00  0.00     0.187 HD
HETATM   13  N2  UNL     1      43.350  21.955  65.966  1.00  0.00    -0.283 N
ATOM     14  H2  UNL     1      44.163  21.629  66.490  1.00  0.00     0.188 HD
HETATM   15  C11 UNL     1      43.188  21.429  64.637  1.00  0.00     0.148 A
HETATM   16  N3  UNL     1      44.024  20.551  64.053  1.00  0.00    -0.339 N
ATOM     17  H3  UNL     1      44.864  20.156  64.475  1.00  0.00     0.167 HD
HETATM   18  C12 UNL     1      43.560  20.284  62.812  1.00  0.00     0.046 A
HETATM   19  C13 UNL     1      43.989  19.479  61.777  1.00  0.00     0.030 A
HETATM   20  C14 UNL     1      43.323  19.372  60.573  1.00  0.00     0.002 A
HETATM   21  C15 UNL     1      42.175  20.115  60.411  1.00  0.00     0.001 A
HETATM   22  C16 UNL     1      41.713  20.930  61.418  1.00  0.00     0.016 A
HETATM   23  C17 UNL     1      42.405  21.000  62.588  1.00  0.00     0.021 A
HETATM   24  C18 UNL     1      42.169  21.733  63.759  1.00  0.00     0.091 A
HETATM   25  N4  UNL     1      41.073  22.611  63.957  1.00  0.00    -0.350 N
ATOM     26  H4  UNL     1      40.426  22.695  63.173  1.00  0.00     0.166 HD
ENDROOT
TORSDOF 0
ENDMDL