MODEL 4
REMARK VINA RESULT: -10.931954548      2.885      4.577
REMARK  1 active torsions:
REMARK  status: ('A' for Active; 'I' for Inactive)
REMARK    1  A    between atoms: N1_1  and  C1_4
ROOT
HETATM    1  C1  UNL     1      43.667  19.749  66.192  1.00  0.00     0.099 A
HETATM    2  C2  UNL     1      43.456  20.874  66.942  1.00  0.00     0.049 A
HETATM    3  C3  UNL     1      42.650  21.912  66.475  1.00  0.00     0.018 A
HETATM    4  C4  UNL     1      42.087  21.761  65.244  1.00  0.00     0.006 A
HETATM    5  C5  UNL     1      42.317  20.586  64.486  1.00  0.00     0.044 A
HETATM    6  C6  UNL     1      41.700  20.469  63.262  1.00  0.00     0.031 A
HETATM    7  C7  UNL     1      40.877  21.431  62.737  1.00  0.00     0.014 A
HETATM    8  C8  UNL     1      40.663  22.566  63.472  1.00  0.00    -0.021 A
HETATM    9  C9  UNL     1      39.792  23.461  62.893  1.00  0.00     0.013 C
HETATM   10  C10 UNL     1      38.980  24.400  63.544  1.00  0.00     0.013 C
HETATM   11  C11 UNL     1      39.142  24.950  64.807  1.00  0.00    -0.022 A
HETATM   12  C12 UNL     1      38.137  25.825  65.134  1.00  0.00     0.012 A
HETATM   13  C13 UNL     1      38.158  26.467  66.358  1.00  0.00     0.001 A
HETATM   14  C14 UNL     1      39.191  26.228  67.257  1.00  0.00     0.001 A
HETATM   15  C15 UNL     1      40.196  25.344  66.916  1.00  0.00     0.016 A
HETATM   16  C16 UNL     1      40.196  24.695  65.705  1.00  0.00     0.025 A
HETATM   17  C17 UNL     1      41.267  23.859  65.520  1.00  0.00     0.195 C
HETATM   18  O1  UNL     1      42.308  24.146  66.108  1.00  0.00    -0.287 OA
HETATM   19  C18 UNL     1      41.274  22.739  64.732  1.00  0.00     0.038 A
HETATM   20  N2  UNL     1      43.096  19.632  64.992  1.00  0.00    -0.342 N
ATOM     21  H2  UNL     1      43.262  18.787  64.446  1.00  0.00     0.167 HD
ENDROOT
BRANCH   1  22
HETATM   22  N1  UNL     1      44.440  18.803  66.678  1.00  0.00    -0.385 N
ATOM     23  H12 UNL     1      45.078  18.279  66.079  1.00  0.00     0.157 HD
ATOM     24  H11 UNL     1      44.395  18.599  67.676  1.00  0.00     0.157 HD
ENDBRANCH   1  22
TORSDOF 1
ENDMDL