MODEL 4
REMARK VINA RESULT: -8.442334483      1.412      3.856
REMARK  2 active torsions:
REMARK  status: ('A' for Active; 'I' for Inactive)
REMARK    1  A    between atoms: N1_2  and  C2_4
REMARK    2  A    between atoms: C10_16  and  C11_17
ROOT
HETATM    1  C2  UNL     1      40.967  21.372  62.968  1.00  0.00     0.145 A
HETATM    2  N2  UNL     1      40.077  22.358  62.850  1.00  0.00    -0.340 N
ATOM      3  H2  UNL     1      39.408  22.256  62.086  1.00  0.00     0.168 HD
HETATM    4  C3  UNL     1      39.939  23.452  63.583  1.00  0.00     0.020 A
HETATM    5  C4  UNL     1      38.840  24.435  63.250  1.00  0.00     0.069 C
HETATM    6  C5  UNL     1      40.715  23.817  64.663  1.00  0.00     0.017 A
HETATM    7  C6  UNL     1      40.706  24.919  65.534  1.00  0.00     0.006 A
HETATM    8  C7  UNL     1      40.043  26.100  65.804  1.00  0.00     0.031 A
HETATM    9  C8  UNL     1      40.659  26.667  66.882  1.00  0.00     0.089 A
HETATM   10  N3  UNL     1      41.667  25.870  67.271  1.00  0.00    -0.365 N
ATOM     11  H3  UNL     1      42.295  26.050  68.054  1.00  0.00     0.165 HD
HETATM   12  C9  UNL     1      41.715  24.800  66.465  1.00  0.00     0.051 A
HETATM   13  C10 UNL     1      42.394  23.636  66.225  1.00  0.00    -0.005 A
HETATM   14  C15 UNL     1      41.825  23.006  65.144  1.00  0.00     0.030 A
HETATM   15  S1  UNL     1      42.086  21.572  64.266  1.00  0.00    -0.053 SA
ENDROOT
BRANCH  13  16
HETATM   16  C11 UNL     1      43.536  23.123  66.977  1.00  0.00    -0.021 C
HETATM   17  C12 UNL     1      44.223  24.143  67.824  1.00  0.00     0.019 C
HETATM   18  C13 UNL     1      44.571  22.515  66.050  1.00  0.00     0.019 C
HETATM   19  C14 UNL     1      43.075  22.000  67.899  1.00  0.00     0.019 C
ENDBRANCH  13  16
BRANCH   1  20
HETATM   20  N1  UNL     1      41.011  20.345  62.194  1.00  0.00    -0.375 N
HETATM   21  C1  UNL     1      40.202  19.185  62.312  1.00  0.00     0.148 C
ATOM     22  H1  UNL     1      41.686  20.367  61.429  1.00  0.00     0.161 HD
ENDBRANCH   1  20
TORSDOF 2
ENDMDL