MODEL 2
REMARK VINA RESULT: -10.572456817      0.944      1.052
REMARK  0 active torsions:
REMARK  status: ('A' for Active; 'I' for Inactive)
ROOT
HETATM    1  O1  UNL     1      38.050  24.457  63.041  1.00  0.00    -0.267 OA
HETATM    2  C1  UNL     1      39.005  24.500  63.892  1.00  0.00     0.257 A
HETATM    3  N1  UNL     1      39.062  25.480  64.788  1.00  0.00    -0.322 N
ATOM      4  H1  UNL     1      38.342  26.204  64.800  1.00  0.00     0.169 HD
HETATM    5  C2  UNL     1      40.065  25.518  65.676  1.00  0.00     0.046 A
HETATM    6  C3  UNL     1      40.117  26.549  66.612  1.00  0.00     0.030 A
HETATM    7  C4  UNL     1      41.127  26.621  67.535  1.00  0.00     0.002 A
HETATM    8  C5  UNL     1      42.074  25.651  67.505  1.00  0.00     0.001 A
HETATM    9  C6  UNL     1      42.076  24.584  66.584  1.00  0.00     0.014 A
HETATM   10  C7  UNL     1      41.070  24.526  65.675  1.00  0.00     0.004 A
HETATM   11  C8  UNL     1      41.008  23.505  64.740  1.00  0.00     0.020 A
HETATM   12  C9  UNL     1      39.953  23.507  63.841  1.00  0.00     0.045 A
HETATM   13  C10 UNL     1      39.873  22.501  62.904  1.00  0.00     0.019 A
HETATM   14  C11 UNL     1      40.826  21.520  62.867  1.00  0.00     0.018 A
HETATM   15  C12 UNL     1      41.874  21.528  63.770  1.00  0.00     0.030 A
HETATM   16  C13 UNL     1      42.786  20.498  63.656  1.00  0.00     0.114 A
HETATM   17  S1  UNL     1      42.631  19.327  62.512  1.00  0.00    -0.059 SA
HETATM   18  N2  UNL     1      43.803  20.505  64.530  1.00  0.00    -0.343 N
ATOM     19  H2  UNL     1      44.500  19.762  64.483  1.00  0.00     0.167 HD
HETATM   20  C14 UNL     1      43.930  21.453  65.458  1.00  0.00     0.182 A
HETATM   21  N3  UNL     1      43.014  22.429  65.521  1.00  0.00    -0.351 N
ATOM     22  H3  UNL     1      43.132  23.143  66.239  1.00  0.00     0.166 HD
HETATM   23  C15 UNL     1      41.972  22.534  64.722  1.00  0.00     0.058 A
ENDROOT
TORSDOF 0
ENDMDL