MODEL 5
REMARK VINA RESULT: -9.869201897      2.242      6.380
REMARK  0 active torsions:
REMARK  status: ('A' for Active; 'I' for Inactive)
ROOT
HETATM    1  C1  UNL     1      38.750  26.804  67.079  1.00  0.00     0.072 C
HETATM    2  C2  UNL     1      39.389  25.817  66.438  1.00  0.00     0.139 A
HETATM    3  N1  UNL     1      40.611  25.373  66.892  1.00  0.00    -0.336 N
ATOM      4  H1  UNL     1      40.980  25.840  67.721  1.00  0.00     0.168 HD
HETATM    5  C3  UNL     1      41.442  24.314  66.328  1.00  0.00     0.064 A
HETATM    6  C4  UNL     1      42.685  24.237  66.716  1.00  0.00     0.072 A
HETATM    7  C5  UNL     1      43.390  25.188  67.595  1.00  0.00     0.259 A
HETATM    8  O1  UNL     1      43.038  26.425  67.714  1.00  0.00    -0.267 OA
HETATM    9  N2  UNL     1      44.467  24.637  68.276  1.00  0.00    -0.322 N
ATOM     10  H2  UNL     1      45.088  25.116  68.927  1.00  0.00     0.169 HD
HETATM   11  C6  UNL     1      44.531  23.280  67.886  1.00  0.00     0.046 A
HETATM   12  C7  UNL     1      45.385  22.321  68.396  1.00  0.00     0.030 A
HETATM   13  C8  UNL     1      45.268  20.997  68.042  1.00  0.00     0.002 A
HETATM   14  C9  UNL     1      44.264  20.684  67.167  1.00  0.00     0.001 A
HETATM   15  C10 UNL     1      43.434  21.664  66.676  1.00  0.00     0.015 A
HETATM   16  C11 UNL     1      43.500  22.994  66.974  1.00  0.00     0.009 A
HETATM   17  C12 UNL     1      40.817  23.742  65.141  1.00  0.00     0.026 A
HETATM   18  C13 UNL     1      41.431  22.797  64.365  1.00  0.00     0.016 A
HETATM   19  C14 UNL     1      40.902  22.257  63.217  1.00  0.00     0.001 A
HETATM   20  C15 UNL     1      39.665  22.696  62.801  1.00  0.00     0.003 A
HETATM   21  C16 UNL     1      39.037  23.659  63.552  1.00  0.00     0.038 A
HETATM   22  C17 UNL     1      39.567  24.215  64.701  1.00  0.00     0.090 A
HETATM   23  O2  UNL     1      38.852  25.219  65.319  1.00  0.00    -0.294 OA
ENDROOT
TORSDOF 0
ENDMDL