MODEL 1
REMARK VINA RESULT: -6.446823450      0.000      0.000
REMARK  9 active torsions:
REMARK  status: ('A' for Active; 'I' for Inactive)
REMARK    1  A    between atoms: C2_2  and  N1_3
REMARK    2  A    between atoms: N1_3  and  C3_4
REMARK    3  A    between atoms: N1_3  and  C5_6
REMARK    4  A    between atoms: C5_6  and  C6_7
REMARK    5  A    between atoms: C6_7  and  N2_8
REMARK    6  A    between atoms: N2_8  and  C7_10
REMARK    7  A    between atoms: C7_10  and  N3_12
REMARK    8  A    between atoms: N3_12  and  N4_14
REMARK    9  A    between atoms: C8_16  and  C9_17
ROOT
HETATM    1  N3  UNL     1      59.153  23.401  31.382  1.00  0.00    -0.277 N
ATOM      2  H3  UNL     1      59.110  22.757  32.172  1.00  0.00     0.189 HD
ENDROOT
BRANCH   1   3
HETATM    3  C7  UNL     1      60.086  23.177  30.321  1.00  0.00     0.186 C
HETATM    4  S1  UNL     1      61.359  22.202  30.596  1.00  0.00    -0.040 SA
BRANCH   3   5
HETATM    5  N2  UNL     1      59.946  23.815  29.061  1.00  0.00    -0.364 N
ATOM      6  H2  UNL     1      60.060  24.827  28.995  1.00  0.00     0.162 HD
BRANCH   5   7
HETATM    7  C6  UNL     1      59.650  23.068  27.891  1.00  0.00     0.152 C
BRANCH   7   8
HETATM    8  C5  UNL     1      58.255  22.668  27.733  1.00  0.00     0.292 C
BRANCH   8   9
HETATM    9  N1  UNL     1      57.767  21.465  28.252  1.00  0.00     0.089 N
BRANCH   9  10
HETATM   10  C2  UNL     1      56.619  21.901  29.136  1.00  0.00     0.268 C
HETATM   11  C1  UNL     1      56.181  23.264  28.686  1.00  0.00     0.037 C
ENDBRANCH   9  10
BRANCH   9  12
HETATM   12  C3  UNL     1      57.406  20.374  27.488  1.00  0.00     0.268 C
HETATM   13  C4  UNL     1      56.356  19.497  28.110  1.00  0.00     0.037 C
ENDBRANCH   9  12
ENDBRANCH   8   9
ENDBRANCH   7   8
ENDBRANCH   5   7
ENDBRANCH   3   5
ENDBRANCH   1   3
BRANCH   1  14
HETATM   14  N4  UNL     1      58.338  24.462  31.332  1.00  0.00    -0.309 N
HETATM   15  C8  UNL     1      57.263  24.802  31.844  1.00  0.00     0.116 C
ATOM     16  H4  UNL     1      58.698  25.182  30.706  1.00  0.00     0.186 HD
BRANCH  15  17
HETATM   17  C9  UNL     1      56.488  23.975  32.797  1.00  0.00    -0.016 C
HETATM   18  C10 UNL     1      55.363  23.119  32.373  1.00  0.00     0.052 C
HETATM   19  C11 UNL     1      56.857  24.027  34.064  1.00  0.00     0.054 C
HETATM   20  C12 UNL     1      56.265  23.317  35.196  1.00  0.00     0.069 C
HETATM   21  O1  UNL     1      57.952  24.853  34.420  1.00  0.00    -0.350 OA
HETATM   22  C13 UNL     1      57.434  22.694  35.969  1.00  0.00    -0.010 C
HETATM   23  C14 UNL     1      56.784  21.816  37.029  1.00  0.00     0.010 C
HETATM   24  C15 UNL     1      58.347  23.734  36.526  1.00  0.00     0.036 C
HETATM   25  C16 UNL     1      58.273  25.045  35.781  1.00  0.00     0.124 C
HETATM   26  C17 UNL     1      57.337  26.042  36.439  1.00  0.00     0.040 C
ENDBRANCH  15  17
ENDBRANCH   1  14
TORSDOF 9
ENDMDL