MODEL 4
REMARK VINA RESULT: -7.809724615      3.779      9.657
REMARK  10 active torsions:
REMARK  status: ('A' for Active; 'I' for Inactive)
REMARK    1  A    between atoms: O1_1  and  C1_3
REMARK    2  A    between atoms: C1_3  and  C2_4
REMARK    3  A    between atoms: C1_3  and  N1_13
REMARK    4  A    between atoms: C2_4  and  C3_5
REMARK    5  A    between atoms: C3_5  and  C4_6
REMARK    6  A    between atoms: C4_6  and  C5_7
REMARK    7  A    between atoms: N1_13  and  C11_14
REMARK    8  A    between atoms: C12_17  and  O2_18
REMARK    9  A    between atoms: O2_18  and  C13_19
REMARK   10  A    between atoms: C13_19  and  C14_20
ROOT
HETATM    1  C11 UNL     1      57.696  24.403  30.264  1.00  0.00     0.279 A
HETATM    2  N2  UNL     1      58.153  24.311  29.155  1.00  0.00    -0.280 N
ATOM      3  H2  UNL     1      59.089  24.706  29.061  1.00  0.00     0.173 HD
HETATM    4  C12 UNL     1      57.693  23.815  28.078  1.00  0.00     0.242 A
HETATM    5  N4  UNL     1      56.471  23.380  28.495  1.00  0.00    -0.261 N
ATOM      6  H4  UNL     1      55.777  22.913  27.912  1.00  0.00     0.190 HD
HETATM    7  N5  UNL     1      56.342  23.641  29.688  1.00  0.00    -0.256 N
ATOM      8  H5  UNL     1      55.518  23.420  30.245  1.00  0.00     0.191 HD
ENDROOT
BRANCH   1   9
HETATM    9  N1  UNL     1      57.201  24.490  31.417  1.00  0.00    -0.349 NA
BRANCH   9  10
HETATM   10  C1  UNL     1      56.712  24.613  32.583  1.00  0.00     0.193 C
BRANCH  10  11
HETATM   11  O1  UNL     1      56.649  25.745  33.234  1.00  0.00    -0.339 OA
ATOM     12  H1  UNL     1      56.818  26.511  32.697  1.00  0.00     0.220 HD
ENDBRANCH  10  11
BRANCH  10  13
HETATM   13  C2  UNL     1      56.142  23.424  33.349  1.00  0.00     0.100 C
BRANCH  13  14
HETATM   14  C3  UNL     1      57.317  22.701  33.994  1.00  0.00     0.010 C
BRANCH  14  15
HETATM   15  C4  UNL     1      58.116  23.697  34.844  1.00  0.00     0.005 C
BRANCH  15  16
HETATM   16  C5  UNL     1      58.059  23.293  36.281  1.00  0.00    -0.014 C
HETATM   17  C6  UNL     1      57.193  22.064  36.451  1.00  0.00     0.004 C
HETATM   18  C7  UNL     1      56.836  21.987  37.931  1.00  0.00     0.000 C
HETATM   19  C8  UNL     1      55.750  23.007  38.211  1.00  0.00     0.000 C
HETATM   20  C9  UNL     1      55.982  24.222  37.337  1.00  0.00     0.000 C
HETATM   21  C10 UNL     1      57.465  24.380  37.155  1.00  0.00     0.004 C
ENDBRANCH  15  16
ENDBRANCH  14  15
ENDBRANCH  13  14
ENDBRANCH  10  13
ENDBRANCH   9  10
ENDBRANCH   1   9
BRANCH   4  22
HETATM   22  O2  UNL     1      58.206  23.704  26.807  1.00  0.00    -0.321 OA
BRANCH  22  23
HETATM   23  C13 UNL     1      59.394  22.992  26.541  1.00  0.00     0.183 C
BRANCH  23  24
HETATM   24  C14 UNL     1      60.365  23.861  25.766  1.00  0.00     0.013 C
HETATM   25  C15 UNL     1      61.500  24.245  26.685  1.00  0.00     0.034 C
HETATM   26  C16 UNL     1      62.302  25.394  26.108  1.00  0.00     0.232 C
HETATM   27  N3  UNL     1      62.012  25.495  24.699  1.00  0.00    -0.075 N
HETATM   28  C17 UNL     1      60.650  25.925  24.445  1.00  0.00     0.232 C
ATOM     29  H32 UNL     1      62.683  26.102  24.228  1.00  0.00     0.277 HD
ATOM     30  H31 UNL     1      62.217  24.620  24.217  1.00  0.00     0.277 HD
HETATM   31  C18 UNL     1      59.695  25.118  25.301  1.00  0.00     0.034 C
ENDBRANCH  23  24
ENDBRANCH  22  23
ENDBRANCH   4  22
TORSDOF 10
ENDMDL