MODEL 4
REMARK VINA RESULT: -6.926396521      4.096     10.140
REMARK  8 active torsions:
REMARK  status: ('A' for Active; 'I' for Inactive)
REMARK    1  A    between atoms: C9_10  and  O2_12
REMARK    2  A    between atoms: C11_14  and  C12_15
REMARK    3  A    between atoms: C12_15  and  N1_16
REMARK    4  A    between atoms: N1_16  and  C13_18
REMARK    5  A    between atoms: C13_18  and  C14_19
REMARK    6  A    between atoms: C14_19  and  C15_20
REMARK    7  A    between atoms: C15_20  and  C16_21
REMARK    8  A    between atoms: C16_21  and  N2_22
ROOT
HETATM    1  C1  UNL     1      53.038  22.404  40.935  1.00  0.00     0.011 C
HETATM    2  C2  UNL     1      54.373  23.014  40.615  1.00  0.00    -0.007 C
HETATM    3  C3  UNL     1      54.389  24.523  40.838  1.00  0.00     0.083 C
HETATM    4  C4  UNL     1      55.212  25.086  39.726  1.00  0.00     0.132 C
HETATM    5  O1  UNL     1      55.255  26.278  39.488  1.00  0.00    -0.298 OA
HETATM    6  C5  UNL     1      55.858  23.938  39.100  1.00  0.00     0.068 C
HETATM    7  C6  UNL     1      54.680  22.947  39.145  1.00  0.00     0.001 C
HETATM    8  C7  UNL     1      55.122  21.630  38.649  1.00  0.00     0.009 C
HETATM    9  C8  UNL     1      56.511  21.556  38.142  1.00  0.00     0.038 C
HETATM   10  C9  UNL     1      57.003  22.725  37.362  1.00  0.00     0.060 C
HETATM   11  C10 UNL     1      58.474  22.926  37.757  1.00  0.00     0.046 C
HETATM   12  C11 UNL     1      56.259  24.024  37.694  1.00  0.00     0.048 C
ENDROOT
BRANCH  12  13
HETATM   13  C12 UNL     1      57.146  25.179  37.309  1.00  0.00     0.122 C
BRANCH  13  14
HETATM   14  N1  UNL     1      56.968  25.358  35.883  1.00  0.00    -0.421 N
ATOM     15  H1  UNL     1      56.281  24.825  35.350  1.00  0.00     0.153 HD
BRANCH  14  16
HETATM   16  C13 UNL     1      57.813  26.326  35.274  1.00  0.00     0.114 C
BRANCH  16  17
HETATM   17  C14 UNL     1      57.831  26.125  33.754  1.00  0.00     0.024 C
BRANCH  17  18
HETATM   18  C15 UNL     1      57.084  24.880  33.440  1.00  0.00     0.046 C
BRANCH  18  19
HETATM   19  C16 UNL     1      57.640  24.031  32.353  1.00  0.00     0.058 C
BRANCH  19  20
HETATM   20  N2  UNL     1      56.975  24.084  31.142  1.00  0.00    -0.393 N
HETATM   21  C17 UNL     1      56.133  23.111  30.674  1.00  0.00     0.122 C
HETATM   22  C18 UNL     1      56.361  22.963  29.158  1.00  0.00     0.021 C
HETATM   23  C19 UNL     1      57.066  24.235  28.798  1.00  0.00     0.021 C
HETATM   24  C20 UNL     1      57.699  24.740  30.067  1.00  0.00     0.122 C
ENDBRANCH  19  20
ENDBRANCH  18  19
ENDBRANCH  17  18
ENDBRANCH  16  17
ENDBRANCH  14  16
ENDBRANCH  13  14
ENDBRANCH  12  13
BRANCH  10  25
HETATM   25  O2  UNL     1      56.951  22.546  35.984  1.00  0.00    -0.390 OA
ATOM     26  H2  UNL     1      57.774  22.716  35.542  1.00  0.00     0.210 HD
ENDBRANCH  10  25
TORSDOF 8
ENDMDL