MODEL 3
REMARK VINA RESULT: -7.863034254      1.247      1.358
REMARK  7 active torsions:
REMARK  status: ('A' for Active; 'I' for Inactive)
REMARK    1  A    between atoms: C5_5  and  C6_6
REMARK    2  A    between atoms: C6_6  and  C7_7
REMARK    3  A    between atoms: C7_7  and  C8_8
REMARK    4  A    between atoms: C8_8  and  N1_9
REMARK    5  A    between atoms: C11_12  and  N2_13
REMARK    6  A    between atoms: N2_13  and  C12_15
REMARK    7  A    between atoms: C12_15  and  C13_16
ROOT
HETATM    1  N1  UNL     1      56.908  23.307  35.423  1.00  0.00    -0.393 N
HETATM    2  C9  UNL     1      57.419  22.477  36.437  1.00  0.00     0.123 C
HETATM    3  C10 UNL     1      56.488  22.556  37.672  1.00  0.00     0.044 C
HETATM    4  C11 UNL     1      55.933  23.961  37.688  1.00  0.00     0.079 C
HETATM    5  C17 UNL     1      56.994  24.914  37.171  1.00  0.00     0.044 C
HETATM    6  C18 UNL     1      57.089  24.725  35.671  1.00  0.00     0.123 C
ENDROOT
BRANCH   4   7
HETATM    7  N2  UNL     1      55.399  24.371  38.949  1.00  0.00    -0.414 N
ATOM      8  H2  UNL     1      54.694  23.828  39.445  1.00  0.00     0.153 HD
BRANCH   7   9
HETATM    9  C12 UNL     1      55.924  25.596  39.465  1.00  0.00     0.147 C
BRANCH   9  10
HETATM   10  C13 UNL     1      55.545  25.650  40.950  1.00  0.00     0.164 C
HETATM   11  C14 UNL     1      54.286  24.810  41.180  1.00  0.00     0.265 C
HETATM   12  N3  UNL     1      53.353  25.603  41.996  1.00  0.00    -0.071 N
HETATM   13  C15 UNL     1      54.125  26.087  43.129  1.00  0.00     0.258 C
ATOM     14  H32 UNL     1      52.885  26.345  41.475  1.00  0.00     0.277 HD
ATOM     15  H31 UNL     1      52.511  25.092  42.265  1.00  0.00     0.277 HD
HETATM   16  C16 UNL     1      55.038  27.184  42.599  1.00  0.00     0.196 C
HETATM   17  O1  UNL     1      55.269  26.979  41.247  1.00  0.00    -0.381 OA
ENDBRANCH   9  10
ENDBRANCH   7   9
ENDBRANCH   4   7
BRANCH   1  18
HETATM   18  C8  UNL     1      56.866  22.933  34.088  1.00  0.00     0.058 C
BRANCH  18  19
HETATM   19  C7  UNL     1      56.310  23.832  33.044  1.00  0.00     0.044 C
BRANCH  19  20
HETATM   20  C6  UNL     1      55.819  23.123  31.858  1.00  0.00     0.009 C
BRANCH  20  21
HETATM   21  C5  UNL     1      56.361  23.684  30.538  1.00  0.00    -0.014 C
HETATM   22  C4  UNL     1      56.445  22.685  29.468  1.00  0.00     0.004 C
HETATM   23  C3  UNL     1      57.772  22.397  28.852  1.00  0.00     0.000 C
HETATM   24  C2  UNL     1      58.422  23.586  28.227  1.00  0.00     0.000 C
HETATM   25  C1  UNL     1      59.301  24.339  29.173  1.00  0.00     0.000 C
HETATM   26  C20 UNL     1      58.880  24.023  30.590  1.00  0.00     0.000 C
HETATM   27  C19 UNL     1      57.514  24.557  30.814  1.00  0.00     0.004 C
ENDBRANCH  20  21
ENDBRANCH  19  20
ENDBRANCH  18  19
ENDBRANCH   1  18
TORSDOF 7
ENDMDL