MODEL 4
REMARK VINA RESULT: -7.019387946      1.581      2.721
REMARK  13 active torsions:
REMARK  status: ('A' for Active; 'I' for Inactive)
REMARK    1  A    between atoms: C2_2  and  C3_3
REMARK    2  A    between atoms: C3_3  and  N1_4
REMARK    3  A    between atoms: N1_4  and  C4_6
REMARK    4  A    between atoms: C4_6  and  O1_7
REMARK    5  A    between atoms: C4_6  and  N2_9
REMARK    6  A    between atoms: N2_9  and  C5_11
REMARK    7  A    between atoms: C5_11  and  O2_12
REMARK    8  A    between atoms: C5_11  and  C6_14
REMARK    9  A    between atoms: C6_14  and  O3_15
REMARK   10  A    between atoms: O3_15  and  C7_16
REMARK   11  A    between atoms: C7_16  and  C8_18
REMARK   12  A    between atoms: C8_18  and  C9_19
REMARK   13  A    between atoms: C11_21  and  C12_22
ROOT
HETATM    1  C6  UNL     1      56.501  23.203  34.156  1.00  0.00     0.262 C
ENDROOT
BRANCH   1   2
HETATM    2  C5  UNL     1      56.580  23.418  32.729  1.00  0.00     0.143 C
BRANCH   2   3
HETATM    3  N2  UNL     1      57.555  24.044  31.970  1.00  0.00    -0.305 N
ATOM      4  H2  UNL     1      58.488  23.634  32.031  1.00  0.00     0.171 HD
BRANCH   3   5
HETATM    5  C4  UNL     1      57.441  25.159  31.132  1.00  0.00     0.218 C
BRANCH   5   6
HETATM    6  N1  UNL     1      57.429  25.185  29.732  1.00  0.00    -0.353 N
ATOM      7  H1  UNL     1      57.185  26.033  29.220  1.00  0.00     0.163 HD
BRANCH   6   8
HETATM    8  C3  UNL     1      57.786  23.933  29.025  1.00  0.00     0.149 C
BRANCH   8   9
HETATM    9  C2  UNL     1      56.547  23.229  28.669  1.00  0.00    -0.018 C
HETATM   10  C1  UNL     1      56.434  21.909  28.740  1.00  0.00     0.008 C
ENDBRANCH   8   9
ENDBRANCH   6   8
ENDBRANCH   5   6
BRANCH   5  11
HETATM   11  O1  UNL     1      57.333  26.323  31.715  1.00  0.00    -0.332 OA
ATOM     12  H1  UNL     1      56.862  26.323  32.541  1.00  0.00     0.220 HD
ENDBRANCH   5  11
ENDBRANCH   3   5
ENDBRANCH   2   3
BRANCH   2  13
HETATM   13  O2  UNL     1      55.580  22.952  32.035  1.00  0.00    -0.348 OA
ATOM     14  H2  UNL     1      55.206  22.151  32.380  1.00  0.00     0.219 HD
ENDBRANCH   2  13
ENDBRANCH   1   2
BRANCH   1  15
HETATM   15  O3  UNL     1      56.256  24.396  34.899  1.00  0.00    -0.313 OA
BRANCH  15  16
HETATM   16  C7  UNL     1      57.222  25.221  35.416  1.00  0.00     0.259 C
HETATM   17  O4  UNL     1      58.050  25.751  34.638  1.00  0.00    -0.265 OA
BRANCH  16  18
HETATM   18  C8  UNL     1      57.326  25.514  36.873  1.00  0.00     0.121 C
BRANCH  18  19
HETATM   19  C9  UNL     1      57.315  24.260  37.706  1.00  0.00    -0.020 A
HETATM   20  C10 UNL     1      58.401  23.274  37.393  1.00  0.00     0.017 C
HETATM   21  C11 UNL     1      55.996  23.630  38.074  1.00  0.00     0.026 A
HETATM   22  C16 UNL     1      56.768  24.385  39.080  1.00  0.00    -0.032 A
HETATM   23  C17 UNL     1      57.549  23.693  40.159  1.00  0.00     0.016 C
HETATM   24  C18 UNL     1      56.186  25.720  39.478  1.00  0.00     0.016 C
BRANCH  21  25
HETATM   25  C12 UNL     1      55.931  22.160  38.274  1.00  0.00    -0.019 C
HETATM   26  C13 UNL     1      54.842  21.542  38.684  1.00  0.00    -0.091 C
HETATM   27  C14 UNL     1      54.829  20.073  38.867  1.00  0.00     0.042 C
HETATM   28  C15 UNL     1      53.609  22.315  38.969  1.00  0.00     0.042 C
ENDBRANCH  21  25
ENDBRANCH  18  19
ENDBRANCH  16  18
ENDBRANCH  15  16
ENDBRANCH   1  15
TORSDOF 13
ENDMDL