MODEL 3
REMARK VINA RESULT: -6.321044797      5.897     12.305
REMARK  8 active torsions:
REMARK  status: ('A' for Active; 'I' for Inactive)
REMARK    1  A    between atoms: N1_2  and  C3_4
REMARK    2  A    between atoms: C3_4  and  C4_5
REMARK    3  A    between atoms: C4_5  and  C5_6
REMARK    4  A    between atoms: C5_6  and  N2_7
REMARK    5  A    between atoms: C7_12  and  C8_13
REMARK    6  A    between atoms: C8_13  and  C11_16
REMARK    7  A    between atoms: C11_16  and  N4_17
REMARK    8  A    between atoms: C15_21  and  C16_22
ROOT
HETATM    1  N2  UNL     1      56.740  24.544  36.919  1.00  0.00    -0.226 N
ATOM      2  H2  UNL     1      56.752  23.646  36.437  1.00  0.00     0.177 HD
HETATM    3  C6  UNL     1      56.117  24.324  37.952  1.00  0.00     0.678 A
HETATM    4  N3  UNL     1      55.817  25.214  38.946  1.00  0.00    -0.195 N
ATOM      5  H3  UNL     1      56.080  26.190  38.806  1.00  0.00     0.184 HD
HETATM    6  C7  UNL     1      55.204  24.891  40.085  1.00  0.00     0.038 A
HETATM    7  C14 UNL     1      54.860  23.534  40.236  1.00  0.00     0.052 A
HETATM    8  C15 UNL     1      55.143  22.588  39.266  1.00  0.00     0.036 A
HETATM    9  N5  UNL     1      55.753  23.023  38.174  1.00  0.00    -0.195 N
ATOM     10  H5  UNL     1      55.966  22.340  37.447  1.00  0.00     0.184 HD
ENDROOT
BRANCH   1  11
HETATM   11  C5  UNL     1      57.425  25.381  36.088  1.00  0.00     0.140 C
BRANCH  11  12
HETATM   12  C4  UNL     1      57.805  24.554  34.824  1.00  0.00     0.050 C
BRANCH  12  13
HETATM   13  C3  UNL     1      56.633  23.855  34.280  1.00  0.00     0.273 C
BRANCH  13  14
HETATM   14  N1  UNL     1      56.398  24.117  32.890  1.00  0.00     0.080 N
HETATM   15  C1  UNL     1      55.455  23.213  32.283  1.00  0.00     0.309 C
HETATM   16  C2  UNL     1      57.694  24.087  32.183  1.00  0.00     0.309 C
ENDBRANCH  13  14
ENDBRANCH  12  13
ENDBRANCH  11  12
ENDBRANCH   1  11
BRANCH   6  17
HETATM   17  C8  UNL     1      54.942  25.799  41.238  1.00  0.00     0.022 C
HETATM   18  C9  UNL     1      53.790  25.089  41.975  1.00  0.00     0.023 C
HETATM   19  C10 UNL     1      54.306  27.085  40.760  1.00  0.00     0.023 C
BRANCH  17  20
HETATM   20  C11 UNL     1      56.063  26.115  42.131  1.00  0.00     0.286 C
BRANCH  20  21
HETATM   21  N4  UNL     1      56.818  25.115  42.757  1.00  0.00     0.081 N
HETATM   22  C12 UNL     1      56.922  25.343  44.218  1.00  0.00     0.309 C
HETATM   23  C13 UNL     1      58.215  25.224  42.295  1.00  0.00     0.309 C
ENDBRANCH  20  21
ENDBRANCH  17  20
ENDBRANCH   6  17
BRANCH   8  24
HETATM   24  C16 UNL     1      54.848  21.136  39.509  1.00  0.00    -0.008 C
HETATM   25  C17 UNL     1      53.682  20.588  38.790  1.00  0.00     0.021 C
HETATM   26  C18 UNL     1      56.128  20.362  39.047  1.00  0.00     0.021 C
HETATM   27  C19 UNL     1      54.745  20.931  40.994  1.00  0.00     0.021 C
ENDBRANCH   8  24
TORSDOF 8
ENDMDL