MODEL 4
REMARK VINA RESULT: -6.325390867      2.128      3.941
REMARK  9 active torsions:
REMARK  status: ('A' for Active; 'I' for Inactive)
REMARK    1  A    between atoms: C2_2  and  C3_3
REMARK    2  A    between atoms: C3_3  and  C4_4
REMARK    3  A    between atoms: C4_4  and  N1_5
REMARK    4  A    between atoms: N1_5  and  C5_7
REMARK    5  A    between atoms: C9_13  and  N3_14
REMARK    6  A    between atoms: N3_14  and  C10_15
REMARK    7  A    between atoms: N3_14  and  C14_19
REMARK    8  A    between atoms: C10_15  and  C11_16
REMARK    9  A    between atoms: C11_16  and  C12_17
ROOT
HETATM    1  C5  UNL     1      57.846  24.909  41.649  1.00  0.00     0.679 A
HETATM    2  N2  UNL     1      58.952  24.194  41.873  1.00  0.00    -0.196 N
ATOM      3  H2  UNL     1      59.489  24.391  42.717  1.00  0.00     0.184 HD
HETATM    4  C6  UNL     1      59.394  23.235  41.054  1.00  0.00     0.026 A
HETATM    5  C7  UNL     1      60.622  22.487  41.378  1.00  0.00     0.069 C
HETATM    6  C8  UNL     1      58.637  22.985  39.901  1.00  0.00     0.074 A
HETATM    7  C9  UNL     1      57.501  23.692  39.633  1.00  0.00     0.121 A
HETATM    8  N5  UNL     1      57.137  24.636  40.516  1.00  0.00    -0.177 N
ATOM      9  H5  UNL     1      56.291  25.174  40.331  1.00  0.00     0.185 HD
ENDROOT
BRANCH   7  10
HETATM   10  N3  UNL     1      56.724  23.495  38.482  1.00  0.00    -0.362 N
BRANCH  10  11
HETATM   11  C10 UNL     1      55.302  23.430  38.388  1.00  0.00     0.125 C
BRANCH  11  12
HETATM   12  C11 UNL     1      54.591  22.468  39.270  1.00  0.00     0.019 C
BRANCH  12  13
HETATM   13  C12 UNL     1      54.466  21.074  38.736  1.00  0.00    -0.003 C
HETATM   14  C13 UNL     1      55.689  20.254  39.115  1.00  0.00     0.005 C
ENDBRANCH  12  13
ENDBRANCH  11  12
ENDBRANCH  10  11
BRANCH  10  15
HETATM   15  C14 UNL     1      57.482  23.416  37.228  1.00  0.00     0.088 C
HETATM   16  C15 UNL     1      56.722  22.743  36.126  1.00  0.00     0.032 C
HETATM   17  C16 UNL     1      57.652  23.012  34.935  1.00  0.00     0.020 C
HETATM   18  C17 UNL     1      56.835  22.959  33.677  1.00  0.00     0.034 C
HETATM   19  C19 UNL     1      58.048  24.440  35.168  1.00  0.00     0.192 C
HETATM   20  C18 UNL     1      56.897  24.394  33.199  1.00  0.00     0.233 C
HETATM   21  N4  UNL     1      57.074  25.198  34.404  1.00  0.00    -0.070 N
ATOM     22  H42 UNL     1      57.333  26.170  34.232  1.00  0.00     0.277 HD
ATOM     23  H41 UNL     1      56.211  25.408  34.906  1.00  0.00     0.277 HD
HETATM   24  C20 UNL     1      57.797  24.746  36.642  1.00  0.00     0.058 C
ENDBRANCH  10  15
ENDBRANCH   7  10
BRANCH   1  25
HETATM   25  N1  UNL     1      57.435  25.813  42.441  1.00  0.00    -0.226 N
ATOM     26  H1  UNL     1      57.994  26.661  42.525  1.00  0.00     0.177 HD
BRANCH  25  27
HETATM   27  C4  UNL     1      56.245  25.721  43.218  1.00  0.00     0.138 C
BRANCH  27  28
HETATM   28  C3  UNL     1      55.480  27.014  43.175  1.00  0.00     0.020 C
BRANCH  28  29
HETATM   29  C2  UNL     1      54.793  27.171  41.815  1.00  0.00    -0.003 C
HETATM   30  C1  UNL     1      54.028  25.940  41.445  1.00  0.00     0.005 C
ENDBRANCH  28  29
ENDBRANCH  27  28
ENDBRANCH  25  27
ENDBRANCH   1  25
TORSDOF 9
ENDMDL