MODEL 4
REMARK VINA RESULT: -7.047057872      0.882      2.347
REMARK  8 active torsions:
REMARK  status: ('A' for Active; 'I' for Inactive)
REMARK    1  A    between atoms: C2_2  and  C4_4
REMARK    2  A    between atoms: C4_4  and  N1_5
REMARK    3  A    between atoms: C6_7  and  O1_8
REMARK    4  A    between atoms: C8_11  and  C9_12
REMARK    5  A    between atoms: C8_11  and  C10_15
REMARK    6  A    between atoms: C9_12  and  O2_13
REMARK    7  A    between atoms: C11_16  and  C12_17
REMARK    8  A    between atoms: C12_17  and  N2_18
ROOT
HETATM    1  N1  UNL     1      57.888  24.731  32.422  1.00  0.00     0.092 N
HETATM    2  C5  UNL     1      57.815  26.102  32.807  1.00  0.00     0.303 C
HETATM    3  C6  UNL     1      57.760  26.160  34.369  1.00  0.00     0.147 C
HETATM    4  C7  UNL     1      56.916  24.972  34.732  1.00  0.00     0.051 C
HETATM    5  C8  UNL     1      57.620  23.669  34.656  1.00  0.00     0.027 C
HETATM    6  C20 UNL     1      58.569  23.912  33.362  1.00  0.00     0.288 C
ENDROOT
BRANCH   5   7
HETATM    7  C9  UNL     1      56.704  22.615  34.094  1.00  0.00     0.179 C
BRANCH   7   8
HETATM    8  O2  UNL     1      55.607  23.089  33.438  1.00  0.00    -0.400 OA
ATOM      9  H2  UNL     1      55.160  23.809  33.866  1.00  0.00     0.209 HD
ENDBRANCH   7   8
ENDBRANCH   5   7
BRANCH   5  10
HETATM   10  C10 UNL     1      58.596  23.315  35.666  1.00  0.00    -0.015 C
HETATM   11  C11 UNL     1      58.635  23.670  37.061  1.00  0.00     0.011 C
BRANCH  11  12
HETATM   12  C12 UNL     1      57.590  23.362  38.050  1.00  0.00     0.177 C
HETATM   13  C17 UNL     1      57.636  22.050  38.718  1.00  0.00     0.046 C
HETATM   14  C18 UNL     1      56.367  21.565  38.096  1.00  0.00     0.006 C
HETATM   15  C19 UNL     1      56.378  22.780  37.221  1.00  0.00     0.046 C
BRANCH  12  16
HETATM   16  N2  UNL     1      57.134  24.501  38.807  1.00  0.00     0.101 N
HETATM   17  C13 UNL     1      57.257  24.359  40.216  1.00  0.00     0.274 C
HETATM   18  C14 UNL     1      56.588  25.643  40.727  1.00  0.00     0.032 C
HETATM   19  C15 UNL     1      55.626  26.007  39.635  1.00  0.00     0.032 C
HETATM   20  C16 UNL     1      55.783  24.882  38.599  1.00  0.00     0.274 C
ENDBRANCH  12  16
ENDBRANCH  11  12
ENDBRANCH   5  10
BRANCH   3  21
HETATM   21  O1  UNL     1      57.069  27.322  34.706  1.00  0.00    -0.394 OA
ATOM     22  H1  UNL     1      56.405  27.073  35.339  1.00  0.00     0.210 HD
ENDBRANCH   3  21
BRANCH   1  23
HETATM   23  C4  UNL     1      58.455  24.564  31.128  1.00  0.00     0.276 C
BRANCH  23  24
HETATM   24  C2  UNL     1      57.550  24.378  29.972  1.00  0.00     0.006 C
HETATM   25  C1  UNL     1      56.446  23.383  30.090  1.00  0.00     0.011 C
HETATM   26  C3  UNL     1      58.336  24.182  28.675  1.00  0.00     0.011 C
ENDBRANCH  23  24
ENDBRANCH   1  23
TORSDOF 8
ENDMDL