MODEL 2
REMARK VINA RESULT: -7.941084994      0.460      1.077
REMARK  8 active torsions:
REMARK  status: ('A' for Active; 'I' for Inactive)
REMARK    1  A    between atoms: C2_2  and  C4_4
REMARK    2  A    between atoms: C2_2  and  C20_25
REMARK    3  A    between atoms: C5_5  and  C7_8
REMARK       I    between atoms: C7_8  and  N2_10
REMARK    4  A    between atoms: N2_10  and  C8_12
REMARK    5  A    between atoms: C8_12  and  C9_13
REMARK    6  A    between atoms: N3_17  and  C13_18
REMARK    7  A    between atoms: C13_18  and  C14_19
REMARK    8  A    between atoms: C20_25  and  O2_26
ROOT
HETATM    1  C4  UNL     1      56.962  23.413  35.276  1.00  0.00     0.012 C
HETATM    2  C5  UNL     1      57.153  24.425  34.483  1.00  0.00     0.109 C
HETATM    3  C6  UNL     1      57.627  25.685  34.962  1.00  0.00     0.105 C
HETATM    4  N1  UNL     1      58.021  26.731  35.334  1.00  0.00    -0.191 NA
ENDROOT
BRANCH   2   5
HETATM    5  C7  UNL     1      56.884  24.310  33.060  1.00  0.00     0.262 C
HETATM    6  O1  UNL     1      55.871  23.606  32.721  1.00  0.00    -0.267 OA
HETATM    7  N2  UNL     1      57.690  24.934  32.073  1.00  0.00    -0.354 N
ATOM      8  H2  UNL     1      58.497  25.491  32.355  1.00  0.00     0.162 HD
BRANCH   7   9
HETATM    9  C8  UNL     1      57.377  24.787  30.676  1.00  0.00     0.148 C
BRANCH   9  10
HETATM   10  C9  UNL     1      58.178  23.634  30.052  1.00  0.00     0.106 C
HETATM   11  C10 UNL     1      59.631  24.061  30.150  1.00  0.00     0.032 C
HETATM   12  C11 UNL     1      60.046  24.447  28.752  1.00  0.00     0.047 C
HETATM   13  C12 UNL     1      58.837  24.158  27.885  1.00  0.00     0.063 C
HETATM   14  N3  UNL     1      57.844  23.589  28.682  1.00  0.00    -0.367 N
BRANCH  14  15
HETATM   15  C13 UNL     1      56.950  22.634  28.204  1.00  0.00     0.068 C
BRANCH  15  16
HETATM   16  C14 UNL     1      57.098  21.225  28.695  1.00  0.00     0.024 C
HETATM   17  C15 UNL     1      55.883  20.378  28.376  1.00  0.00     0.010 C
HETATM   18  C16 UNL     1      56.162  19.356  27.314  1.00  0.00     0.001 C
HETATM   19  C17 UNL     1      57.312  18.451  27.568  1.00  0.00     0.000 C
HETATM   20  C18 UNL     1      58.354  19.083  28.434  1.00  0.00     0.001 C
HETATM   21  C19 UNL     1      58.354  20.573  28.150  1.00  0.00     0.010 C
ENDBRANCH  15  16
ENDBRANCH  14  15
ENDBRANCH   9  10
ENDBRANCH   7   9
ENDBRANCH   2   5
BRANCH   1  22
HETATM   22  C2  UNL     1      57.168  23.323  36.720  1.00  0.00    -0.007 C
HETATM   23  C1  UNL     1      56.809  21.890  37.157  1.00  0.00     0.021 C
HETATM   24  C3  UNL     1      58.593  23.528  37.140  1.00  0.00     0.021 C
BRANCH  22  25
HETATM   25  C20 UNL     1      56.229  24.211  37.505  1.00  0.00     0.176 C
BRANCH  25  26
HETATM   26  O2  UNL     1      56.817  25.326  38.048  1.00  0.00    -0.400 OA
ATOM     27  H2  UNL     1      56.224  26.054  38.197  1.00  0.00     0.209 HD
ENDBRANCH  25  26
ENDBRANCH  22  25
ENDBRANCH   1  22
TORSDOF 8
ENDMDL