MODEL 1
REMARK VINA RESULT: -7.999424314      0.000      0.000
REMARK  8 active torsions:
REMARK  status: ('A' for Active; 'I' for Inactive)
REMARK    1  A    between atoms: O1_2  and  C2_3
REMARK    2  A    between atoms: C2_3  and  N1_4
REMARK    3  A    between atoms: N1_4  and  C3_7
REMARK    4  A    between atoms: C5_9  and  O2_10
REMARK    5  A    between atoms: O2_10  and  C6_11
REMARK    6  A    between atoms: C6_11  and  C9_14
REMARK       I    between atoms: C9_14  and  N2_16
REMARK    7  A    between atoms: N2_16  and  C10_18
REMARK    8  A    between atoms: C10_18  and  C11_19
ROOT
HETATM    1  C9  UNL     1      57.587  25.551  35.150  1.00  0.00     0.251 C
HETATM    2  O3  UNL     1      58.168  26.573  35.583  1.00  0.00    -0.270 OA
HETATM    3  N2  UNL     1      56.865  24.750  36.058  1.00  0.00    -0.358 N
ATOM      4  H2  UNL     1      56.382  23.911  35.738  1.00  0.00     0.162 HD
ENDROOT
BRANCH   1   5
HETATM    5  C6  UNL     1      57.648  25.177  33.708  1.00  0.00     0.134 C
HETATM    6  C7  UNL     1      58.273  26.321  32.898  1.00  0.00     0.056 C
HETATM    7  C8  UNL     1      58.604  24.009  33.571  1.00  0.00     0.056 C
BRANCH   5   8
HETATM    8  O2  UNL     1      56.449  24.806  33.175  1.00  0.00    -0.364 OA
BRANCH   8   9
HETATM    9  C5  UNL     1      56.383  23.593  32.561  1.00  0.00     0.156 A
HETATM   10  C3  UNL     1      55.974  23.643  31.100  1.00  0.00     0.219 A
HETATM   11  C4  UNL     1      55.115  22.981  32.107  1.00  0.00     0.070 A
BRANCH  10  12
HETATM   12  N1  UNL     1      56.684  22.920  30.101  1.00  0.00    -0.048 N
ATOM     13  H12 UNL     1      56.785  21.943  30.375  1.00  0.00     0.280 HD
ATOM     14  H11 UNL     1      57.664  23.202  30.089  1.00  0.00     0.280 HD
BRANCH  12  15
HETATM   15  C2  UNL     1      56.122  23.014  28.780  1.00  0.00     0.399 C
BRANCH  15  16
HETATM   16  O1  UNL     1      56.701  24.023  28.054  1.00  0.00    -0.369 OA
HETATM   17  C1  UNL     1      58.071  24.004  27.994  1.00  0.00     0.203 C
ENDBRANCH  15  16
ENDBRANCH  12  15
ENDBRANCH  10  12
ENDBRANCH   8   9
ENDBRANCH   5   8
ENDBRANCH   1   5
BRANCH   3  18
HETATM   18  C10 UNL     1      56.821  25.136  37.450  1.00  0.00     0.132 C
BRANCH  18  19
HETATM   19  C11 UNL     1      56.620  23.969  38.376  1.00  0.00    -0.023 C
HETATM   20  C12 UNL     1      55.374  23.232  37.883  1.00  0.00     0.015 C
HETATM   21  C13 UNL     1      55.012  22.084  38.775  1.00  0.00    -0.013 C
HETATM   22  C14 UNL     1      56.162  21.104  38.750  1.00  0.00     0.009 C
HETATM   23  C18 UNL     1      54.784  22.619  40.163  1.00  0.00     0.009 C
HETATM   24  C15 UNL     1      57.403  21.802  39.222  1.00  0.00    -0.013 C
HETATM   25  C16 UNL     1      57.161  22.233  40.662  1.00  0.00     0.009 C
HETATM   26  C20 UNL     1      57.759  23.002  38.380  1.00  0.00     0.015 C
HETATM   27  C17 UNL     1      56.056  23.259  40.669  1.00  0.00    -0.013 C
HETATM   28  C19 UNL     1      56.384  24.445  39.795  1.00  0.00     0.015 C
ENDBRANCH  18  19
ENDBRANCH   3  18
TORSDOF 8
ENDMDL