MODEL 1
REMARK VINA RESULT: -6.733243477      0.000      0.000
REMARK  7 active torsions:
REMARK  status: ('A' for Active; 'I' for Inactive)
REMARK    1  A    between atoms: N1_4  and  N2_6
REMARK    2  A    between atoms: N2_6  and  C4_7
REMARK    3  A    between atoms: C6_12  and  N4_13
REMARK    4  A    between atoms: N4_13  and  C7_15
REMARK    5  A    between atoms: C7_15  and  C8_16
REMARK    6  A    between atoms: C8_16  and  O2_17
REMARK    7  A    between atoms: C10_23  and  C11_24
ROOT
HETATM    1  C4  UNL     1      19.198  47.422 -53.689  1.00  0.00     0.224 C
HETATM    2  N3  UNL     1      18.967  47.112 -54.919  1.00  0.00    -0.292 N
ATOM      3  H3  UNL     1      19.754  46.605 -55.324  1.00  0.00     0.172 HD
HETATM    4  C5  UNL     1      17.966  47.274 -55.830  1.00  0.00     0.291 C
HETATM    5  O1  UNL     1      18.453  47.539 -56.960  1.00  0.00    -0.264 OA
HETATM    6  C6  UNL     1      16.627  47.182 -55.611  1.00  0.00     0.172 C
HETATM    7  N5  UNL     1      16.086  46.793 -54.458  1.00  0.00    -0.326 N
ATOM      8  H5  UNL     1      15.069  46.712 -54.441  1.00  0.00     0.168 HD
HETATM    9  C9  UNL     1      16.735  46.490 -53.297  1.00  0.00     0.137 C
HETATM   10  N6  UNL     1      15.870  45.782 -52.380  1.00  0.00    -0.081 NA
HETATM   11  C10 UNL     1      17.970  46.716 -52.908  1.00  0.00     0.112 C
ENDROOT
BRANCH  11  12
HETATM   12  C11 UNL     1      18.365  46.263 -51.604  1.00  0.00     0.155 A
HETATM   13  N7  UNL     1      19.196  45.149 -51.427  1.00  0.00    -0.268 N
HETATM   14  N8  UNL     1      19.251  44.979 -50.090  1.00  0.00    -0.227 N
ATOM     15  H7  UNL     1      19.656  44.592 -52.148  1.00  0.00     0.190 HD
HETATM   16  N9  UNL     1      18.537  45.879 -49.457  1.00  0.00    -0.227 N
ATOM     17  H8  UNL     1      19.782  44.240 -49.629  1.00  0.00     0.210 HD
HETATM   18  N10 UNL     1      18.006  46.649 -50.376  1.00  0.00    -0.268 N
ATOM     19  H9  UNL     1      18.419  45.963 -48.447  1.00  0.00     0.210 HD
ATOM     20  H10 UNL     1      17.396  47.442 -50.178  1.00  0.00     0.190 HD
ENDBRANCH  11  12
BRANCH   1  21
HETATM   21  N2  UNL     1      19.673  47.876 -52.780  1.00  0.00    -0.306 NA
BRANCH  21  22
HETATM   22  N1  UNL     1      20.461  48.499 -51.943  1.00  0.00    -0.243 N
HETATM   23  C2  UNL     1      20.258  49.515 -51.143  1.00  0.00     0.009 C
HETATM   24  C1  UNL     1      21.417  49.936 -50.352  1.00  0.00     0.065 C
HETATM   25  C3  UNL     1      18.925  50.154 -51.137  1.00  0.00     0.065 C
ATOM     26  H1  UNL     1      21.409  48.124 -51.907  1.00  0.00     0.201 HD
ENDBRANCH  21  22
ENDBRANCH   1  21
BRANCH   6  27
HETATM   27  N4  UNL     1      15.992  47.551 -56.611  1.00  0.00    -0.370 N
ATOM     28  H4  UNL     1      15.806  46.837 -57.317  1.00  0.00     0.161 HD
BRANCH  27  29
HETATM   29  C7  UNL     1      15.480  48.891 -56.895  1.00  0.00     0.147 C
BRANCH  29  30
HETATM   30  C8  UNL     1      15.486  49.060 -58.396  1.00  0.00     0.183 C
BRANCH  30  31
HETATM   31  O2  UNL     1      16.802  49.348 -58.791  1.00  0.00    -0.399 OA
ATOM     32  H2  UNL     1      16.848  50.275 -58.993  1.00  0.00     0.209 HD
ENDBRANCH  30  31
ENDBRANCH  29  30
ENDBRANCH  27  29
ENDBRANCH   6  27
TORSDOF 7
ENDMDL