MODEL 1
REMARK VINA RESULT: -7.413664890      0.000      0.000
REMARK  7 active torsions:
REMARK  status: ('A' for Active; 'I' for Inactive)
REMARK    1  A    between atoms: N1_1  and  C1_5
REMARK    2  A    between atoms: C1_5  and  C2_6
REMARK    3  A    between atoms: C1_5  and  C3_9
REMARK    4  A    between atoms: C2_6  and  O1_7
REMARK    5  A    between atoms: C3_9  and  N2_10
REMARK    6  A    between atoms: N2_10  and  C4_12
REMARK    7  A    between atoms: C8_23  and  C9_24
ROOT
HETATM    1  C4  UNL     1      17.310  45.609 -51.095  1.00  0.00     0.133 A
HETATM    2  N3  UNL     1      18.168  45.122 -50.183  1.00  0.00    -0.337 N
ATOM      3  H3  UNL     1      17.801  44.790 -49.291  1.00  0.00     0.168 HD
HETATM    4  C5  UNL     1      19.496  45.056 -50.401  1.00  0.00     0.183 A
HETATM    5  N4  UNL     1      19.946  45.504 -51.587  1.00  0.00    -0.337 N
ATOM      6  H4  UNL     1      20.949  45.463 -51.768  1.00  0.00     0.168 HD
HETATM    7  C6  UNL     1      19.147  46.004 -52.546  1.00  0.00     0.140 A
HETATM    8  N5  UNL     1      19.593  46.448 -53.722  1.00  0.00    -0.305 N
ATOM      9  H5  UNL     1      20.593  46.413 -53.922  1.00  0.00     0.170 HD
HETATM   10  C7  UNL     1      18.759  46.936 -54.644  1.00  0.00     0.277 A
HETATM   11  O2  UNL     1      19.166  47.362 -55.767  1.00  0.00    -0.265 OA
HETATM   12  C8  UNL     1      17.405  46.998 -54.408  1.00  0.00     0.148 A
HETATM   13  N10 UNL     1      16.933  46.555 -53.227  1.00  0.00    -0.343 N
ATOM     14  H10 UNL     1      15.933  46.589 -53.027  1.00  0.00     0.166 HD
HETATM   15  C10 UNL     1      17.788  46.068 -52.317  1.00  0.00     0.122 A
ENDROOT
BRANCH   1  16
HETATM   16  N2  UNL     1      16.038  45.680 -50.906  1.00  0.00    -0.372 N
ATOM     17  H2  UNL     1      15.437  45.132 -51.520  1.00  0.00     0.161 HD
BRANCH  16  18
HETATM   18  C3  UNL     1      15.409  46.472 -49.897  1.00  0.00     0.156 C
BRANCH  18  19
HETATM   19  C1  UNL     1      13.919  46.604 -50.099  1.00  0.00     0.224 C
BRANCH  19  20
HETATM   20  N1  UNL     1      13.551  46.079 -51.395  1.00  0.00    -0.071 N
ATOM     21  H13 UNL     1      13.022  45.209 -51.336  1.00  0.00     0.274 HD
ATOM     22  H12 UNL     1      12.836  46.637 -51.862  1.00  0.00     0.274 HD
ATOM     23  H11 UNL     1      14.407  45.988 -51.943  1.00  0.00     0.274 HD
ENDBRANCH  19  20
BRANCH  19  24
HETATM   24  C2  UNL     1      13.139  45.838 -49.063  1.00  0.00     0.198 C
BRANCH  24  25
HETATM   25  O1  UNL     1      12.222  44.976 -49.609  1.00  0.00    -0.399 OA
ATOM     26  H1  UNL     1      11.351  45.350 -49.671  1.00  0.00     0.209 HD
ENDBRANCH  24  25
ENDBRANCH  19  24
ENDBRANCH  18  19
ENDBRANCH  16  18
ENDBRANCH   1  16
BRANCH  12  27
HETATM   27  C9  UNL     1      16.511  47.538 -55.436  1.00  0.00     0.164 A
HETATM   28  N6  UNL     1      16.165  46.960 -56.595  1.00  0.00    -0.268 N
HETATM   29  N7  UNL     1      15.335  47.791 -57.231  1.00  0.00    -0.007 NA
ATOM     30  H6  UNL     1      16.478  46.049 -56.930  1.00  0.00     0.185 HD
HETATM   31  N8  UNL     1      15.157  48.874 -56.494  1.00  0.00    -0.007 NA
HETATM   32  N9  UNL     1      15.884  48.705 -55.398  1.00  0.00    -0.268 N
ATOM     33  H9  UNL     1      15.951  49.378 -54.634  1.00  0.00     0.185 HD
ENDBRANCH  12  27
TORSDOF 7
ENDMDL