MODEL 2
REMARK VINA RESULT: -6.258588252      2.847      7.207
REMARK  7 active torsions:
REMARK  status: ('A' for Active; 'I' for Inactive)
REMARK    1  A    between atoms: S1_2  and  N1_4
REMARK    2  A    between atoms: S1_2  and  C3_13
REMARK    3  A    between atoms: N1_4  and  N2_6
REMARK       I    between atoms: N2_6  and  C2_8
REMARK    4  A    between atoms: C5_17  and  N6_18
REMARK    5  A    between atoms: N9_27  and  C8_28
REMARK    6  A    between atoms: C8_28  and  C9_29
REMARK    7  A    between atoms: C9_29  and  O2_30
ROOT
HETATM    1  C3  UNL     1      14.862  46.397 -51.088  1.00  0.00     0.187 A
HETATM    2  N5  UNL     1      14.802  46.273 -52.456  1.00  0.00    -0.328 N
ATOM      3  H5  UNL     1      13.962  46.390 -53.022  1.00  0.00     0.168 HD
HETATM    4  C4  UNL     1      16.002  45.980 -52.924  1.00  0.00     0.123 A
HETATM    5  C5  UNL     1      16.489  45.753 -54.209  1.00  0.00     0.131 A
HETATM    6  N7  UNL     1      17.784  45.469 -54.379  1.00  0.00    -0.337 N
ATOM      7  H7  UNL     1      18.151  45.300 -55.316  1.00  0.00     0.168 HD
HETATM    8  C6  UNL     1      18.601  45.406 -53.315  1.00  0.00     0.183 A
HETATM    9  N8  UNL     1      18.124  45.627 -52.065  1.00  0.00    -0.336 N
ATOM     10  H8  UNL     1      18.769  45.572 -51.275  1.00  0.00     0.168 HD
HETATM   11  C7  UNL     1      16.838  45.916 -51.832  1.00  0.00     0.141 A
HETATM   12  N9  UNL     1      16.117  46.173 -50.723  1.00  0.00    -0.307 N
ENDROOT
BRANCH   1  13
HETATM   13  S1  UNL     1      13.483  46.812 -50.148  1.00  0.00     0.098 S
HETATM   14  C1  UNL     1      13.222  48.561 -50.041  1.00  0.00     0.147 C
HETATM   15  O1  UNL     1      12.214  46.300 -50.843  1.00  0.00    -0.241 OA
BRANCH  13  16
HETATM   16  N1  UNL     1      13.440  46.128 -48.743  1.00  0.00    -0.251 N
ATOM     17  H1  UNL     1      13.442  45.113 -48.643  1.00  0.00     0.197 HD
BRANCH  16  18
HETATM   18  N2  UNL     1      13.398  46.972 -47.630  1.00  0.00    -0.267 N
HETATM   19  C2  UNL     1      13.003  46.586 -46.342  1.00  0.00     0.201 C
HETATM   20  N3  UNL     1      13.844  46.831 -45.367  1.00  0.00    -0.372 N
HETATM   21  N4  UNL     1      11.776  45.957 -46.022  1.00  0.00    -0.062 NA
ATOM     22  H32 UNL     1      14.728  47.285 -45.598  1.00  0.00     0.158 HD
ATOM     23  H31 UNL     1      13.557  46.551 -44.430  1.00  0.00     0.158 HD
ATOM     24  H2  UNL     1      13.677  47.944 -47.765  1.00  0.00     0.190 HD
ENDBRANCH  16  18
ENDBRANCH  13  16
ENDBRANCH   1  13
BRANCH  12  25
HETATM   25  C8  UNL     1      16.658  46.163 -49.420  1.00  0.00     0.159 C
BRANCH  25  26
HETATM   26  C9  UNL     1      16.936  47.497 -48.793  1.00  0.00     0.184 C
BRANCH  26  27
HETATM   27  O2  UNL     1      16.137  47.543 -47.621  1.00  0.00    -0.399 OA
ATOM     28  H2  UNL     1      15.839  48.443 -47.549  1.00  0.00     0.209 HD
ENDBRANCH  26  27
ENDBRANCH  25  26
ENDBRANCH  12  25
BRANCH   5  29
HETATM   29  N6  UNL     1      15.692  45.817 -55.215  1.00  0.00    -0.383 N
ATOM     30  H62 UNL     1      15.747  46.593 -55.876  1.00  0.00     0.157 HD
ATOM     31  H61 UNL     1      14.995  45.087 -55.357  1.00  0.00     0.157 HD
ENDBRANCH   5  29
TORSDOF 7
ENDMDL