MODEL 2
REMARK VINA RESULT: -6.577669173      2.787      5.109
REMARK  8 active torsions:
REMARK  status: ('A' for Active; 'I' for Inactive)
REMARK    1  A    between atoms: C2_2  and  N1_4
REMARK    2  A    between atoms: N1_4  and  S1_6
REMARK    3  A    between atoms: S1_6  and  N2_9
REMARK    4  A    between atoms: N2_9  and  N3_11
REMARK    5  A    between atoms: C4_12  and  O3_13
REMARK    6  A    between atoms: C5_15  and  C6_16
REMARK    7  A    between atoms: N4_21  and  N5_22
REMARK    8  A    between atoms: C9_25  and  N6_26
ROOT
HETATM    1  N3  UNL     1      15.909  45.493 -52.127  1.00  0.00    -0.050 N
HETATM    2  C4  UNL     1      15.760  45.913 -53.411  1.00  0.00     0.200 A
HETATM    3  C5  UNL     1      16.834  46.221 -54.205  1.00  0.00     0.133 A
HETATM    4  C8  UNL     1      18.089  46.092 -53.657  1.00  0.00     0.300 A
HETATM    5  O5  UNL     1      19.107  46.357 -54.328  1.00  0.00    -0.264 OA
HETATM    6  N4  UNL     1      18.232  45.675 -52.379  1.00  0.00    -0.052 N
HETATM    7  C9  UNL     1      17.158  45.379 -51.625  1.00  0.00     0.724 A
ENDROOT
BRANCH   1   8
HETATM    8  N2  UNL     1      14.763  45.200 -51.386  1.00  0.00    -0.186 N
ATOM      9  H2  UNL     1      14.383  44.254 -51.411  1.00  0.00     0.203 HD
BRANCH   8  10
HETATM   10  S1  UNL     1      13.977  46.395 -50.432  1.00  0.00     0.337 S
HETATM   11  O1  UNL     1      12.494  46.279 -50.628  1.00  0.00    -0.181 OA
HETATM   12  O2  UNL     1      14.361  47.791 -50.899  1.00  0.00    -0.181 OA
BRANCH  10  13
HETATM   13  N1  UNL     1      14.425  46.286 -48.765  1.00  0.00    -0.272 N
ATOM     14  H1  UNL     1      15.307  45.840 -48.514  1.00  0.00     0.180 HD
BRANCH  13  15
HETATM   15  C2  UNL     1      13.593  46.804 -47.737  1.00  0.00     0.008 C
HETATM   16  C1  UNL     1      12.896  45.938 -47.011  1.00  0.00     0.038 C
HETATM   17  C3  UNL     1      13.504  48.253 -47.479  1.00  0.00     0.068 C
ENDBRANCH  13  15
ENDBRANCH  10  13
ENDBRANCH   8  10
ENDBRANCH   1   8
BRANCH   2  18
HETATM   18  O3  UNL     1      14.477  46.028 -53.922  1.00  0.00    -0.344 OA
ATOM     19  H3  UNL     1      14.018  46.852 -53.808  1.00  0.00     0.219 HD
ENDBRANCH   2  18
BRANCH   7  20
HETATM   20  N6  UNL     1      17.299  44.980 -50.400  1.00  0.00    -0.231 N
ATOM     21  H62 UNL     1      16.523  45.038 -49.741  1.00  0.00     0.174 HD
ATOM     22  H61 UNL     1      18.204  44.606 -50.111  1.00  0.00     0.174 HD
ENDBRANCH   7  20
BRANCH   3  23
HETATM   23  C6  UNL     1      16.614  46.671 -55.593  1.00  0.00     0.165 C
HETATM   24  C7  UNL     1      16.493  48.091 -55.945  1.00  0.00     0.097 C
HETATM   25  O4  UNL     1      16.524  45.815 -56.514  1.00  0.00    -0.292 OA
ENDBRANCH   3  23
BRANCH   6  26
HETATM   26  N5  UNL     1      19.496  45.551 -51.844  1.00  0.00    -0.321 N
ATOM     27  H52 UNL     1      20.056  44.725 -52.056  1.00  0.00     0.178 HD
ATOM     28  H51 UNL     1      19.859  46.289 -51.240  1.00  0.00     0.178 HD
ENDBRANCH   6  26
TORSDOF 8
ENDMDL