MODEL 5
REMARK VINA RESULT: -6.225841541      2.918      5.340
REMARK  8 active torsions:
REMARK  status: ('A' for Active; 'I' for Inactive)
REMARK    1  A    between atoms: O1_2  and  C2_3
REMARK    2  A    between atoms: C4_9  and  N3_10
REMARK    3  A    between atoms: C5_15  and  N5_16
REMARK    4  A    between atoms: N6_20  and  O2_21
REMARK    5  A    between atoms: C7_23  and  C8_24
REMARK    6  A    between atoms: C8_24  and  O3_25
REMARK    7  A    between atoms: O3_25  and  S1_26
REMARK    8  A    between atoms: S1_26  and  N7_27
ROOT
HETATM    1  C2  UNL     1      15.784  46.286 -49.766  1.00  0.00     0.171 A
HETATM    2  N1  UNL     1      16.968  46.276 -50.399  1.00  0.00    -0.319 N
ATOM      3  H1  UNL     1      17.817  46.425 -49.853  1.00  0.00     0.169 HD
HETATM    4  C3  UNL     1      17.077  46.075 -51.726  1.00  0.00     0.156 A
HETATM    5  N2  UNL     1      18.288  46.070 -52.307  1.00  0.00    -0.174 N
ATOM      6  H2  UNL     1      19.137  46.217 -51.761  1.00  0.00     0.186 HD
HETATM    7  C4  UNL     1      18.339  45.866 -53.625  1.00  0.00     0.679 A
HETATM    8  N4  UNL     1      17.242  45.677 -54.346  1.00  0.00    -0.175 N
ATOM      9  H4  UNL     1      17.339  45.531 -55.350  1.00  0.00     0.186 HD
HETATM   10  C5  UNL     1      15.998  45.670 -53.809  1.00  0.00     0.148 A
HETATM   11  C6  UNL     1      15.946  45.878 -52.453  1.00  0.00     0.151 A
HETATM   12  N6  UNL     1      14.743  45.880 -51.842  1.00  0.00    -0.215 N
HETATM   13  C7  UNL     1      14.652  46.084 -50.513  1.00  0.00     0.117 A
ENDROOT
BRANCH  13  14
HETATM   14  C8  UNL     1      13.324  46.162 -49.882  1.00  0.00     0.256 C
BRANCH  14  15
HETATM   15  O3  UNL     1      12.475  47.113 -50.448  1.00  0.00    -0.254 OA
BRANCH  15  16
HETATM   16  S1  UNL     1      12.897  48.599 -49.773  1.00  0.00     0.355 S
HETATM   17  O4  UNL     1      11.780  49.620 -49.973  1.00  0.00    -0.176 OA
HETATM   18  O5  UNL     1      14.067  49.123 -50.563  1.00  0.00    -0.176 OA
BRANCH  16  19
HETATM   19  N7  UNL     1      13.317  48.379 -48.153  1.00  0.00    -0.306 N
ATOM     20  H72 UNL     1      13.234  47.496 -47.649  1.00  0.00     0.171 HD
ATOM     21  H71 UNL     1      13.662  49.259 -47.770  1.00  0.00     0.171 HD
ENDBRANCH  16  19
ENDBRANCH  15  16
ENDBRANCH  14  15
ENDBRANCH  13  14
BRANCH   1  22
HETATM   22  O1  UNL     1      15.655  46.484 -48.400  1.00  0.00    -0.339 OA
HETATM   23  C1  UNL     1      16.627  46.047 -47.499  1.00  0.00     0.211 C
ENDBRANCH   1  22
BRANCH  12  24
HETATM   24  O2  UNL     1      13.616  45.640 -52.576  1.00  0.00    -0.282 OA
ATOM     25  H2  UNL     1      13.613  45.836 -53.506  1.00  0.00     0.245 HD
ENDBRANCH  12  24
BRANCH  10  26
HETATM   26  N5  UNL     1      14.933  45.507 -54.469  1.00  0.00    -0.383 N
ATOM     27  H52 UNL     1      14.935  45.620 -55.483  1.00  0.00     0.157 HD
ATOM     28  H51 UNL     1      14.034  45.246 -54.063  1.00  0.00     0.157 HD
ENDBRANCH  10  26
BRANCH   7  29
HETATM   29  N3  UNL     1      19.489  45.861 -54.211  1.00  0.00    -0.234 N
ATOM     30  H32 UNL     1      20.337  45.875 -53.646  1.00  0.00     0.174 HD
ATOM     31  H31 UNL     1      19.522  45.837 -55.231  1.00  0.00     0.174 HD
ENDBRANCH   7  29
TORSDOF 8
ENDMDL