MODEL 1
REMARK VINA RESULT: -7.355132188      0.000      0.000
REMARK  5 active torsions:
REMARK  status: ('A' for Active; 'I' for Inactive)
REMARK    1  A    between atoms: N1_2  and  C3_4
REMARK    2  A    between atoms: C4_7  and  N3_8
REMARK    3  A    between atoms: C9_17  and  N6_18
REMARK    4  A    between atoms: C10_21  and  N7_22
REMARK    5  A    between atoms: N7_22  and  N8_23
REMARK       I    between atoms: N7_22  and  C11_27
ROOT
HETATM    1  C3  UNL     1      17.088  47.336 -52.666  1.00  0.00     0.169 A
HETATM    2  N2  UNL     1      16.277  47.504 -51.564  1.00  0.00    -0.173 N
ATOM      3  H2  UNL     1      16.605  48.110 -50.814  1.00  0.00     0.186 HD
HETATM    4  C4  UNL     1      15.087  46.917 -51.424  1.00  0.00     0.684 A
HETATM    5  N5  UNL     1      14.700  46.125 -52.445  1.00  0.00    -0.174 N
ATOM      6  H5  UNL     1      13.795  45.657 -52.374  1.00  0.00     0.186 HD
HETATM    7  C9  UNL     1      15.441  45.913 -53.557  1.00  0.00     0.165 A
HETATM    8  C10 UNL     1      16.666  46.521 -53.691  1.00  0.00     0.323 A
ENDROOT
BRANCH   8   9
HETATM    9  N7  UNL     1      17.450  46.367 -54.832  1.00  0.00     0.234 N
HETATM   10  O1  UNL     1      17.481  45.079 -55.336  1.00  0.00    -0.027 OA
HETATM   11  C11 UNL     1      17.254  47.259 -55.911  1.00  0.00     0.521 C
HETATM   12  N9  UNL     1      16.098  47.115 -56.720  1.00  0.00    -0.021 NA
HETATM   13  O2  UNL     1      18.044  48.195 -56.229  1.00  0.00    -0.230 OA
BRANCH   9  14
HETATM   14  N8  UNL     1      18.812  46.557 -54.434  1.00  0.00    -0.196 N
ATOM     15  H82 UNL     1      19.614  46.601 -55.062  1.00  0.00     0.193 HD
ATOM     16  H81 UNL     1      18.818  46.637 -53.418  1.00  0.00     0.193 HD
ENDBRANCH   9  14
ENDBRANCH   8   9
BRANCH   1  17
HETATM   17  N1  UNL     1      18.330  48.005 -52.638  1.00  0.00    -0.373 N
HETATM   18  C1  UNL     1      19.546  47.429 -52.105  1.00  0.00     0.150 C
HETATM   19  C2  UNL     1      18.410  49.352 -53.149  1.00  0.00     0.150 C
ENDBRANCH   1  17
BRANCH   7  20
HETATM   20  N6  UNL     1      14.970  45.162 -54.497  1.00  0.00    -0.383 N
ATOM     21  H62 UNL     1      14.227  44.491 -54.305  1.00  0.00     0.157 HD
ATOM     22  H61 UNL     1      15.367  45.229 -55.434  1.00  0.00     0.157 HD
ENDBRANCH   7  20
BRANCH   4  23
HETATM   23  N3  UNL     1      14.259  47.123 -50.288  1.00  0.00    -0.208 N
HETATM   24  C5  UNL     1      14.112  48.438 -49.722  1.00  0.00     0.186 C
HETATM   25  C6  UNL     1      14.610  48.354 -48.301  1.00  0.00     0.080 C
HETATM   26  N4  UNL     1      13.887  47.389 -47.574  1.00  0.00    -0.379 N
HETATM   27  C7  UNL     1      13.299  46.286 -48.199  1.00  0.00     0.080 C
ATOM     28  H4  UNL     1      13.789  47.499 -46.564  1.00  0.00     0.164 HD
HETATM   29  C8  UNL     1      13.558  46.054 -49.647  1.00  0.00     0.186 C
ENDBRANCH   4  23
TORSDOF 5
ENDMDL