MODEL 3
REMARK VINA RESULT: -7.153687613      1.743      2.621
REMARK  6 active torsions:
REMARK  status: ('A' for Active; 'I' for Inactive)
REMARK    1  A    between atoms: C2_2  and  N1_4
REMARK    2  A    between atoms: C2_2  and  C10_20
REMARK       I    between atoms: N1_4  and  C4_6
REMARK    3  A    between atoms: C4_6  and  C5_8
REMARK    4  A    between atoms: C5_8  and  N2_9
REMARK    5  A    between atoms: N8_24  and  N9_25
REMARK    6  A    between atoms: C11_28  and  N10_29
ROOT
HETATM    1  N1  UNL     1      16.025  46.122 -47.642  1.00  0.00    -0.345 N
ATOM      2  H1  UNL     1      16.642  45.315 -47.545  1.00  0.00     0.163 HD
HETATM    3  C4  UNL     1      15.798  46.624 -48.928  1.00  0.00     0.236 C
HETATM    4  O1  UNL     1      15.048  47.611 -49.089  1.00  0.00    -0.272 OA
ENDROOT
BRANCH   1   5
HETATM    5  C2  UNL     1      15.437  46.679 -46.441  1.00  0.00     0.073 C
HETATM    6  C1  UNL     1      15.727  48.178 -46.487  1.00  0.00     0.045 C
HETATM    7  C3  UNL     1      16.173  46.117 -45.252  1.00  0.00     0.045 C
BRANCH   5   8
HETATM    8  C10 UNL     1      13.995  46.451 -46.354  1.00  0.00     0.098 A
HETATM    9  N6  UNL     1      13.278  45.673 -47.179  1.00  0.00    -0.280 N
HETATM   10  N7  UNL     1      11.992  45.695 -46.807  1.00  0.00     0.002 NA
ATOM     11  H6  UNL     1      13.654  45.146 -47.967  1.00  0.00     0.184 HD
HETATM   12  N8  UNL     1      11.888  46.493 -45.737  1.00  0.00    -0.168 N
HETATM   13  C11 UNL     1      13.109  46.969 -45.443  1.00  0.00     0.163 A
BRANCH  12  14
HETATM   14  N9  UNL     1      10.710  46.795 -45.030  1.00  0.00    -0.324 N
ATOM     15  H92 UNL     1       9.763  46.617 -45.364  1.00  0.00     0.178 HD
ATOM     16  H91 UNL     1      10.650  47.224 -44.106  1.00  0.00     0.178 HD
ENDBRANCH  12  14
BRANCH  13  17
HETATM   17  N10 UNL     1      13.344  47.770 -44.459  1.00  0.00    -0.381 N
ATOM     18 2H10 UNL     1      14.230  47.799 -43.955  1.00  0.00     0.157 HD
ATOM     19 1H10 UNL     1      12.724  48.466 -44.044  1.00  0.00     0.157 HD
ENDBRANCH  13  17
ENDBRANCH   5   8
ENDBRANCH   1   5
BRANCH   3  20
HETATM   20  C5  UNL     1      16.436  45.997 -50.102  1.00  0.00     0.234 C
BRANCH  20  21
HETATM   21  N2  UNL     1      15.523  45.732 -51.172  1.00  0.00    -0.317 N
HETATM   22  C6  UNL     1      14.255  45.316 -51.072  1.00  0.00     0.186 A
HETATM   23  N3  UNL     1      13.724  45.181 -52.322  1.00  0.00    -0.335 N
HETATM   24  C7  UNL     1      14.676  45.516 -53.196  1.00  0.00     0.152 A
ATOM     25  H3  UNL     1      12.776  44.880 -52.547  1.00  0.00     0.168 HD
HETATM   26  N4  UNL     1      14.996  45.659 -54.495  1.00  0.00    -0.335 N
HETATM   27  C9  UNL     1      15.795  45.859 -52.478  1.00  0.00     0.154 A
HETATM   28  C8  UNL     1      16.271  46.077 -54.585  1.00  0.00     0.183 A
ATOM     29  H4  UNL     1      14.373  45.480 -55.282  1.00  0.00     0.168 HD
HETATM   30  N5  UNL     1      16.760  46.199 -53.347  1.00  0.00    -0.335 N
ATOM     31  H5  UNL     1      17.704  46.499 -53.105  1.00  0.00     0.168 HD
ENDBRANCH  20  21
ENDBRANCH   3  20
TORSDOF 6
ENDMDL