MODEL 2
REMARK VINA RESULT: -7.580018526      2.423      9.224
REMARK  5 active torsions:
REMARK  status: ('A' for Active; 'I' for Inactive)
REMARK    1  A    between atoms: O1_2  and  C2_3
REMARK    2  A    between atoms: C2_3  and  C3_4
REMARK       I    between atoms: C3_4  and  N1_6
REMARK       I    between atoms: N1_6  and  C4_8
REMARK       I    between atoms: C4_8  and  N2_10
REMARK    3  A    between atoms: N2_10  and  N3_12
REMARK       I    between atoms: C5_14  and  N5_16
REMARK    4  A    between atoms: N5_16  and  N6_18
REMARK    5  A    between atoms: C6_20  and  C8_22
ROOT
HETATM    1  N3  UNL     1      14.680  45.336 -50.486  1.00  0.00    -0.268 N
ATOM      2  H3  UNL     1      15.305  44.943 -49.782  1.00  0.00     0.190 HD
HETATM    3  C5  UNL     1      13.507  45.745 -50.190  1.00  0.00     0.222 C
HETATM    4  N4  UNL     1      12.650  46.283 -51.168  1.00  0.00    -0.061 NA
HETATM    5  N5  UNL     1      13.052  45.656 -48.848  1.00  0.00    -0.272 N
ATOM      6  H5  UNL     1      12.104  45.339 -48.644  1.00  0.00     0.189 HD
ENDROOT
BRANCH   1   7
HETATM    7  N2  UNL     1      15.072  45.456 -51.860  1.00  0.00    -0.249 N
HETATM    8  C4  UNL     1      16.095  46.345 -52.208  1.00  0.00     0.341 C
HETATM    9  N1  UNL     1      16.552  46.538 -53.510  1.00  0.00    -0.276 N
HETATM   10  O3  UNL     1      16.619  47.005 -51.240  1.00  0.00    -0.245 OA
HETATM   11  C3  UNL     1      16.115  45.920 -54.694  1.00  0.00     0.249 C
ATOM     12  H1  UNL     1      17.304  47.219 -53.618  1.00  0.00     0.173 HD
HETATM   13  O2  UNL     1      15.210  45.080 -54.684  1.00  0.00    -0.271 OA
ATOM     14  H2  UNL     1      14.609  44.898 -52.577  1.00  0.00     0.192 HD
BRANCH  11  15
HETATM   15  C2  UNL     1      16.740  46.274 -55.967  1.00  0.00     0.270 C
BRANCH  15  16
HETATM   16  O1  UNL     1      16.019  46.954 -56.875  1.00  0.00    -0.387 OA
HETATM   17  C1  UNL     1      15.662  48.241 -56.635  1.00  0.00     0.202 C
ENDBRANCH  15  16
ENDBRANCH  11  15
ENDBRANCH   1   7
BRANCH   5  18
HETATM   18  N6  UNL     1      13.917  46.006 -47.810  1.00  0.00    -0.298 N
HETATM   19  C6  UNL     1      13.467  46.229 -46.639  1.00  0.00     0.075 C
HETATM   20  C7  UNL     1      12.024  46.119 -46.375  1.00  0.00     0.074 C
ATOM     21  H6  UNL     1      14.918  46.083 -47.991  1.00  0.00     0.186 HD
BRANCH  19  22
HETATM   22  C8  UNL     1      14.424  46.593 -45.588  1.00  0.00     0.195 A
HETATM   23  N7  UNL     1      14.160  47.399 -44.542  1.00  0.00    -0.233 N
HETATM   24  O4  UNL     1      15.264  47.465 -43.852  1.00  0.00    -0.192 OA
ATOM     25  H7  UNL     1      13.276  47.863 -44.333  1.00  0.00     0.197 HD
HETATM   26  C9  UNL     1      16.194  46.754 -44.400  1.00  0.00     0.287 A
HETATM   27  N8  UNL     1      17.394  46.629 -43.940  1.00  0.00    -0.357 N
HETATM   28  O5  UNL     1      15.665  46.221 -45.471  1.00  0.00    -0.252 OA
ATOM     29  H82 UNL     1      17.806  47.045 -43.105  1.00  0.00     0.160 HD
ATOM     30  H81 UNL     1      18.127  46.068 -44.373  1.00  0.00     0.160 HD
ENDBRANCH  19  22
ENDBRANCH   5  18
TORSDOF 5
ENDMDL