MODEL 4
REMARK VINA RESULT: -7.683160188      2.597      7.492
REMARK  4 active torsions:
REMARK  status: ('A' for Active; 'I' for Inactive)
REMARK    1  A    between atoms: O1_2  and  N1_3
REMARK    2  A    between atoms: C3_5  and  C4_6
REMARK    3  A    between atoms: C4_6  and  N2_7
REMARK       I    between atoms: N2_7  and  C5_9
REMARK    4  A    between atoms: C5_9  and  C6_11
ROOT
HETATM    1  C6  UNL     1      13.571  46.512 -48.144  1.00  0.00     0.132 A
HETATM    2  N3  UNL     1      13.888  45.763 -47.036  1.00  0.00    -0.293 N
ATOM      3  H3  UNL     1      14.068  44.766 -47.154  1.00  0.00     0.187 HD
HETATM    4  N4  UNL     1      13.967  46.280 -45.835  1.00  0.00    -0.283 N
ATOM      5  H4  UNL     1      14.206  45.686 -45.041  1.00  0.00     0.188 HD
HETATM    6  C7  UNL     1      13.736  47.584 -45.646  1.00  0.00     0.141 A
HETATM    7  N5  UNL     1      13.813  48.102 -44.454  1.00  0.00    -0.383 N
ATOM      8  H51 UNL     1      13.637  49.096 -44.309  1.00  0.00     0.157 HD
ATOM      9  H52 UNL     1      14.054  47.488 -43.676  1.00  0.00     0.157 HD
HETATM   10  C8  UNL     1      13.410  48.417 -46.701  1.00  0.00     0.095 A
HETATM   11  N6  UNL     1      13.171  49.714 -46.550  1.00  0.00    -0.348 N
ATOM     12  H6  UNL     1      13.228  50.133 -45.621  1.00  0.00     0.167 HD
HETATM   13  C9  UNL     1      12.855  50.482 -47.604  1.00  0.00     0.182 A
HETATM   14  N7  UNL     1      12.764  49.991 -48.843  1.00  0.00    -0.338 N
ATOM     15  H7  UNL     1      12.522  50.598 -49.627  1.00  0.00     0.168 HD
HETATM   16  C10 UNL     1      13.002  48.664 -49.041  1.00  0.00     0.115 A
HETATM   17  N8  UNL     1      12.903  48.235 -50.226  1.00  0.00    -0.385 N
ATOM     18  H81 UNL     1      13.080  47.242 -50.373  1.00  0.00     0.157 HD
ATOM     19  H82 UNL     1      12.660  48.839 -51.011  1.00  0.00     0.157 HD
HETATM   20  C11 UNL     1      13.328  47.851 -47.983  1.00  0.00     0.072 A
ENDROOT
BRANCH   1  21
HETATM   21  C5  UNL     1      13.499  45.883 -49.435  1.00  0.00     0.271 C
HETATM   22  N2  UNL     1      14.587  45.706 -50.321  1.00  0.00    -0.350 N
ATOM     23  H2  UNL     1      15.500  46.048 -50.024  1.00  0.00     0.163 HD
HETATM   24  O2  UNL     1      12.362  45.449 -49.820  1.00  0.00    -0.266 OA
BRANCH  22  25
HETATM   25  C4  UNL     1      14.497  45.078 -51.610  1.00  0.00     0.183 C
BRANCH  25  26
HETATM   26  C3  UNL     1      15.095  45.974 -52.633  1.00  0.00     0.064 A
HETATM   27  C2  UNL     1      15.011  45.801 -54.014  1.00  0.00     0.173 A
HETATM   28  N1  UNL     1      15.663  46.794 -54.635  1.00  0.00    -0.157 N
HETATM   29  N10 UNL     1      16.142  47.568 -53.656  1.00  0.00    -0.216 N
HETATM   30  N9  UNL     1      15.813  47.094 -52.474  1.00  0.00    -0.285 N
ATOM     31  H10 UNL     1      16.692  48.415 -53.805  1.00  0.00     0.211 HD
ATOM     32  H9  UNL     1      16.065  47.512 -51.578  1.00  0.00     0.188 HD
BRANCH  28  33
HETATM   33  O1  UNL     1      15.834  47.014 -55.989  1.00  0.00    -0.263 OA
HETATM   34  C1  UNL     1      15.530  48.262 -56.560  1.00  0.00     0.240 C
ENDBRANCH  28  33
ENDBRANCH  25  26
ENDBRANCH  22  25
ENDBRANCH   1  21
TORSDOF 4
ENDMDL