MODEL 3
REMARK VINA RESULT: -7.383692499      1.153      1.263
REMARK  6 active torsions:
REMARK  status: ('A' for Active; 'I' for Inactive)
REMARK    1  A    between atoms: N1_1  and  C1_4
REMARK    2  A    between atoms: C2_10  and  S1_11
REMARK    3  A    between atoms: S1_11  and  N4_14
REMARK    4  A    between atoms: N4_14  and  N5_16
REMARK    5  A    between atoms: N5_16  and  C3_18
REMARK    6  A    between atoms: C4_23  and  C5_24
ROOT
HETATM    1  N4  UNL     1      14.221  45.099 -51.052  1.00  0.00    -0.220 N
ATOM      2  H4  UNL     1      13.977  44.165 -51.380  1.00  0.00     0.200 HD
ENDROOT
BRANCH   1   3
HETATM    3  S1  UNL     1      13.171  45.868 -49.936  1.00  0.00     0.297 S
HETATM    4  O2  UNL     1      12.032  44.897 -49.665  1.00  0.00    -0.197 OA
HETATM    5  O3  UNL     1      12.561  47.089 -50.521  1.00  0.00    -0.197 OA
BRANCH   3   6
HETATM    6  C2  UNL     1      13.977  46.244 -48.430  1.00  0.00     0.218 A
HETATM    7  C1  UNL     1      13.511  46.081 -47.141  1.00  0.00     0.163 A
HETATM    8  N2  UNL     1      14.465  46.500 -46.290  1.00  0.00    -0.223 N
HETATM    9  O1  UNL     1      15.458  46.898 -47.008  1.00  0.00    -0.154 OA
ATOM     10  H2  UNL     1      14.412  46.503 -45.272  1.00  0.00     0.198 HD
HETATM   11  N3  UNL     1      15.224  46.769 -48.268  1.00  0.00    -0.225 N
ATOM     12  H3  UNL     1      15.866  47.019 -49.020  1.00  0.00     0.198 HD
BRANCH   7  13
HETATM   13  N1  UNL     1      12.361  45.608 -46.798  1.00  0.00    -0.382 N
ATOM     14  H12 UNL     1      11.991  45.547 -45.850  1.00  0.00     0.157 HD
ATOM     15  H11 UNL     1      11.663  45.229 -47.440  1.00  0.00     0.157 HD
ENDBRANCH   7  13
ENDBRANCH   3   6
ENDBRANCH   1   3
BRANCH   1  16
HETATM   16  N5  UNL     1      15.376  45.676 -51.527  1.00  0.00    -0.269 N
ATOM     17  H5  UNL     1      16.197  45.790 -50.933  1.00  0.00     0.190 HD
BRANCH  16  18
HETATM   18  C3  UNL     1      15.375  46.074 -52.777  1.00  0.00     0.180 A
HETATM   19  N6  UNL     1      14.704  45.562 -53.813  1.00  0.00    -0.277 N
HETATM   20  N7  UNL     1      14.840  46.099 -54.955  1.00  0.00    -0.286 N
ATOM     21  H6  UNL     1      14.094  44.754 -53.689  1.00  0.00     0.189 HD
HETATM   22  C4  UNL     1      15.632  47.147 -55.113  1.00  0.00     0.169 A
ATOM     23  H7  UNL     1      14.335  45.721 -55.756  1.00  0.00     0.188 HD
HETATM   24  S2  UNL     1      16.214  47.370 -53.524  1.00  0.00    -0.025 SA
BRANCH  22  25
HETATM   25  C5  UNL     1      15.904  47.882 -56.345  1.00  0.00     0.235 C
HETATM   26  O4  UNL     1      14.942  48.361 -56.994  1.00  0.00    -0.642 OA
HETATM   27  O5  UNL     1      17.180  48.074 -56.828  1.00  0.00    -0.642 OA
ENDBRANCH  22  25
ENDBRANCH  16  18
ENDBRANCH   1  16
TORSDOF 6
ENDMDL