MODEL 5
REMARK VINA RESULT: -7.350075881      3.746      6.204
REMARK  4 active torsions:
REMARK  status: ('A' for Active; 'I' for Inactive)
REMARK       I    between atoms: C2_2  and  N1_4
REMARK    1  A    between atoms: N1_4  and  S1_6
REMARK    2  A    between atoms: S1_6  and  O4_9
REMARK    3  A    between atoms: O4_9  and  C3_10
REMARK    4  A    between atoms: C3_10  and  C4_11
ROOT
HETATM    1  C4  UNL     1      16.035  46.199 -51.492  1.00  0.00     0.060 C
HETATM    2  C5  UNL     1      14.852  45.646 -51.967  1.00  0.00     0.130 C
HETATM    3  N2  UNL     1      14.849  45.466 -53.375  1.00  0.00    -0.082 NA
HETATM    4  N3  UNL     1      13.739  45.270 -51.279  1.00  0.00    -0.331 N
ATOM      5  H3  UNL     1      13.067  44.712 -51.804  1.00  0.00     0.168 HD
HETATM    6  C6  UNL     1      13.397  45.536 -49.990  1.00  0.00     0.140 C
HETATM    7  N4  UNL     1      12.142  45.020 -49.591  1.00  0.00    -0.081 NA
HETATM    8  C7  UNL     1      14.098  46.228 -49.020  1.00  0.00     0.114 C
HETATM    9  C8  UNL     1      13.590  46.188 -47.674  1.00  0.00     0.105 C
HETATM   10  N5  UNL     1      13.162  46.165 -46.577  1.00  0.00    -0.191 NA
HETATM   11  C9  UNL     1      15.256  46.960 -49.253  1.00  0.00     0.121 C
HETATM   12  N6  UNL     1      15.497  47.939 -48.255  1.00  0.00    -0.096 NA
HETATM   13  C10 UNL     1      16.176  46.865 -50.291  1.00  0.00     0.209 C
HETATM   14  O5  UNL     1      17.256  47.443 -50.132  1.00  0.00    -0.286 OA
ENDROOT
BRANCH   1  15
HETATM   15  C3  UNL     1      17.181  46.033 -52.389  1.00  0.00     0.238 C
BRANCH  15  16
HETATM   16  O4  UNL     1      17.540  47.161 -53.116  1.00  0.00    -0.254 OA
BRANCH  16  17
HETATM   17  S1  UNL     1      17.760  46.657 -54.693  1.00  0.00     0.364 S
HETATM   18  O2  UNL     1      17.893  45.156 -54.647  1.00  0.00    -0.175 OA
HETATM   19  O3  UNL     1      19.028  47.192 -55.306  1.00  0.00    -0.175 OA
BRANCH  17  20
HETATM   20  N1  UNL     1      16.476  47.056 -55.750  1.00  0.00    -0.232 N
HETATM   21  C2  UNL     1      16.267  48.406 -56.098  1.00  0.00     0.228 C
HETATM   22  C1  UNL     1      15.188  48.827 -57.001  1.00  0.00     0.118 C
HETATM   23  O1  UNL     1      17.028  49.295 -55.620  1.00  0.00    -0.273 OA
ATOM     24  H1  UNL     1      15.869  46.326 -56.123  1.00  0.00     0.183 HD
ENDBRANCH  17  20
ENDBRANCH  16  17
ENDBRANCH  15  16
ENDBRANCH   1  15
TORSDOF 4
ENDMDL