MODEL 1
REMARK VINA RESULT: -6.908952249      0.000      0.000
REMARK  5 active torsions:
REMARK  status: ('A' for Active; 'I' for Inactive)
REMARK    1  A    between atoms: C2_2  and  N7_22
REMARK    2  A    between atoms: N1_3  and  N2_5
REMARK       I    between atoms: N2_5  and  C3_6
REMARK       I    between atoms: C3_6  and  N3_8
REMARK    3  A    between atoms: N3_8  and  C4_10
REMARK    4  A    between atoms: C5_11  and  S1_12
REMARK    5  A    between atoms: N7_22  and  N8_24
ROOT
HETATM    1  N2  UNL     1      15.333  48.677 -50.794  1.00  0.00    -0.263 NA
HETATM    2  C3  UNL     1      16.140  47.585 -51.144  1.00  0.00     0.417 C
HETATM    3  O1  UNL     1      15.955  46.394 -50.882  1.00  0.00    -0.228 OA
HETATM    4  N3  UNL     1      17.343  47.847 -51.906  1.00  0.00    -0.290 N
ATOM      5  H3  UNL     1      17.565  48.810 -52.156  1.00  0.00     0.172 HD
ENDROOT
BRANCH   4   6
HETATM    6  C4  UNL     1      18.220  46.819 -52.318  1.00  0.00     0.120 A
HETATM    7  C5  UNL     1      18.165  46.160 -53.515  1.00  0.00     0.173 A
HETATM    8  N4  UNL     1      19.167  45.279 -53.506  1.00  0.00    -0.287 N
HETATM    9  N5  UNL     1      19.848  45.343 -52.379  1.00  0.00    -0.285 N
ATOM     10  H4  UNL     1      19.379  44.639 -54.271  1.00  0.00     0.188 HD
HETATM   11  C7  UNL     1      19.282  46.291 -51.624  1.00  0.00     0.161 A
ATOM     12  H5  UNL     1      20.657  44.774 -52.129  1.00  0.00     0.188 HD
HETATM   13  N6  UNL     1      19.690  46.691 -50.343  1.00  0.00    -0.079 NA
BRANCH   7  14
HETATM   14  S1  UNL     1      17.039  46.379 -54.829  1.00  0.00     0.191 S
HETATM   15  C6  UNL     1      15.495  45.571 -54.389  1.00  0.00     0.168 C
HETATM   16  O2  UNL     1      16.722  47.842 -54.937  1.00  0.00    -0.221 OA
HETATM   17  O3  UNL     1      17.575  45.839 -56.122  1.00  0.00    -0.221 OA
ENDBRANCH   7  14
ENDBRANCH   4   6
BRANCH   1  18
HETATM   18  N1  UNL     1      14.623  49.626 -50.485  1.00  0.00    -0.217 N
HETATM   19  C2  UNL     1      14.455  50.443 -49.504  1.00  0.00     0.124 C
HETATM   20  C1  UNL     1      15.343  50.271 -48.336  1.00  0.00     0.093 C
ATOM     21  H1  UNL     1      13.962  49.832 -51.234  1.00  0.00     0.203 HD
BRANCH  19  22
HETATM   22  N7  UNL     1      13.455  51.426 -49.627  1.00  0.00    -0.228 N
ATOM     23  H7  UNL     1      13.534  52.317 -49.137  1.00  0.00     0.194 HD
BRANCH  22  24
HETATM   24  N8  UNL     1      12.337  51.147 -50.449  1.00  0.00    -0.037 N
HETATM   25  O4  UNL     1      11.746  50.083 -50.190  1.00  0.00    -0.516 OA
HETATM   26  O5  UNL     1      11.960  52.010 -51.455  1.00  0.00    -0.516 OA
ENDBRANCH  22  24
ENDBRANCH  19  22
ENDBRANCH   1  18
TORSDOF 5
ENDMDL