MODEL 5
REMARK VINA RESULT: -7.316671059      5.907      9.163
REMARK  5 active torsions:
REMARK  status: ('A' for Active; 'I' for Inactive)
REMARK    1  A    between atoms: C2_7  and  C3_8
REMARK    2  A    between atoms: C3_8  and  N3_9
REMARK    3  A    between atoms: C5_15  and  C6_16
REMARK    4  A    between atoms: C6_16  and  N6_17
REMARK    5  A    between atoms: N6_17  and  N7_19
ROOT
HETATM    1  N1  UNL     1      13.140  45.422 -46.573  1.00  0.00    -0.383 N
ATOM      2  H11 UNL     1      12.541  44.718 -46.141  1.00  0.00     0.157 HD
ATOM      3  H12 UNL     1      13.960  45.093 -47.082  1.00  0.00     0.157 HD
HETATM    4  C1  UNL     1      12.890  46.671 -46.494  1.00  0.00     0.132 A
HETATM    5  N2  UNL     1      13.680  47.599 -47.064  1.00  0.00    -0.329 N
ATOM      6  H2  UNL     1      14.504  47.286 -47.576  1.00  0.00     0.168 HD
HETATM    7  C2  UNL     1      13.436  48.903 -46.991  1.00  0.00     0.104 A
HETATM    8  N10 UNL     1      12.337  49.365 -46.312  1.00  0.00    -0.328 N
ATOM      9  H10 UNL     1      12.140  50.364 -46.250  1.00  0.00     0.169 HD
HETATM   10  C8  UNL     1      11.520  48.457 -45.725  1.00  0.00     0.151 A
HETATM   11  N11 UNL     1      10.386  48.630 -45.003  1.00  0.00    -0.267 N
ATOM     12  H11 UNL     1       9.939  49.517 -44.771  1.00  0.00     0.186 HD
HETATM   13  N12 UNL     1       9.972  47.423 -44.657  1.00  0.00    -0.020 NA
HETATM   14  N13 UNL     1      10.788  46.495 -45.124  1.00  0.00    -0.277 N
ATOM     15  H13 UNL     1      10.686  45.489 -44.993  1.00  0.00     0.184 HD
HETATM   16  C9  UNL     1      11.790  47.112 -45.811  1.00  0.00     0.135 A
ENDROOT
BRANCH   7  17
HETATM   17  C3  UNL     1      14.289  49.947 -47.610  1.00  0.00     0.227 C
BRANCH  17  18
HETATM   18  N3  UNL     1      13.793  50.299 -48.925  1.00  0.00    -0.267 N
HETATM   19  N4  UNL     1      12.984  51.373 -49.081  1.00  0.00    -0.292 N
HETATM   20  C4  UNL     1      12.704  51.505 -50.384  1.00  0.00     0.199 A
ATOM     21  H4  UNL     1      12.645  51.979 -48.334  1.00  0.00     0.188 HD
HETATM   22  N5  UNL     1      13.341  50.515 -51.008  1.00  0.00    -0.335 N
HETATM   23  C5  UNL     1      14.031  49.744 -50.106  1.00  0.00     0.140 A
ATOM     24  H5  UNL     1      13.319  50.353 -52.015  1.00  0.00     0.168 HD
BRANCH  23  25
HETATM   25  C6  UNL     1      14.804  48.561 -50.419  1.00  0.00     0.157 C
BRANCH  25  26
HETATM   26  N6  UNL     1      14.368  47.438 -50.810  1.00  0.00    -0.306 N
ATOM     27  H6  UNL     1      14.744  47.038 -51.670  1.00  0.00     0.186 HD
BRANCH  26  28
HETATM   28  N7  UNL     1      13.398  46.728 -50.115  1.00  0.00    -0.276 N
HETATM   29  C7  UNL     1      13.132  45.474 -50.359  1.00  0.00     0.215 C
HETATM   30  N8  UNL     1      12.125  44.839 -49.594  1.00  0.00    -0.065 NA
HETATM   31  N9  UNL     1      13.817  44.737 -51.359  1.00  0.00    -0.065 NA
ATOM     32  H7  UNL     1      12.872  47.206 -49.382  1.00  0.00     0.189 HD
ENDBRANCH  26  28
ENDBRANCH  25  26
ENDBRANCH  23  25
ENDBRANCH  17  18
ENDBRANCH   7  17
TORSDOF 5
ENDMDL