MODEL 1
REMARK VINA RESULT: -6.964443846      0.000      0.000
REMARK  9 active torsions:
REMARK  status: ('A' for Active; 'I' for Inactive)
REMARK    1  A    between atoms: O1_2  and  C2_3
REMARK    2  A    between atoms: C4_5  and  C5_6
REMARK    3  A    between atoms: C5_6  and  N1_7
REMARK    4  A    between atoms: N1_7  and  N2_9
REMARK    5  A    between atoms: N2_9  and  C6_11
REMARK    6  A    between atoms: C7_16  and  N5_17
REMARK    7  A    between atoms: N5_17  and  C8_19
REMARK    8  A    between atoms: C8_19  and  O2_21
REMARK    9  A    between atoms: C10_25  and  N7_26
ROOT
HETATM    1  C6  UNL     1      13.806  49.812 -49.221  1.00  0.00     0.180 A
HETATM    2  N3  UNL     1      12.689  49.619 -49.937  1.00  0.00    -0.267 N
ATOM      3  H3  UNL     1      12.296  48.680 -49.997  1.00  0.00     0.189 HD
HETATM    4  N4  UNL     1      12.079  50.614 -50.571  1.00  0.00    -0.130 N
ATOM      5  H4  UNL     1      11.232  50.418 -51.104  1.00  0.00     0.205 HD
HETATM    6  C7  UNL     1      12.548  51.864 -50.529  1.00  0.00     0.696 A
HETATM    7  N6  UNL     1      13.687  52.075 -49.801  1.00  0.00    -0.172 N
ATOM      8  H6  UNL     1      14.068  53.020 -49.750  1.00  0.00     0.186 HD
HETATM    9  C10 UNL     1      14.320  51.093 -49.154  1.00  0.00     0.162 A
ENDROOT
BRANCH   1  10
HETATM   10  N2  UNL     1      14.382  48.829 -48.612  1.00  0.00    -0.282 N
ATOM     11  H2  UNL     1      15.265  48.493 -48.997  1.00  0.00     0.188 HD
BRANCH  10  12
HETATM   12  N1  UNL     1      13.903  48.199 -47.490  1.00  0.00    -0.308 N
ATOM     13  H1  UNL     1      13.732  47.196 -47.566  1.00  0.00     0.186 HD
BRANCH  12  14
HETATM   14  C5  UNL     1      13.652  48.733 -46.371  1.00  0.00     0.138 C
BRANCH  14  15
HETATM   15  C4  UNL     1      12.646  48.085 -45.504  1.00  0.00     0.070 A
HETATM   16  C3  UNL     1      11.316  48.241 -45.781  1.00  0.00     0.089 A
HETATM   17  C2  UNL     1      10.378  47.645 -44.983  1.00  0.00     0.159 A
HETATM   18  N10 UNL     1      10.793  46.911 -43.936  1.00  0.00    -0.265 N
HETATM   19  N9  UNL     1      12.096  46.784 -43.701  1.00  0.00    -0.240 N
ATOM     20  H10 UNL     1      10.114  46.456 -43.326  1.00  0.00     0.190 HD
HETATM   21  N8  UNL     1      13.016  47.346 -44.452  1.00  0.00    -0.285 N
ATOM     22  H9  UNL     1      12.395  46.225 -42.902  1.00  0.00     0.208 HD
ATOM     23  H8  UNL     1      14.004  47.220 -44.234  1.00  0.00     0.188 HD
BRANCH  17  24
HETATM   24  O1  UNL     1       9.034  47.827 -45.295  1.00  0.00    -0.340 OA
HETATM   25  C1  UNL     1       8.624  49.090 -45.740  1.00  0.00     0.211 C
ENDBRANCH  17  24
ENDBRANCH  14  15
ENDBRANCH  12  14
ENDBRANCH  10  12
ENDBRANCH   1  10
BRANCH   9  26
HETATM   26  N7  UNL     1      15.385  51.347 -48.485  1.00  0.00    -0.382 N
ATOM     27  H72 UNL     1      15.967  50.582 -48.143  1.00  0.00     0.157 HD
ATOM     28  H71 UNL     1      15.668  52.307 -48.286  1.00  0.00     0.157 HD
ENDBRANCH   9  26
BRANCH   6  29
HETATM   29  N5  UNL     1      12.004  52.874 -51.121  1.00  0.00    -0.199 N
ATOM     30  H5  UNL     1      11.528  52.757 -52.016  1.00  0.00     0.180 HD
BRANCH  29  31
HETATM   31  C8  UNL     1      12.082  54.170 -50.497  1.00  0.00     0.231 C
HETATM   32  C9  UNL     1      10.826  54.923 -50.922  1.00  0.00     0.063 C
BRANCH  31  33
HETATM   33  O2  UNL     1      13.217  54.857 -50.937  1.00  0.00    -0.377 OA
ATOM     34  H2  UNL     1      13.782  54.279 -51.436  1.00  0.00     0.212 HD
ENDBRANCH  31  33
ENDBRANCH  29  31
ENDBRANCH   6  29
TORSDOF 9
ENDMDL