MODEL 5
REMARK VINA RESULT: -6.650676757      2.053      3.036
REMARK  5 active torsions:
REMARK  status: ('A' for Active; 'I' for Inactive)
REMARK    1  A    between atoms: C5_11  and  N3_12
REMARK    2  A    between atoms: C6_17  and  C7_18
REMARK       I    between atoms: C7_18  and  N6_20
REMARK    3  A    between atoms: N6_20  and  C8_22
REMARK    4  A    between atoms: C8_22  and  C10_24
REMARK    5  A    between atoms: C10_24  and  O2_25
ROOT
HETATM    1  N3  UNL     1      14.463  47.649 -49.384  1.00  0.00    -0.208 N
HETATM    2  N4  UNL     1      13.311  47.322 -49.990  1.00  0.00    -0.232 N
ATOM      3  H4  UNL     1      12.388  47.533 -49.608  1.00  0.00     0.209 HD
HETATM    4  N5  UNL     1      13.502  46.707 -51.113  1.00  0.00    -0.278 N
ATOM      5  H5  UNL     1      12.777  46.364 -51.742  1.00  0.00     0.189 HD
HETATM    6  C6  UNL     1      14.828  46.602 -51.302  1.00  0.00     0.160 A
HETATM    7  C11 UNL     1      15.405  47.199 -50.204  1.00  0.00     0.175 A
HETATM    8  N7  UNL     1      16.783  47.307 -49.999  1.00  0.00    -0.078 NA
ENDROOT
BRANCH   1   9
HETATM    9  C5  UNL     1      14.521  48.319 -48.158  1.00  0.00     0.153 A
HETATM   10  C4  UNL     1      13.905  47.808 -47.006  1.00  0.00     0.101 A
HETATM   11  C3  UNL     1      13.975  48.487 -45.809  1.00  0.00     0.121 A
HETATM   12  S1  UNL     1      13.017  46.249 -47.109  1.00  0.00    -0.044 SA
HETATM   13  N1  UNL     1      14.643  49.650 -45.753  1.00  0.00    -0.332 N
HETATM   14  N2  UNL     1      13.428  48.060 -44.727  1.00  0.00    -0.384 N
HETATM   15  C2  UNL     1      15.250  50.166 -46.856  1.00  0.00     0.080 A
ATOM     16  H1  UNL     1      14.698  50.156 -44.869  1.00  0.00     0.168 HD
HETATM   17  C1  UNL     1      15.990  51.455 -46.795  1.00  0.00     0.089 C
HETATM   18  N8  UNL     1      15.160  49.481 -47.998  1.00  0.00    -0.330 N
ATOM     19  H8  UNL     1      15.619  49.878 -48.818  1.00  0.00     0.168 HD
ATOM     20  H22 UNL     1      13.480  48.563 -43.841  1.00  0.00     0.157 HD
ATOM     21  H21 UNL     1      12.920  47.177 -44.769  1.00  0.00     0.157 HD
ENDBRANCH   1   9
BRANCH   6  22
HETATM   22  C7  UNL     1      15.512  45.991 -52.418  1.00  0.00     0.273 C
HETATM   23  O1  UNL     1      14.902  45.136 -53.118  1.00  0.00    -0.266 OA
HETATM   24  N6  UNL     1      16.850  46.368 -52.698  1.00  0.00    -0.349 N
ATOM     25  H6  UNL     1      17.301  47.064 -52.106  1.00  0.00     0.163 HD
BRANCH  24  26
HETATM   26  C8  UNL     1      17.596  45.793 -53.803  1.00  0.00     0.104 C
HETATM   27  C9  UNL     1      19.064  45.754 -53.489  1.00  0.00     0.034 C
BRANCH  26  28
HETATM   28  C10 UNL     1      17.292  46.649 -55.027  1.00  0.00     0.189 C
BRANCH  28  29
HETATM   29  O2  UNL     1      17.595  45.940 -56.182  1.00  0.00    -0.399 OA
ATOM     30  H2  UNL     1      16.793  45.689 -56.624  1.00  0.00     0.209 HD
ENDBRANCH  28  29
ENDBRANCH  26  28
ENDBRANCH  24  26
ENDBRANCH   6  22
TORSDOF 5
ENDMDL