MODEL 3
REMARK VINA RESULT: -6.972501584      0.709      1.245
REMARK  6 active torsions:
REMARK  status: ('A' for Active; 'I' for Inactive)
REMARK    1  A    between atoms: C2_3  and  N2_4
REMARK    2  A    between atoms: C2_3  and  C12_28
REMARK       I    between atoms: N2_4  and  C3_6
REMARK    3  A    between atoms: C3_6  and  C4_8
REMARK    4  A    between atoms: C5_11  and  N4_12
REMARK    5  A    between atoms: C6_17  and  N6_18
REMARK    6  A    between atoms: N7_24  and  N8_25
ROOT
HETATM    1  N1  UNL     1      15.267  47.962 -56.682  1.00  0.00    -0.195 NA
HETATM    2  C1  UNL     1      15.645  47.297 -55.838  1.00  0.00     0.094 C
HETATM    3  C2  UNL     1      16.142  46.445 -54.783  1.00  0.00     0.282 C
ENDROOT
BRANCH   3   4
HETATM    4  N2  UNL     1      15.890  46.955 -53.463  1.00  0.00    -0.330 N
HETATM    5  C3  UNL     1      15.223  46.234 -52.447  1.00  0.00     0.290 C
HETATM    6  O1  UNL     1      14.803  45.078 -52.643  1.00  0.00    -0.264 OA
ATOM      7  H2  UNL     1      16.213  47.897 -53.246  1.00  0.00     0.164 HD
BRANCH   5   8
HETATM    8  C4  UNL     1      15.011  46.829 -51.138  1.00  0.00     0.227 A
HETATM    9  N3  UNL     1      14.140  47.829 -50.927  1.00  0.00    -0.168 N
HETATM   10  C5  UNL     1      13.925  48.396 -49.729  1.00  0.00     0.692 A
ATOM     11  H3  UNL     1      13.610  48.178 -51.725  1.00  0.00     0.186 HD
HETATM   12  N5  UNL     1      14.613  47.947 -48.687  1.00  0.00    -0.021 N
HETATM   13  C6  UNL     1      15.519  46.928 -48.832  1.00  0.00     0.717 A
ATOM     14  H5  UNL     1      14.466  48.364 -47.768  1.00  0.00     0.203 HD
HETATM   15  N7  UNL     1      15.706  46.385 -50.043  1.00  0.00    -0.070 N
BRANCH  10  16
HETATM   16  N4  UNL     1      13.050  49.374 -49.606  1.00  0.00    -0.234 N
ATOM     17  H42 UNL     1      12.081  49.262 -49.902  1.00  0.00     0.174 HD
ATOM     18  H41 UNL     1      13.333  50.270 -49.206  1.00  0.00     0.174 HD
ENDBRANCH  10  16
BRANCH  13  19
HETATM   19  N6  UNL     1      16.186  46.540 -47.648  1.00  0.00    -0.215 N
HETATM   20  C7  UNL     1      17.443  47.184 -47.265  1.00  0.00     0.141 C
HETATM   21  C8  UNL     1      18.542  46.176 -47.026  1.00  0.00     0.020 C
HETATM   22  C9  UNL     1      18.060  44.997 -46.243  1.00  0.00     0.003 C
HETATM   23  C10 UNL     1      16.755  45.375 -45.585  1.00  0.00     0.020 C
HETATM   24  C11 UNL     1      15.729  45.518 -46.729  1.00  0.00     0.141 C
ENDBRANCH  13  19
BRANCH  15  25
HETATM   25  N8  UNL     1      16.616  45.352 -50.231  1.00  0.00    -0.322 N
ATOM     26  H82 UNL     1      16.864  44.725 -49.466  1.00  0.00     0.178 HD
ATOM     27  H81 UNL     1      17.024  45.243 -51.160  1.00  0.00     0.178 HD
ENDBRANCH  15  25
ENDBRANCH   5   8
ENDBRANCH   3   4
BRANCH   3  28
HETATM   28  C12 UNL     1      17.622  46.243 -54.898  1.00  0.00     0.268 C
HETATM   29  N9  UNL     1      18.289  46.986 -55.911  1.00  0.00    -0.059 NA
HETATM   30  O2  UNL     1      18.259  45.466 -54.151  1.00  0.00    -0.273 OA
ENDBRANCH   3  28
TORSDOF 6
ENDMDL