MODEL 3
REMARK VINA RESULT: -7.501900481      2.329      7.101
REMARK  4 active torsions:
REMARK  status: ('A' for Active; 'I' for Inactive)
REMARK    1  A    between atoms: C2_2  and  C3_4
REMARK    2  A    between atoms: C4_7  and  C5_8
REMARK    3  A    between atoms: N2_9  and  C6_11
REMARK    4  A    between atoms: C9_22  and  N7_23
ROOT
HETATM    1  C6  UNL     1      14.870  46.282 -49.138  1.00  0.00     0.157 A
HETATM    2  N3  UNL     1      14.899  46.565 -47.771  1.00  0.00    -0.174 N
ATOM      3  H3  UNL     1      15.724  47.021 -47.381  1.00  0.00     0.186 HD
HETATM    4  C7  UNL     1      13.901  46.264 -46.968  1.00  0.00     0.678 A
HETATM    5  N4  UNL     1      13.908  46.566 -45.690  1.00  0.00    -0.234 N
ATOM      6  H41 UNL     1      13.134  46.333 -45.068  1.00  0.00     0.174 HD
ATOM      7  H42 UNL     1      14.750  47.028 -45.346  1.00  0.00     0.174 HD
HETATM    8  N5  UNL     1      12.760  45.638 -47.434  1.00  0.00    -0.176 N
ATOM      9  H5  UNL     1      11.994  45.408 -46.801  1.00  0.00     0.185 HD
HETATM   10  C8  UNL     1      12.687  45.343 -48.724  1.00  0.00     0.168 A
HETATM   11  N6  UNL     1      11.541  44.672 -49.286  1.00  0.00    -0.079 NA
HETATM   12  C9  UNL     1      13.717  45.657 -49.549  1.00  0.00     0.188 A
ENDROOT
BRANCH   1  13
HETATM   13  N2  UNL     1      15.790  46.624 -49.849  1.00  0.00    -0.347 N
HETATM   14  C5  UNL     1      16.598  47.551 -50.416  1.00  0.00     0.122 C
ATOM     15  H2  UNL     1      16.147  45.742 -50.216  1.00  0.00     0.167 HD
BRANCH  14  16
HETATM   16  C4  UNL     1      17.134  47.255 -51.796  1.00  0.00     0.091 A
HETATM   17  N1  UNL     1      16.556  47.142 -52.967  1.00  0.00    -0.335 N
HETATM   18  C3  UNL     1      17.450  47.184 -53.998  1.00  0.00     0.155 A
ATOM     19  H1  UNL     1      15.550  47.035 -53.094  1.00  0.00     0.168 HD
HETATM   20  N9  UNL     1      18.671  47.329 -53.409  1.00  0.00    -0.321 N
HETATM   21  C10 UNL     1      18.507  47.375 -52.078  1.00  0.00     0.148 A
HETATM   22  C11 UNL     1      19.971  47.360 -54.036  1.00  0.00     0.159 C
HETATM   23  N8  UNL     1      19.483  47.437 -51.040  1.00  0.00    -0.080 NA
BRANCH  18  24
HETATM   24  C2  UNL     1      17.154  47.174 -55.412  1.00  0.00     0.189 C
HETATM   25  C1  UNL     1      16.569  48.268 -56.190  1.00  0.00     0.100 C
HETATM   26  O1  UNL     1      17.430  46.103 -56.057  1.00  0.00    -0.290 OA
ENDBRANCH  18  24
ENDBRANCH  14  16
ENDBRANCH   1  13
BRANCH  12  27
HETATM   27  N7  UNL     1      13.617  45.269 -50.939  1.00  0.00    -0.108 N
HETATM   28  O2  UNL     1      13.332  46.169 -51.752  1.00  0.00    -0.532 OA
HETATM   29  O3  UNL     1      13.811  43.991 -51.372  1.00  0.00    -0.532 OA
ENDBRANCH  12  27
TORSDOF 4
ENDMDL