MODEL 4
REMARK VINA RESULT: -7.035144123      5.055      7.931
REMARK  7 active torsions:
REMARK  status: ('A' for Active; 'I' for Inactive)
REMARK    1  A    between atoms: O1_2  and  C2_3
REMARK    2  A    between atoms: C3_6  and  N2_7
REMARK    3  A    between atoms: N2_7  and  C4_9
REMARK    4  A    between atoms: C5_12  and  N4_13
REMARK    5  A    between atoms: N4_13  and  C6_15
REMARK    6  A    between atoms: C6_15  and  C7_16
REMARK    7  A    between atoms: C7_16  and  O2_17
ROOT
HETATM    1  C4  UNL     1      16.882  46.200 -51.433  1.00  0.00     0.713 A
HETATM    2  N3  UNL     1      15.845  45.976 -50.614  1.00  0.00    -0.021 N
ATOM      3  H3  UNL     1      15.979  46.028 -49.604  1.00  0.00     0.203 HD
HETATM    4  C5  UNL     1      14.633  45.684 -51.109  1.00  0.00     0.707 A
HETATM    5  N5  UNL     1      14.418  45.605 -52.446  1.00  0.00    -0.021 N
ATOM      6  H5  UNL     1      13.495  45.383 -52.820  1.00  0.00     0.203 HD
HETATM    7  C8  UNL     1      15.453  45.828 -53.257  1.00  0.00     0.720 A
HETATM    8  N6  UNL     1      15.289  45.762 -54.532  1.00  0.00    -0.125 N
ATOM      9  H6  UNL     1      14.372  45.539 -54.917  1.00  0.00     0.197 HD
HETATM   10  C9  UNL     1      16.361  45.993 -55.384  1.00  0.00     0.196 C
HETATM   11  N7  UNL     1      17.247  46.189 -56.109  1.00  0.00    -0.171 NA
HETATM   12  N8  UNL     1      16.658  46.119 -52.756  1.00  0.00    -0.020 N
ATOM     13  H8  UNL     1      17.432  46.286 -53.398  1.00  0.00     0.203 HD
ENDROOT
BRANCH   4  14
HETATM   14  N4  UNL     1      13.622  45.466 -50.300  1.00  0.00    -0.223 N
ATOM     15  H4  UNL     1      13.071  44.609 -50.351  1.00  0.00     0.177 HD
BRANCH  14  16
HETATM   16  C6  UNL     1      13.327  46.499 -49.332  1.00  0.00     0.164 C
BRANCH  16  17
HETATM   17  C7  UNL     1      13.053  45.796 -48.011  1.00  0.00     0.184 C
BRANCH  17  18
HETATM   18  O2  UNL     1      11.944  44.941 -48.113  1.00  0.00    -0.399 OA
ATOM     19  H2  UNL     1      11.952  44.288 -47.424  1.00  0.00     0.209 HD
ENDBRANCH  17  18
ENDBRANCH  16  17
ENDBRANCH  14  16
ENDBRANCH   4  14
BRANCH   1  20
HETATM   20  N2  UNL     1      18.186  46.513 -50.956  1.00  0.00    -0.175 N
ATOM     21  H2  UNL     1      18.338  46.610 -49.952  1.00  0.00     0.186 HD
BRANCH  20  22
HETATM   22  C3  UNL     1      19.188  46.681 -51.765  1.00  0.00     0.127 A
HETATM   23  N1  UNL     1      20.084  45.704 -51.969  1.00  0.00    -0.308 N
HETATM   24  C2  UNL     1      21.135  45.827 -52.793  1.00  0.00     0.225 A
ATOM     25  H1  UNL     1      19.959  44.822 -51.472  1.00  0.00     0.171 HD
HETATM   26  N10 UNL     1      21.277  47.003 -53.437  1.00  0.00    -0.310 N
HETATM   27  C11 UNL     1      20.411  48.015 -53.270  1.00  0.00     0.122 A
ATOM     28  H10 UNL     1      22.067  47.128 -54.069  1.00  0.00     0.170 HD
HETATM   29  C10 UNL     1      19.325  47.886 -52.419  1.00  0.00     0.094 A
HETATM   30  N9  UNL     1      20.586  49.245 -53.965  1.00  0.00    -0.083 NA
BRANCH  24  31
HETATM   31  O1  UNL     1      22.050  44.788 -52.981  1.00  0.00    -0.327 OA
HETATM   32  C1  UNL     1      22.057  43.715 -52.087  1.00  0.00     0.213 C
ENDBRANCH  24  31
ENDBRANCH  20  22
ENDBRANCH   1  20
TORSDOF 7
ENDMDL