MODEL 1
REMARK VINA RESULT: -7.301120153      0.000      0.000
REMARK  7 active torsions:
REMARK  status: ('A' for Active; 'I' for Inactive)
REMARK    1  A    between atoms: C2_2  and  N1_3
REMARK    2  A    between atoms: C2_2  and  C3_7
REMARK    3  A    between atoms: N2_9  and  C5_10
REMARK    4  A    between atoms: C5_10  and  C6_11
REMARK    5  A    between atoms: C6_11  and  N3_12
REMARK    6  A    between atoms: C9_19  and  N6_20
REMARK    7  A    between atoms: C10_25  and  N8_26
ROOT
HETATM    1  N8  UNL     1      13.246  45.635 -47.570  1.00  0.00    -0.277 N
ATOM      2  H8  UNL     1      14.142  45.199 -47.352  1.00  0.00     0.179 HD
HETATM    3  C11 UNL     1      12.557  45.187 -48.689  1.00  0.00     0.183 C
HETATM    4  N9  UNL     1      11.975  44.829 -49.613  1.00  0.00    -0.172 NA
ENDROOT
BRANCH   1   5
HETATM    5  C10 UNL     1      12.821  46.569 -46.791  1.00  0.00     0.161 A
HETATM    6  N7  UNL     1      11.799  46.346 -45.964  1.00  0.00    -0.174 N
HETATM    7  C9  UNL     1      11.360  47.313 -45.150  1.00  0.00     0.679 A
ATOM      8  H7  UNL     1      11.348  45.431 -45.951  1.00  0.00     0.186 HD
HETATM    9  N5  UNL     1      11.961  48.501 -45.179  1.00  0.00    -0.174 N
HETATM   10  C8  UNL     1      12.979  48.764 -45.986  1.00  0.00     0.152 A
ATOM     11  H5  UNL     1      11.625  49.236 -44.557  1.00  0.00     0.186 HD
HETATM   12  N4  UNL     1      13.706  49.865 -46.164  1.00  0.00    -0.336 N
HETATM   13  C12 UNL     1      13.464  47.782 -46.849  1.00  0.00     0.126 A
HETATM   14  C7  UNL     1      14.607  49.595 -47.093  1.00  0.00     0.185 A
ATOM     15  H4  UNL     1      13.589  50.752 -45.674  1.00  0.00     0.168 HD
HETATM   16  N3  UNL     1      14.481  48.311 -47.536  1.00  0.00    -0.335 N
BRANCH   7  17
HETATM   17  N6  UNL     1      10.370  47.117 -44.340  1.00  0.00    -0.234 N
ATOM     18  H62 UNL     1      10.517  46.770 -43.392  1.00  0.00     0.174 HD
ATOM     19  H61 UNL     1       9.419  47.312 -44.652  1.00  0.00     0.174 HD
ENDBRANCH   7  17
BRANCH  16  20
HETATM   20  C6  UNL     1      15.275  47.654 -48.549  1.00  0.00     0.152 C
BRANCH  20  21
HETATM   21  C5  UNL     1      15.147  48.318 -49.896  1.00  0.00     0.170 C
BRANCH  21  22
HETATM   22  N2  UNL     1      14.945  47.390 -50.963  1.00  0.00    -0.286 N
HETATM   23  C4  UNL     1      15.751  47.091 -51.985  1.00  0.00     0.140 A
HETATM   24  C3  UNL     1      15.153  46.136 -52.781  1.00  0.00     0.074 A
HETATM   25  N11 UNL     1      13.965  45.882 -52.194  1.00  0.00    -0.287 N
HETATM   26  N10 UNL     1      13.872  46.645 -51.114  1.00  0.00    -0.241 N
ATOM     27  H11 UNL     1      13.263  45.220 -52.523  1.00  0.00     0.188 HD
ATOM     28  H10 UNL     1      13.072  46.653 -50.481  1.00  0.00     0.208 HD
BRANCH  24  29
HETATM   29  C2  UNL     1      15.686  45.501 -54.034  1.00  0.00     0.231 C
HETATM   30  C1  UNL     1      17.152  45.816 -54.217  1.00  0.00     0.046 C
BRANCH  29  31
HETATM   31  N1  UNL     1      14.890  45.911 -55.160  1.00  0.00    -0.070 N
ATOM     32  H13 UNL     1      13.894  45.862 -54.943  1.00  0.00     0.275 HD
ATOM     33  H12 UNL     1      14.972  46.915 -55.322  1.00  0.00     0.275 HD
ATOM     34  H11 UNL     1      15.107  45.383 -56.006  1.00  0.00     0.275 HD
ENDBRANCH  29  31
ENDBRANCH  24  29
ENDBRANCH  21  22
ENDBRANCH  20  21
ENDBRANCH  16  20
ENDBRANCH   1   5
TORSDOF 7
ENDMDL