MODEL 4
REMARK VINA RESULT: -6.169911821      4.961      8.708
REMARK  8 active torsions:
REMARK  status: ('A' for Active; 'I' for Inactive)
REMARK    1  A    between atoms: N1_2  and  C2_4
REMARK    2  A    between atoms: C3_7  and  S1_8
REMARK    3  A    between atoms: C5_12  and  N4_13
REMARK    4  A    between atoms: N4_13  and  C6_15
REMARK    5  A    between atoms: C6_15  and  C7_16
REMARK    6  A    between atoms: C6_15  and  C8_19
REMARK    7  A    between atoms: C7_16  and  O1_17
REMARK    8  A    between atoms: C9_26  and  N8_27
ROOT
HETATM    1  C6  UNL     1      13.762  48.619 -46.136  1.00  0.00     0.192 C
ENDROOT
BRANCH   1   2
HETATM    2  N4  UNL     1      14.204  47.998 -47.341  1.00  0.00    -0.212 N
ATOM      3  H4  UNL     1      14.529  47.034 -47.272  1.00  0.00     0.178 HD
BRANCH   2   4
HETATM    4  C5  UNL     1      14.232  48.537 -48.498  1.00  0.00     0.695 A
HETATM    5  N3  UNL     1      15.196  48.301 -49.408  1.00  0.00    -0.169 N
HETATM    6  C3  UNL     1      15.174  48.906 -50.628  1.00  0.00     0.174 A
ATOM      7  H3  UNL     1      15.955  47.659 -49.180  1.00  0.00     0.186 HD
HETATM    8  N2  UNL     1      14.184  49.760 -50.958  1.00  0.00    -0.169 N
HETATM    9  C2  UNL     1      13.216  50.002 -50.057  1.00  0.00     0.694 A
ATOM     10  H2  UNL     1      14.169  50.212 -51.872  1.00  0.00     0.186 HD
HETATM   11  N10 UNL     1      13.253  49.392 -48.846  1.00  0.00    -0.022 N
ATOM     12  H10 UNL     1      12.511  49.588 -48.175  1.00  0.00     0.203 HD
BRANCH   6  13
HETATM   13  S1  UNL     1      16.455  48.589 -51.834  1.00  0.00    -0.097 SA
HETATM   14  C4  UNL     1      16.280  46.971 -52.600  1.00  0.00     0.099 C
ENDBRANCH   6  13
BRANCH   9  15
HETATM   15  N1  UNL     1      12.266  50.811 -50.351  1.00  0.00    -0.230 N
HETATM   16  C1  UNL     1      12.508  52.182 -50.771  1.00  0.00     0.165 C
ATOM     17  H1  UNL     1      11.303  50.480 -50.287  1.00  0.00     0.177 HD
ENDBRANCH   9  15
ENDBRANCH   2   4
ENDBRANCH   1   2
BRANCH   1  18
HETATM   18  C7  UNL     1      14.663  48.264 -44.948  1.00  0.00     0.197 C
BRANCH  18  19
HETATM   19  O1  UNL     1      13.886  47.895 -43.848  1.00  0.00    -0.398 OA
ATOM     20  H1  UNL     1      13.863  46.949 -43.766  1.00  0.00     0.209 HD
ENDBRANCH  18  19
ENDBRANCH   1  18
BRANCH   1  21
HETATM   21  C8  UNL     1      12.428  48.019 -45.805  1.00  0.00     0.138 A
HETATM   22  N5  UNL     1      12.322  46.680 -46.038  1.00  0.00    -0.272 N
HETATM   23  N6  UNL     1      11.184  46.079 -45.773  1.00  0.00    -0.227 N
ATOM     24  H5  UNL     1      13.111  46.155 -46.412  1.00  0.00     0.190 HD
HETATM   25  N7  UNL     1      10.141  46.748 -45.286  1.00  0.00    -0.118 N
ATOM     26  H6  UNL     1      11.098  45.077 -45.944  1.00  0.00     0.209 HD
HETATM   27  C9  UNL     1      10.257  48.072 -45.059  1.00  0.00     0.693 A
ATOM     28  H7  UNL     1       9.264  46.265 -45.088  1.00  0.00     0.207 HD
HETATM   29  N9  UNL     1      11.410  48.715 -45.320  1.00  0.00    -0.176 N
ATOM     30  H9  UNL     1      11.498  49.717 -45.148  1.00  0.00     0.185 HD
BRANCH  27  31
HETATM   31  N8  UNL     1       9.238  48.736 -44.579  1.00  0.00    -0.233 N
ATOM     32  H82 UNL     1       8.844  48.477 -43.675  1.00  0.00     0.174 HD
ATOM     33  H81 UNL     1       8.844  49.510 -45.115  1.00  0.00     0.174 HD
ENDBRANCH  27  31
ENDBRANCH   1  21
TORSDOF 8
ENDMDL