MODEL 3
REMARK VINA RESULT: -7.995522730      6.236     12.659
REMARK  16 active torsions:
REMARK  status: ('A' for Active; 'I' for Inactive)
REMARK    1  A    between atoms: C3_4  and  C4_5
REMARK    2  A    between atoms: C4_5  and  O1_6
REMARK    3  A    between atoms: O1_6  and  C5_7
REMARK    4  A    between atoms: C5_7  and  C6_8
REMARK    5  A    between atoms: C6_8  and  O2_9
REMARK    6  A    between atoms: C6_8  and  C7_11
REMARK       I    between atoms: N5_18  and  C8_19
REMARK    7  A    between atoms: C8_19  and  C9_21
REMARK    8  A    between atoms: C9_21  and  O5_22
REMARK    9  A    between atoms: C9_21  and  C10_24
REMARK   10  A    between atoms: C11_28  and  C12_29
REMARK   11  A    between atoms: C13_31  and  C14_32
REMARK   12  A    between atoms: C15_38  and  C16_39
REMARK   13  A    between atoms: C18_45  and  O8_46
REMARK   14  A    between atoms: C19_48  and  O9_49
REMARK   15  A    between atoms: C21_53  and  O11_54
REMARK   16  A    between atoms: C22_56  and  O12_57
ROOT
HETATM    1  N1  UNL     1      37.945   4.518  21.478  1.00  0.00    -0.190 NA
HETATM    2  C1  UNL     1      37.326   4.210  22.409  1.00  0.00     0.122 C
HETATM    3  C2  UNL     1      36.541   3.843  23.553  1.00  0.00     0.167 A
HETATM    4  C3  UNL     1      36.766   2.676  24.304  1.00  0.00     0.090 A
HETATM    5  N3  UNL     1      35.822   2.738  25.249  1.00  0.00    -0.285 N
ATOM      6  H3  UNL     1      35.688   2.042  25.982  1.00  0.00     0.188 HD
HETATM    7  N4  UNL     1      35.078   3.839  25.102  1.00  0.00    -0.232 N
ATOM      8  H4  UNL     1      34.298   4.105  25.702  1.00  0.00     0.209 HD
HETATM    9  N5  UNL     1      35.506   4.529  24.065  1.00  0.00    -0.195 N
HETATM   10  C8  UNL     1      35.009   5.762  23.546  1.00  0.00     0.278 C
HETATM   11  O4  UNL     1      35.547   6.288  22.537  1.00  0.00    -0.268 OA
ENDROOT
BRANCH   4  12
HETATM   12  C4  UNL     1      37.825   1.682  24.007  1.00  0.00     0.229 C
BRANCH  12  13
HETATM   13  O1  UNL     1      37.400   0.746  23.149  1.00  0.00    -0.382 OA
BRANCH  13  14
HETATM   14  C5  UNL     1      36.766  -0.374  23.521  1.00  0.00     0.209 C
BRANCH  14  15
HETATM   15  C6  UNL     1      37.423  -1.690  23.199  1.00  0.00     0.230 C
BRANCH  15  16
HETATM   16  O2  UNL     1      38.504  -1.878  24.037  1.00  0.00    -0.384 OA
ATOM     17  H2  UNL     1      39.206  -2.298  23.554  1.00  0.00     0.210 HD
ENDBRANCH  15  16
BRANCH  15  18
HETATM   18  C7  UNL     1      36.437  -2.809  23.309  1.00  0.00     0.262 C
HETATM   19  N2  UNL     1      35.393  -2.973  22.369  1.00  0.00    -0.060 NA
HETATM   20  O3  UNL     1      36.510  -3.648  24.251  1.00  0.00    -0.274 OA
ENDBRANCH  15  18
ENDBRANCH  14  15
ENDBRANCH  13  14
ENDBRANCH  12  13
ENDBRANCH   4  12
BRANCH  10  21
HETATM   21  C9  UNL     1      33.867   6.479  24.144  1.00  0.00     0.268 C
BRANCH  21  22
HETATM   22  O5  UNL     1      33.059   6.950  23.125  1.00  0.00    -0.382 OA
ATOM     23  H5  UNL     1      33.526   7.631  22.656  1.00  0.00     0.210 HD
ENDBRANCH  21  22
BRANCH  21  24
HETATM   24  C10 UNL     1      34.458   7.654  24.932  1.00  0.00     0.360 C
HETATM   25  N6  UNL     1      35.866   7.441  25.051  1.00  0.00    -0.033 N
HETATM   26  C11 UNL     1      36.506   8.590  25.685  1.00  0.00     0.279 C
ATOM     27  H62 UNL     1      36.078   6.572  25.540  1.00  0.00     0.281 HD
ATOM     28  H61 UNL     1      36.293   7.218  24.152  1.00  0.00     0.281 HD
HETATM   29  C22 UNL     1      36.158   9.813  24.837  1.00  0.00     0.179 C
HETATM   30  C23 UNL     1      34.638   9.943  24.945  1.00  0.00     0.205 C
HETATM   31  O13 UNL     1      34.101   8.846  24.320  1.00  0.00    -0.354 OA
BRANCH  26  32
HETATM   32  C12 UNL     1      37.982   8.391  25.601  1.00  0.00     0.124 A
HETATM   33  O6  UNL     1      38.510   7.746  24.569  1.00  0.00    -0.304 OA
HETATM   34  C13 UNL     1      39.796   7.536  24.446  1.00  0.00     0.144 A
HETATM   35  C19 UNL     1      40.667   7.995  25.415  1.00  0.00     0.155 A
HETATM   36  C20 UNL     1      40.176   8.669  26.503  1.00  0.00     0.243 A
HETATM   37  O10 UNL     1      40.961   9.084  27.381  1.00  0.00    -0.282 OA
HETATM   38  C21 UNL     1      38.793   8.861  26.577  1.00  0.00     0.151 A
BRANCH  34  39
HETATM   39  C14 UNL     1      40.314   6.824  23.294  1.00  0.00     0.124 A
HETATM   40  N7  UNL     1      40.928   5.623  23.254  1.00  0.00    -0.237 N
HETATM   41  O7  UNL     1      41.236   5.332  22.032  1.00  0.00    -0.156 OA
ATOM     42  H7  UNL     1      41.119   5.034  24.064  1.00  0.00     0.197 HD
HETATM   43  N8  UNL     1      40.853   6.292  21.255  1.00  0.00    -0.237 N
HETATM   44  C15 UNL     1      40.262   7.265  21.999  1.00  0.00     0.119 A
ATOM     45  H8  UNL     1      40.975   6.315  20.243  1.00  0.00     0.197 HD
BRANCH  44  46
HETATM   46  C16 UNL     1      39.699   8.515  21.509  1.00  0.00     0.116 A
HETATM   47  N9  UNL     1      40.275   9.709  21.331  1.00  0.00    -0.347 N
HETATM   48  C17 UNL     1      39.340  10.547  20.861  1.00  0.00     0.183 A
ATOM     49  H9  UNL     1      41.250   9.940  21.519  1.00  0.00     0.167 HD
HETATM   50  N10 UNL     1      38.169   9.928  20.730  1.00  0.00    -0.331 N
HETATM   51  C18 UNL     1      38.378   8.655  21.131  1.00  0.00     0.170 A
ATOM     52  H10 UNL     1      37.294  10.331  20.395  1.00  0.00     0.168 HD
BRANCH  51  53
HETATM   53  O8  UNL     1      37.353   7.716  21.124  1.00  0.00    -0.344 OA
ATOM     54  H8  UNL     1      36.481   7.768  21.499  1.00  0.00     0.219 HD
ENDBRANCH  51  53
ENDBRANCH  44  46
ENDBRANCH  34  39
BRANCH  35  55
HETATM   55  O9  UNL     1      42.037   7.757  25.254  1.00  0.00    -0.355 OA
ATOM     56  H9  UNL     1      42.638   8.095  25.907  1.00  0.00     0.218 HD
ENDBRANCH  35  55
BRANCH  38  57
HETATM   57  O11 UNL     1      38.347   9.547  27.683  1.00  0.00    -0.355 OA
ATOM     58  H11 UNL     1      38.839   9.626  28.492  1.00  0.00     0.218 HD
ENDBRANCH  38  57
ENDBRANCH  26  32
BRANCH  29  59
HETATM   59  O12 UNL     1      36.533   9.630  23.521  1.00  0.00    -0.391 OA
ATOM     60  H12 UNL     1      37.404   9.974  23.361  1.00  0.00     0.210 HD
ENDBRANCH  29  59
ENDBRANCH  21  24
ENDBRANCH  10  21
TORSDOF 16
ENDMDL