MODEL 2
REMARK VINA RESULT: -7.418137595      2.959      7.189
REMARK  22 active torsions:
REMARK  status: ('A' for Active; 'I' for Inactive)
REMARK    1  A    between atoms: C2_2  and  O2_4
REMARK    2  A    between atoms: O2_4  and  C3_5
REMARK    3  A    between atoms: C3_5  and  C4_6
REMARK    4  A    between atoms: C4_6  and  O3_7
REMARK    5  A    between atoms: O3_7  and  C5_8
REMARK    6  A    between atoms: C7_11  and  C8_12
REMARK    7  A    between atoms: C9_16  and  O8_17
REMARK    8  A    between atoms: O8_17  and  C10_18
REMARK    9  A    between atoms: C10_18  and  C11_19
REMARK   10  A    between atoms: C12_20  and  O9_21
REMARK   11  A    between atoms: C13_23  and  O10_24
REMARK   12  A    between atoms: C14_26  and  O11_27
REMARK   13  A    between atoms: C15_29  and  O12_30
REMARK   14  A    between atoms: O12_30  and  C16_31
REMARK   15  A    between atoms: C16_31  and  C17_33
REMARK   16  A    between atoms: C19_35  and  O14_36
REMARK   17  A    between atoms: C20_38  and  O15_39
REMARK   18  A    between atoms: C21_41  and  O16_42
REMARK   19  A    between atoms: C23_45  and  O17_46
REMARK   20  A    between atoms: O17_46  and  C24_47
REMARK   21  A    between atoms: N1_48  and  O18_50
REMARK   22  A    between atoms: C25_52  and  O19_53
ROOT
HETATM    1  C11 UNL     1      37.579   1.051  22.697  1.00  0.00     0.073 C
HETATM    2  C12 UNL     1      37.136   2.414  23.156  1.00  0.00     0.158 C
HETATM    3  C13 UNL     1      37.710   3.523  22.347  1.00  0.00     0.178 C
HETATM    4  C14 UNL     1      39.232   3.383  22.179  1.00  0.00     0.181 C
HETATM    5  C15 UNL     1      39.435   2.054  21.519  1.00  0.00     0.193 C
HETATM    6  C23 UNL     1      39.073   0.991  22.568  1.00  0.00     0.170 C
ENDROOT
BRANCH   1   7
HETATM    7  C10 UNL     1      36.924  -0.052  23.422  1.00  0.00     0.181 C
BRANCH   7   8
HETATM    8  O8  UNL     1      37.495  -1.276  23.107  1.00  0.00    -0.358 OA
BRANCH   8   9
HETATM    9  C9  UNL     1      37.040  -2.340  23.842  1.00  0.00     0.292 C
HETATM   10  O7  UNL     1      38.096  -2.935  24.520  1.00  0.00    -0.339 OA
HETATM   11  C7  UNL     1      38.192  -4.266  24.099  1.00  0.00     0.265 C
HETATM   12  C4  UNL     1      37.950  -4.044  22.598  1.00  0.00     0.159 C
HETATM   13  C25 UNL     1      36.562  -3.411  22.801  1.00  0.00     0.213 C
BRANCH  11  14
HETATM   14  C8  UNL     1      39.403  -4.921  24.492  1.00  0.00     0.206 C
HETATM   15  O5  UNL     1      39.388  -5.959  25.207  1.00  0.00    -0.646 OA
HETATM   16  O6  UNL     1      40.673  -4.445  24.110  1.00  0.00    -0.646 OA
ENDBRANCH  11  14
BRANCH  12  17
HETATM   17  C3  UNL     1      38.023  -5.233  21.755  1.00  0.00     0.223 C
BRANCH  17  18
HETATM   18  O2  UNL     1      36.947  -5.945  21.333  1.00  0.00    -0.319 OA
BRANCH  18  19
HETATM   19  C2  UNL     1      36.353  -7.064  21.859  1.00  0.00     0.254 C
HETATM   20  C1  UNL     1      36.495  -8.418  21.247  1.00  0.00     0.126 C
HETATM   21  O1  UNL     1      35.657  -6.963  22.900  1.00  0.00    -0.266 OA
ENDBRANCH  18  19
ENDBRANCH  17  18
ENDBRANCH  12  17
BRANCH  12  22
HETATM   22  O3  UNL     1      38.737  -2.972  22.133  1.00  0.00    -0.302 OA
BRANCH  22  23
HETATM   23  C5  UNL     1      39.578  -2.882  21.085  1.00  0.00     0.255 C
HETATM   24  C6  UNL     1      41.050  -2.618  21.294  1.00  0.00     0.126 C
HETATM   25  O4  UNL     1      39.125  -3.020  19.926  1.00  0.00    -0.266 OA
ENDBRANCH  22  23
ENDBRANCH  12  22
BRANCH  13  26
HETATM   26  O19 UNL     1      35.716  -4.195  23.569  1.00  0.00    -0.387 OA
ATOM     27  H19 UNL     1      34.797  -4.046  23.378  1.00  0.00     0.210 HD
ENDBRANCH  13  26
ENDBRANCH   8   9
ENDBRANCH   7   8
ENDBRANCH   1   7
BRANCH   2  28
HETATM   28  O9  UNL     1      37.315   2.580  24.522  1.00  0.00    -0.392 OA
ATOM     29  H9  UNL     1      38.207   2.392  24.787  1.00  0.00     0.210 HD
ENDBRANCH   2  28
BRANCH   6  30
HETATM   30  O17 UNL     1      39.758   1.342  23.737  1.00  0.00    -0.336 OA
BRANCH  30  31
HETATM   31  C24 UNL     1      40.442   0.407  24.497  1.00  0.00     0.248 C
HETATM   32  N1  UNL     1      40.280  -0.818  24.080  1.00  0.00    -0.259 N
ATOM     33  H1  UNL     1      39.698  -1.025  23.269  1.00  0.00     0.195 HD
BRANCH  32  34
HETATM   34  O18 UNL     1      40.917  -1.817  24.765  1.00  0.00    -0.289 OA
ATOM     35  H18 UNL     1      40.845  -2.702  24.429  1.00  0.00     0.244 HD
ENDBRANCH  32  34
ENDBRANCH  30  31
ENDBRANCH   6  30
BRANCH   3  36
HETATM   36  O10 UNL     1      37.088   3.749  21.141  1.00  0.00    -0.390 OA
ATOM     37  H10 UNL     1      37.603   4.232  20.506  1.00  0.00     0.210 HD
ENDBRANCH   3  36
BRANCH   5  38
HETATM   38  O12 UNL     1      40.653   1.840  20.903  1.00  0.00    -0.307 OA
BRANCH  38  39
HETATM   39  C16 UNL     1      40.922   2.036  19.561  1.00  0.00     0.294 C
HETATM   40  O13 UNL     1      41.559   3.053  19.252  1.00  0.00    -0.259 OA
BRANCH  39  41
HETATM   41  C17 UNL     1      40.479   1.090  18.545  1.00  0.00     0.045 A
HETATM   42  C18 UNL     1      39.624   1.488  17.523  1.00  0.00     0.057 A
HETATM   43  C19 UNL     1      39.206   0.587  16.561  1.00  0.00     0.102 A
HETATM   44  C20 UNL     1      39.638  -0.711  16.614  1.00  0.00     0.132 A
HETATM   45  C21 UNL     1      40.496  -1.153  17.622  1.00  0.00     0.102 A
HETATM   46  C22 UNL     1      40.885  -0.228  18.555  1.00  0.00     0.057 A
BRANCH  43  47
HETATM   47  O14 UNL     1      38.356   0.978  15.544  1.00  0.00    -0.358 OA
ATOM     48  H14 UNL     1      37.486   0.606  15.465  1.00  0.00     0.217 HD
ENDBRANCH  43  47
BRANCH  44  49
HETATM   49  O15 UNL     1      39.247  -1.648  15.674  1.00  0.00    -0.356 OA
ATOM     50  H15 UNL     1      38.352  -1.964  15.627  1.00  0.00     0.218 HD
ENDBRANCH  44  49
BRANCH  45  51
HETATM   51  O16 UNL     1      40.918  -2.484  17.647  1.00  0.00    -0.358 OA
ATOM     52  H16 UNL     1      41.373  -2.824  18.409  1.00  0.00     0.217 HD
ENDBRANCH  45  51
ENDBRANCH  39  41
ENDBRANCH  38  39
ENDBRANCH   5  38
BRANCH   4  53
HETATM   53  O11 UNL     1      39.623   4.454  21.381  1.00  0.00    -0.390 OA
ATOM     54  H11 UNL     1      38.989   5.142  21.546  1.00  0.00     0.210 HD
ENDBRANCH   4  53
TORSDOF 22
ENDMDL