MODEL 3
REMARK VINA RESULT: -6.216540765      2.568      9.473
REMARK  18 active torsions:
REMARK  status: ('A' for Active; 'I' for Inactive)
REMARK    1  A    between atoms: S1_2  and  C2_3
REMARK    2  A    between atoms: C4_5  and  O1_6
REMARK    3  A    between atoms: C5_8  and  C6_9
REMARK    4  A    between atoms: C6_9  and  O2_10
REMARK    5  A    between atoms: C7_13  and  N1_14
REMARK    6  A    between atoms: C8_15  and  C9_16
REMARK       I    between atoms: C9_16  and  N2_18
REMARK    7  A    between atoms: N2_18  and  C10_20
REMARK    8  A    between atoms: C11_25  and  S2_26
REMARK    9  A    between atoms: S2_26  and  C12_27
REMARK   10  A    between atoms: N8_32  and  C13_33
REMARK   11  A    between atoms: C13_33  and  O5_34
REMARK   12  A    between atoms: O5_34  and  C14_35
REMARK   13  A    between atoms: C14_35  and  C15_36
REMARK   14  A    between atoms: C14_35  and  C16_39
REMARK   15  A    between atoms: C15_36  and  O6_37
REMARK   16  A    between atoms: C16_39  and  O7_40
REMARK   17  A    between atoms: C18_49  and  N12_50
REMARK   18  A    between atoms: C19_55  and  N14_56
ROOT
HETATM    1  N1  UNL     1      38.350  -1.042  23.453  1.00  0.00    -0.283 N
HETATM    2  C8  UNL     1      37.063  -0.800  23.731  1.00  0.00     0.182 A
HETATM    3  N11 UNL     1      36.365  -1.880  23.246  1.00  0.00    -0.332 N
ATOM      4  H11 UNL     1      35.353  -1.997  23.304  1.00  0.00     0.168 HD
HETATM    5  C17 UNL     1      37.202  -2.751  22.690  1.00  0.00     0.124 A
HETATM    6  C18 UNL     1      36.996  -3.983  22.061  1.00  0.00     0.145 A
HETATM    7  N13 UNL     1      38.065  -4.636  21.589  1.00  0.00    -0.175 N
ATOM      8  H13 UNL     1      37.927  -5.537  21.131  1.00  0.00     0.186 HD
HETATM    9  C19 UNL     1      39.311  -4.151  21.695  1.00  0.00     0.679 A
HETATM   10  N15 UNL     1      39.497  -2.958  22.305  1.00  0.00    -0.174 N
ATOM     11  H15 UNL     1      40.443  -2.585  22.387  1.00  0.00     0.186 HD
HETATM   12  C20 UNL     1      38.467  -2.250  22.805  1.00  0.00     0.158 A
ENDROOT
BRANCH   2  13
HETATM   13  C9  UNL     1      36.403   0.328  24.399  1.00  0.00     0.304 C
HETATM   14  O4  UNL     1      36.440   0.617  25.600  1.00  0.00    -0.263 OA
HETATM   15  N2  UNL     1      35.624   1.190  23.535  1.00  0.00    -0.150 N
ATOM     16  H2  UNL     1      34.732   0.863  23.163  1.00  0.00     0.188 HD
BRANCH  15  17
HETATM   17  C10 UNL     1      36.050   2.370  23.230  1.00  0.00     0.714 A
HETATM   18  N3  UNL     1      36.137   3.297  24.200  1.00  0.00    -0.129 N
HETATM   19  N4  UNL     1      36.574   4.543  23.949  1.00  0.00    -0.264 N
ATOM     20  H3  UNL     1      35.864   3.048  25.151  1.00  0.00     0.205 HD
HETATM   21  C11 UNL     1      36.927   4.845  22.692  1.00  0.00     0.182 A
ATOM     22  H4  UNL     1      36.635   5.238  24.693  1.00  0.00     0.189 HD
HETATM   23  N9  UNL     1      36.842   3.915  21.716  1.00  0.00    -0.264 N
HETATM   24  N10 UNL     1      36.408   2.684  21.974  1.00  0.00    -0.129 N
ATOM     25  H9  UNL     1      37.115   4.160  20.765  1.00  0.00     0.189 HD
ATOM     26  H10 UNL     1      36.349   1.989  21.230  1.00  0.00     0.205 HD
BRANCH  21  27
HETATM   27  S2  UNL     1      37.518   6.487  22.290  1.00  0.00    -0.013 SA
BRANCH  27  28
HETATM   28  C12 UNL     1      38.333   7.224  23.696  1.00  0.00     0.182 A
HETATM   29  N5  UNL     1      39.602   7.087  24.076  1.00  0.00    -0.264 N
HETATM   30  N6  UNL     1      39.838   7.788  25.171  1.00  0.00    -0.006 NA
ATOM     31  H5  UNL     1      40.295   6.520  23.590  1.00  0.00     0.186 HD
HETATM   32  N7  UNL     1      38.691   8.376  25.481  1.00  0.00    -0.002 NA
HETATM   33  N8  UNL     1      37.767   8.041  24.591  1.00  0.00    -0.232 N
BRANCH  33  34
HETATM   34  C13 UNL     1      36.400   8.535  24.669  1.00  0.00     0.317 C
BRANCH  34  35
HETATM   35  O5  UNL     1      35.521   7.512  24.976  1.00  0.00    -0.361 OA
BRANCH  35  36
HETATM   36  C14 UNL     1      34.251   7.864  24.574  1.00  0.00     0.170 C
BRANCH  36  37
HETATM   37  C15 UNL     1      33.484   6.637  24.133  1.00  0.00     0.198 C
BRANCH  37  38
HETATM   38  O6  UNL     1      32.195   6.689  24.652  1.00  0.00    -0.398 OA
ATOM     39  H6  UNL     1      31.570   6.738  23.938  1.00  0.00     0.209 HD
ENDBRANCH  37  38
ENDBRANCH  36  37
BRANCH  36  40
HETATM   40  C16 UNL     1      34.338   8.886  23.452  1.00  0.00     0.198 C
BRANCH  40  41
HETATM   41  O7  UNL     1      33.156   8.862  22.718  1.00  0.00    -0.398 OA
ATOM     42  H7  UNL     1      33.360   8.925  21.793  1.00  0.00     0.209 HD
ENDBRANCH  40  41
ENDBRANCH  36  40
ENDBRANCH  35  36
ENDBRANCH  34  35
ENDBRANCH  33  34
ENDBRANCH  27  28
ENDBRANCH  21  27
ENDBRANCH  15  17
ENDBRANCH   2  13
BRANCH   1  43
HETATM   43  C7  UNL     1      39.495  -0.251  23.738  1.00  0.00     0.253 C
HETATM   44  C2  UNL     1      39.918   0.780  22.773  1.00  0.00     0.077 C
HETATM   45  C3  UNL     1      39.608   2.190  23.311  1.00  0.00     0.034 C
HETATM   46  C4  UNL     1      41.431   0.681  22.771  1.00  0.00     0.171 C
HETATM   47  C5  UNL     1      41.696  -0.157  23.995  1.00  0.00     0.178 C
HETATM   48  O3  UNL     1      40.596  -1.012  24.110  1.00  0.00    -0.354 OA
BRANCH  44  49
HETATM   49  S1  UNL     1      39.323   0.624  21.101  1.00  0.00    -0.157 SA
HETATM   50  C1  UNL     1      40.427  -0.282  20.021  1.00  0.00     0.091 C
ENDBRANCH  44  49
BRANCH  46  51
HETATM   51  O1  UNL     1      42.067   1.910  22.859  1.00  0.00    -0.391 OA
ATOM     52  H1  UNL     1      42.984   1.882  22.613  1.00  0.00     0.210 HD
ENDBRANCH  46  51
BRANCH  47  53
HETATM   53  C6  UNL     1      43.006  -0.845  23.847  1.00  0.00     0.198 C
BRANCH  53  54
HETATM   54  O2  UNL     1      44.002  -0.030  24.355  1.00  0.00    -0.398 OA
ATOM     55  H2  UNL     1      43.835   0.123  25.278  1.00  0.00     0.209 HD
ENDBRANCH  53  54
ENDBRANCH  47  53
ENDBRANCH   1  43
BRANCH   6  56
HETATM   56  N12 UNL     1      35.795  -4.461  21.954  1.00  0.00    -0.383 N
ATOM     57 2H12 UNL     1      34.968  -3.886  22.111  1.00  0.00     0.157 HD
ATOM     58 1H12 UNL     1      35.659  -5.440  21.704  1.00  0.00     0.157 HD
ENDBRANCH   6  56
BRANCH   9  59
HETATM   59  N14 UNL     1      40.292  -4.837  21.214  1.00  0.00    -0.234 N
ATOM     60 2H14 UNL     1      40.234  -5.846  21.077  1.00  0.00     0.174 HD
ATOM     61 1H14 UNL     1      41.156  -4.356  20.963  1.00  0.00     0.174 HD
ENDBRANCH   9  59
TORSDOF 18
ENDMDL