MODEL 2
REMARK VINA RESULT: -6.367312253      3.208      8.441
REMARK  20 active torsions:
REMARK  status: ('A' for Active; 'I' for Inactive)
REMARK    1  A    between atoms: C2_2  and  O2_4
REMARK    2  A    between atoms: O2_4  and  C3_5
REMARK    3  A    between atoms: C3_5  and  C4_6
REMARK    4  A    between atoms: C5_8  and  O4_9
REMARK    5  A    between atoms: O4_9  and  C6_10
REMARK    6  A    between atoms: C6_10  and  C7_12
REMARK    7  A    between atoms: C8_13  and  O6_14
REMARK    8  A    between atoms: C9_16  and  N1_17
REMARK    9  A    between atoms: C10_18  and  O7_19
REMARK   10  A    between atoms: C11_21  and  O8_22
REMARK   11  A    between atoms: N2_24  and  O9_25
REMARK   12  A    between atoms: C13_29  and  O11_30
REMARK   13  A    between atoms: C14_32  and  O12_33
REMARK   14  A    between atoms: C15_35  and  N3_36
REMARK   15  A    between atoms: N3_36  and  N4_38
REMARK   16  A    between atoms: C17_43  and  O13_44
REMARK   17  A    between atoms: C18_46  and  O14_47
REMARK   18  A    between atoms: O14_47  and  C19_48
REMARK   19  A    between atoms: C21_51  and  O16_52
REMARK   20  A    between atoms: O16_52  and  C22_53
ROOT
HETATM    1  C7  UNL     1      38.013  -2.131  23.228  1.00  0.00     0.106 A
HETATM    2  C8  UNL     1      37.281  -0.959  23.243  1.00  0.00     0.114 A
HETATM    3  C9  UNL     1      37.942   0.276  23.388  1.00  0.00     0.116 A
HETATM    4  C13 UNL     1      39.305   0.264  23.510  1.00  0.00     0.132 A
HETATM    5  C14 UNL     1      40.038  -0.890  23.497  1.00  0.00     0.131 A
HETATM    6  C15 UNL     1      39.388  -2.109  23.355  1.00  0.00     0.106 A
ENDROOT
BRANCH   1   7
HETATM    7  C6  UNL     1      37.321  -3.396  23.083  1.00  0.00     0.301 C
HETATM    8  O5  UNL     1      37.243  -4.168  24.099  1.00  0.00    -0.259 OA
BRANCH   7   9
HETATM    9  O4  UNL     1      36.719  -3.874  21.936  1.00  0.00    -0.283 OA
BRANCH   9  10
HETATM   10  C5  UNL     1      37.290  -4.938  21.247  1.00  0.00     0.301 C
HETATM   11  O3  UNL     1      37.406  -4.715  19.878  1.00  0.00    -0.348 OA
HETATM   12  C4  UNL     1      38.359  -5.629  19.408  1.00  0.00     0.181 C
HETATM   13  C21 UNL     1      37.828  -7.038  19.451  1.00  0.00     0.195 C
HETATM   14  C18 UNL     1      37.411  -7.340  20.874  1.00  0.00     0.197 C
HETATM   15  C17 UNL     1      36.497  -6.237  21.401  1.00  0.00     0.206 C
BRANCH  12  16
HETATM   16  C3  UNL     1      38.826  -5.208  18.050  1.00  0.00     0.213 C
BRANCH  16  17
HETATM   17  O2  UNL     1      38.083  -4.113  17.579  1.00  0.00    -0.319 OA
BRANCH  17  18
HETATM   18  C2  UNL     1      37.702  -4.090  16.261  1.00  0.00     0.254 C
HETATM   19  C1  UNL     1      36.575  -4.921  15.792  1.00  0.00     0.126 C
HETATM   20  O1  UNL     1      38.312  -3.363  15.451  1.00  0.00    -0.266 OA
ENDBRANCH  17  18
ENDBRANCH  16  17
ENDBRANCH  12  16
BRANCH  13  21
HETATM   21  O16 UNL     1      36.774  -7.257  18.538  1.00  0.00    -0.311 OA
BRANCH  21  22
HETATM   22  C22 UNL     1      36.824  -8.274  17.597  1.00  0.00     0.255 C
HETATM   23  C23 UNL     1      35.825  -9.367  17.648  1.00  0.00     0.126 C
HETATM   24  O17 UNL     1      37.694  -8.294  16.699  1.00  0.00    -0.266 OA
ENDBRANCH  21  22
ENDBRANCH  13  21
BRANCH  14  25
HETATM   25  O14 UNL     1      36.762  -8.600  20.924  1.00  0.00    -0.311 OA
BRANCH  25  26
HETATM   26  C19 UNL     1      37.486  -9.762  21.038  1.00  0.00     0.255 C
HETATM   27  C20 UNL     1      36.881 -11.116  20.787  1.00  0.00     0.126 C
HETATM   28  O15 UNL     1      38.697  -9.667  21.365  1.00  0.00    -0.266 OA
ENDBRANCH  25  26
ENDBRANCH  14  25
BRANCH  15  29
HETATM   29  O13 UNL     1      36.253  -6.503  22.754  1.00  0.00    -0.388 OA
ATOM     30  H13 UNL     1      36.740  -7.269  23.035  1.00  0.00     0.210 HD
ENDBRANCH  15  29
ENDBRANCH   9  10
ENDBRANCH   7   9
ENDBRANCH   1   7
BRANCH   2  31
HETATM   31  O6  UNL     1      35.938  -0.875  23.126  1.00  0.00    -0.357 OA
ATOM     32  H6  UNL     1      35.409  -0.134  23.395  1.00  0.00     0.217 HD
ENDBRANCH   2  31
BRANCH   6  33
HETATM   33  N3  UNL     1      40.212  -3.263  23.343  1.00  0.00    -0.279 N
HETATM   34  C16 UNL     1      40.763  -3.848  22.128  1.00  0.00     0.179 C
BRANCH  33  35
HETATM   35  N4  UNL     1      40.535  -3.869  24.556  1.00  0.00    -0.247 N
HETATM   36  N5  UNL     1      40.051  -4.985  24.885  1.00  0.00    -0.331 N
ATOM     37  H52 UNL     1      39.410  -5.442  24.236  1.00  0.00     0.178 HD
ATOM     38  H51 UNL     1      40.287  -5.429  25.772  1.00  0.00     0.178 HD
ATOM     39  H4  UNL     1      41.177  -3.398  25.193  1.00  0.00     0.208 HD
ENDBRANCH  33  35
ENDBRANCH   6  33
BRANCH   3  40
HETATM   40  N1  UNL     1      37.157   1.452  23.397  1.00  0.00    -0.233 N
HETATM   41  C10 UNL     1      36.317   1.851  24.375  1.00  0.00     0.206 A
HETATM   42  C11 UNL     1      35.752   3.053  23.981  1.00  0.00     0.224 A
HETATM   43  N2  UNL     1      36.249   3.376  22.778  1.00  0.00    -0.144 N
HETATM   44  C12 UNL     1      37.092   2.403  22.441  1.00  0.00     0.362 A
HETATM   45  O10 UNL     1      37.748   2.365  21.374  1.00  0.00    -0.243 OA
BRANCH  41  46
HETATM   46  O7  UNL     1      36.042   1.206  25.565  1.00  0.00    -0.342 OA
ATOM     47  H7  UNL     1      35.303   0.642  25.762  1.00  0.00     0.219 HD
ENDBRANCH  41  46
BRANCH  42  48
HETATM   48  O8  UNL     1      34.827   3.791  24.720  1.00  0.00    -0.341 OA
ATOM     49  H8  UNL     1      33.901   3.868  24.521  1.00  0.00     0.219 HD
ENDBRANCH  42  48
BRANCH  43  50
HETATM   50  O9  UNL     1      35.921   4.500  22.071  1.00  0.00    -0.277 OA
ATOM     51  H9  UNL     1      36.546   5.103  21.687  1.00  0.00     0.245 HD
ENDBRANCH  43  50
ENDBRANCH   3  40
BRANCH   5  52
HETATM   52  O12 UNL     1      41.402  -0.901  23.621  1.00  0.00    -0.356 OA
ATOM     53  H12 UNL     1      41.851  -1.362  24.320  1.00  0.00     0.218 HD
ENDBRANCH   5  52
BRANCH   4  54
HETATM   54  O11 UNL     1      39.907   1.516  23.651  1.00  0.00    -0.356 OA
ATOM     55  H11 UNL     1      39.769   1.944  24.488  1.00  0.00     0.218 HD
ENDBRANCH   4  54
TORSDOF 20
ENDMDL