MODEL 4
REMARK VINA RESULT: -8.229648013      1.285      1.724
REMARK  15 active torsions:
REMARK  status: ('A' for Active; 'I' for Inactive)
REMARK    1  A    between atoms: C2_2  and  O1_3
REMARK    2  A    between atoms: C2_2  and  C23_59
REMARK    3  A    between atoms: O1_3  and  N1_4
REMARK    4  A    between atoms: C3_6  and  N2_7
REMARK    5  A    between atoms: N3_9  and  C4_11
REMARK    6  A    between atoms: N7_18  and  C5_19
REMARK    7  A    between atoms: C6_23  and  N10_24
REMARK    8  A    between atoms: N10_24  and  C7_26
REMARK    9  A    between atoms: C7_26  and  C8_27
REMARK   10  A    between atoms: C8_27  and  N11_28
REMARK   11  A    between atoms: N11_28  and  C9_31
REMARK   12  A    between atoms: C12_35  and  O2_37
REMARK   13  A    between atoms: C14_39  and  O3_40
REMARK   14  A    between atoms: C18_49  and  O6_50
REMARK   15  A    between atoms: C20_53  and  O7_54
ROOT
HETATM    1  C5  UNL     1      36.454  -5.798  22.577  1.00  0.00     0.215 A
HETATM    2  N8  UNL     1      37.662  -5.547  22.899  1.00  0.00    -0.271 N
ATOM      3  H8  UNL     1      38.371  -6.271  23.001  1.00  0.00     0.189 HD
HETATM    4  N9  UNL     1      37.928  -4.187  23.099  1.00  0.00    -0.231 N
HETATM    5  C6  UNL     1      39.107  -3.582  23.405  1.00  0.00     0.140 A
HETATM    6  C15 UNL     1      39.103  -2.186  23.490  1.00  0.00     0.093 A
HETATM    7  C16 UNL     1      40.220  -1.439  23.819  1.00  0.00     0.263 A
HETATM    8  O4  UNL     1      41.305  -1.991  24.027  1.00  0.00    -0.267 OA
HETATM    9  N13 UNL     1      40.156  -0.077  23.918  1.00  0.00    -0.287 N
ATOM     10  H13 UNL     1      40.999   0.443  24.163  1.00  0.00     0.172 HD
HETATM   11  C17 UNL     1      39.021   0.588  23.705  1.00  0.00     0.282 A
HETATM   12  O5  UNL     1      39.006   1.849  23.806  1.00  0.00    -0.265 OA
HETATM   13  C18 UNL     1      37.861  -0.053  23.375  1.00  0.00     0.148 A
HETATM   14  C19 UNL     1      37.880  -1.432  23.264  1.00  0.00     0.058 A
HETATM   15  C20 UNL     1      36.729  -2.115  22.962  1.00  0.00     0.113 A
HETATM   16  C21 UNL     1      36.808  -3.484  22.893  1.00  0.00     0.146 A
HETATM   17  C22 UNL     1      35.781  -4.494  22.544  1.00  0.00     0.251 A
HETATM   18  O8  UNL     1      34.600  -4.227  22.289  1.00  0.00    -0.282 OA
ENDROOT
BRANCH   1  19
HETATM   19  N7  UNL     1      35.791  -7.024  22.287  1.00  0.00    -0.046 N
HETATM   20  C4  UNL     1      36.289  -8.090  21.546  1.00  0.00     0.737 A
HETATM   21  N4  UNL     1      35.371  -9.039  21.497  1.00  0.00    -0.113 N
HETATM   22  N5  UNL     1      34.313  -8.629  22.168  1.00  0.00    -0.213 N
ATOM     23  H4  UNL     1      35.466  -9.937  21.022  1.00  0.00     0.207 HD
HETATM   24  N6  UNL     1      34.591  -7.400  22.640  1.00  0.00    -0.205 N
ATOM     25  H5  UNL     1      33.444  -9.147  22.304  1.00  0.00     0.210 HD
ATOM     26  H6  UNL     1      33.949  -6.837  23.199  1.00  0.00     0.211 HD
BRANCH  20  27
HETATM   27  N3  UNL     1      37.594  -7.965  21.023  1.00  0.00    -0.128 N
HETATM   28  N2  UNL     1      38.111  -8.525  20.043  1.00  0.00    -0.280 N
ATOM     29  H2  UNL     1      37.593  -9.188  19.466  1.00  0.00     0.188 HD
ATOM     30  H3  UNL     1      38.202  -7.317  21.523  1.00  0.00     0.205 HD
BRANCH  28  31
HETATM   31  C3  UNL     1      39.472  -8.190  19.770  1.00  0.00     0.221 C
HETATM   32  N1  UNL     1      39.953  -7.038  19.939  1.00  0.00    -0.260 N
ATOM     33  H1  UNL     1      40.941  -6.954  19.697  1.00  0.00     0.195 HD
BRANCH  32  34
HETATM   34  O1  UNL     1      39.399  -5.916  20.375  1.00  0.00    -0.265 OA
BRANCH  34  35
HETATM   35  C2  UNL     1      39.186  -4.715  19.624  1.00  0.00     0.237 C
HETATM   36  C1  UNL     1      40.499  -4.435  18.941  1.00  0.00     0.052 C
BRANCH  35  37
HETATM   37  C23 UNL     1      38.089  -4.919  18.663  1.00  0.00     0.262 C
HETATM   38  N14 UNL     1      38.031  -4.164  17.466  1.00  0.00    -0.060 NA
HETATM   39  O9  UNL     1      37.211  -5.771  18.925  1.00  0.00    -0.274 OA
ENDBRANCH  35  37
ENDBRANCH  34  35
ENDBRANCH  32  34
ENDBRANCH  28  31
ENDBRANCH  20  27
ENDBRANCH   1  19
BRANCH   5  40
HETATM   40  N10 UNL     1      40.241  -4.312  23.829  1.00  0.00    -0.372 N
ATOM     41  H10 UNL     1      41.163  -4.146  23.427  1.00  0.00     0.161 HD
BRANCH  40  42
HETATM   42  C7  UNL     1      40.029  -5.321  24.877  1.00  0.00     0.149 C
BRANCH  42  43
HETATM   43  C8  UNL     1      41.169  -5.174  25.916  1.00  0.00     0.253 C
BRANCH  43  44
HETATM   44  N11 UNL     1      40.906  -6.055  27.021  1.00  0.00    -0.062 N
ATOM     45 2H11 UNL     1      39.927  -5.997  27.301  1.00  0.00     0.278 HD
ATOM     46 1H11 UNL     1      40.942  -7.029  26.718  1.00  0.00     0.278 HD
BRANCH  44  47
HETATM   47  C9  UNL     1      41.734  -5.855  28.110  1.00  0.00     0.264 C
HETATM   48  C10 UNL     1      43.056  -6.584  28.096  1.00  0.00     0.056 C
HETATM   49  N12 UNL     1      43.780  -7.144  27.032  1.00  0.00    -0.105 NA
HETATM   50  C11 UNL     1      43.489  -6.642  29.372  1.00  0.00     0.037 C
HETATM   51  C12 UNL     1      42.494  -5.971  30.269  1.00  0.00     0.102 C
HETATM   52  C13 UNL     1      42.477  -6.487  31.656  1.00  0.00     0.053 C
HETATM   53  C14 UNL     1      41.218  -6.366  29.462  1.00  0.00     0.192 C
BRANCH  51  54
HETATM   54  O2  UNL     1      42.541  -4.589  30.183  1.00  0.00    -0.383 OA
ATOM     55  H2  UNL     1      43.411  -4.241  30.334  1.00  0.00     0.211 HD
ENDBRANCH  51  54
BRANCH  53  56
HETATM   56  O3  UNL     1      41.119  -7.753  29.453  1.00  0.00    -0.390 OA
ATOM     57  H3  UNL     1      40.215  -8.021  29.340  1.00  0.00     0.210 HD
ENDBRANCH  53  56
ENDBRANCH  44  47
ENDBRANCH  43  44
ENDBRANCH  42  43
ENDBRANCH  40  42
ENDBRANCH   5  40
BRANCH  15  58
HETATM   58  O7  UNL     1      35.582  -1.421  22.750  1.00  0.00    -0.357 OA
ATOM     59  H7  UNL     1      35.259  -0.840  23.429  1.00  0.00     0.217 HD
ENDBRANCH  15  58
BRANCH  13  60
HETATM   60  O6  UNL     1      36.655   0.573  23.144  1.00  0.00    -0.355 OA
ATOM     61  H6  UNL     1      35.908   0.543  23.731  1.00  0.00     0.218 HD
ENDBRANCH  13  60
TORSDOF 15
ENDMDL