MODEL 3
REMARK VINA RESULT: -6.389888832      2.629      6.918
REMARK  21 active torsions:
REMARK  status: ('A' for Active; 'I' for Inactive)
REMARK    1  A    between atoms: C2_2  and  O2_4
REMARK    2  A    between atoms: O2_4  and  C3_5
REMARK    3  A    between atoms: C4_7  and  C5_8
REMARK    4  A    between atoms: C5_8  and  O4_9
REMARK    5  A    between atoms: O4_9  and  C6_10
REMARK    6  A    between atoms: C6_10  and  O6_15
REMARK    7  A    between atoms: N1_11  and  O5_13
REMARK    8  A    between atoms: O6_15  and  C7_16
REMARK    9  A    between atoms: C7_16  and  C8_17
REMARK   10  A    between atoms: C8_17  and  O7_18
REMARK   11  A    between atoms: O7_18  and  C9_19
REMARK   12  A    between atoms: C9_19  and  C10_20
REMARK   13  A    between atoms: C11_22  and  O9_23
REMARK   14  A    between atoms: O9_23  and  C12_24
REMARK   15  A    between atoms: C15_28  and  O11_29
REMARK   16  A    between atoms: C16_31  and  O12_32
REMARK   17  A    between atoms: C17_34  and  O13_35
REMARK   18  A    between atoms: C18_38  and  O15_40
REMARK   19  A    between atoms: C21_44  and  O16_45
REMARK   20  A    between atoms: C22_47  and  O17_48
REMARK   21  A    between atoms: C23_50  and  O18_51
ROOT
HETATM    1  C8  UNL     1      40.867  -0.638  19.054  1.00  0.00     0.194 C
ENDROOT
BRANCH   1   2
HETATM    2  C7  UNL     1      40.256  -0.192  17.764  1.00  0.00     0.205 C
BRANCH   2   3
HETATM    3  O6  UNL     1      39.647  -1.132  16.968  1.00  0.00    -0.313 OA
BRANCH   3   4
HETATM    4  C6  UNL     1      38.715  -0.895  15.949  1.00  0.00     0.284 C
HETATM    5  N1  UNL     1      38.455   0.334  15.746  1.00  0.00    -0.226 N
ATOM      6  H1  UNL     1      38.924   1.036  16.318  1.00  0.00     0.198 HD
BRANCH   4   7
HETATM    7  O4  UNL     1      38.143  -1.939  15.242  1.00  0.00    -0.312 OA
BRANCH   7   8
HETATM    8  C5  UNL     1      37.600  -3.085  15.821  1.00  0.00     0.214 C
BRANCH   8   9
HETATM    9  C4  UNL     1      37.490  -4.226  14.819  1.00  0.00     0.180 C
HETATM   10  O3  UNL     1      38.244  -5.309  15.150  1.00  0.00    -0.348 OA
HETATM   11  C3  UNL     1      37.660  -6.254  15.937  1.00  0.00     0.301 C
HETATM   12  C23 UNL     1      36.317  -6.728  15.429  1.00  0.00     0.205 C
HETATM   13  C22 UNL     1      35.406  -5.493  15.457  1.00  0.00     0.183 C
HETATM   14  C21 UNL     1      36.044  -4.477  14.557  1.00  0.00     0.180 C
BRANCH  11  15
HETATM   15  O2  UNL     1      37.488  -5.882  17.288  1.00  0.00    -0.287 OA
BRANCH  15  16
HETATM   16  C2  UNL     1      38.163  -6.517  18.323  1.00  0.00     0.257 C
HETATM   17  C1  UNL     1      39.622  -6.343  18.561  1.00  0.00     0.126 C
HETATM   18  O1  UNL     1      37.445  -7.265  19.065  1.00  0.00    -0.266 OA
ENDBRANCH  15  16
ENDBRANCH  11  15
BRANCH  12  19
HETATM   19  O18 UNL     1      35.837  -7.711  16.273  1.00  0.00    -0.388 OA
ATOM     20  H18 UNL     1      35.073  -7.380  16.731  1.00  0.00     0.210 HD
ENDBRANCH  12  19
BRANCH  13  21
HETATM   21  O17 UNL     1      34.153  -5.797  14.931  1.00  0.00    -0.390 OA
ATOM     22  H17 UNL     1      33.572  -5.982  15.659  1.00  0.00     0.210 HD
ENDBRANCH  13  21
BRANCH  14  23
HETATM   23  O16 UNL     1      35.871  -4.904  13.241  1.00  0.00    -0.390 OA
ATOM     24  H16 UNL     1      34.971  -4.759  12.972  1.00  0.00     0.210 HD
ENDBRANCH  14  23
ENDBRANCH   8   9
ENDBRANCH   7   8
ENDBRANCH   4   7
BRANCH   5  25
HETATM   25  O5  UNL     1      37.582   0.744  14.804  1.00  0.00    -0.286 OA
ATOM     26  H5  UNL     1      36.677   0.456  14.786  1.00  0.00     0.244 HD
ENDBRANCH   5  25
ENDBRANCH   3   4
ENDBRANCH   2   3
ENDBRANCH   1   2
BRANCH   1  27
HETATM   27  O7  UNL     1      40.592   0.409  19.974  1.00  0.00    -0.386 OA
BRANCH  27  28
HETATM   28  C9  UNL     1      40.304  -0.015  21.235  1.00  0.00     0.201 C
BRANCH  28  29
HETATM   29  C10 UNL     1      38.887   0.289  21.653  1.00  0.00     0.170 C
HETATM   30  O8  UNL     1      38.179  -0.872  21.960  1.00  0.00    -0.330 OA
HETATM   31  C11 UNL     1      38.612  -1.461  23.137  1.00  0.00     0.418 C
HETATM   32  O14 UNL     1      39.256  -0.583  23.986  1.00  0.00    -0.301 OA
HETATM   33  C18 UNL     1      38.696   0.669  24.044  1.00  0.00     0.179 C
HETATM   34  C19 UNL     1      37.271   0.659  24.549  1.00  0.00     0.080 C
HETATM   35  C20 UNL     1      38.801   1.351  22.697  1.00  0.00     0.151 C
HETATM   36  S1  UNL     1      37.263   2.336  22.509  1.00  0.00    -0.084 SA
BRANCH  31  37
HETATM   37  O9  UNL     1      37.482  -1.938  23.802  1.00  0.00    -0.305 OA
BRANCH  37  38
HETATM   38  C12 UNL     1      37.386  -3.315  23.769  1.00  0.00     0.297 C
HETATM   39  O10 UNL     1      38.662  -3.806  23.455  1.00  0.00    -0.351 OA
HETATM   40  C13 UNL     1      38.749  -5.174  23.637  1.00  0.00     0.152 C
HETATM   41  C14 UNL     1      40.187  -5.571  23.347  1.00  0.00     0.042 C
HETATM   42  C15 UNL     1      37.845  -5.894  22.690  1.00  0.00     0.178 C
HETATM   43  C16 UNL     1      37.092  -4.889  21.846  1.00  0.00     0.183 C
HETATM   44  C17 UNL     1      36.440  -3.820  22.720  1.00  0.00     0.204 C
BRANCH  42  45
HETATM   45  O11 UNL     1      38.512  -6.745  21.830  1.00  0.00    -0.390 OA
ATOM     46  H11 UNL     1      39.160  -7.290  22.262  1.00  0.00     0.210 HD
ENDBRANCH  42  45
BRANCH  43  47
HETATM   47  O12 UNL     1      36.050  -5.578  21.229  1.00  0.00    -0.390 OA
ATOM     48  H12 UNL     1      36.101  -5.383  20.301  1.00  0.00     0.210 HD
ENDBRANCH  43  47
BRANCH  44  49
HETATM   49  O13 UNL     1      35.337  -4.454  23.328  1.00  0.00    -0.388 OA
ATOM     50  H13 UNL     1      35.425  -5.397  23.262  1.00  0.00     0.210 HD
ENDBRANCH  44  49
ENDBRANCH  37  38
ENDBRANCH  31  37
BRANCH  33  51
HETATM   51  O15 UNL     1      39.439   1.430  24.947  1.00  0.00    -0.364 OA
ATOM     52  H15 UNL     1      38.866   1.675  25.663  1.00  0.00     0.213 HD
ENDBRANCH  33  51
ENDBRANCH  28  29
ENDBRANCH  27  28
ENDBRANCH   1  27
TORSDOF 21
ENDMDL