MODEL 2
REMARK VINA RESULT: -7.117457161      3.022      7.919
REMARK  20 active torsions:
REMARK  status: ('A' for Active; 'I' for Inactive)
REMARK    1  A    between atoms: O1_2  and  C2_3
REMARK    2  A    between atoms: C2_3  and  C3_5
REMARK    3  A    between atoms: C5_9  and  O5_10
REMARK    4  A    between atoms: C6_12  and  C7_13
REMARK    5  A    between atoms: C8_15  and  N1_16
REMARK    6  A    between atoms: N1_16  and  N2_18
REMARK       I    between atoms: N3_23  and  C12_24
REMARK    7  A    between atoms: C12_24  and  C13_26
REMARK    8  A    between atoms: C13_26  and  C14_27
REMARK    9  A    between atoms: C14_27  and  N4_28
REMARK   10  A    between atoms: C15_30  and  O8_32
REMARK   11  A    between atoms: O8_32  and  C16_33
REMARK   12  A    between atoms: C17_35  and  C18_36
REMARK   13  A    between atoms: C18_36  and  O10_37
REMARK   14  A    between atoms: C18_36  and  C19_39
REMARK   15  A    between atoms: C19_39  and  O11_40
REMARK   16  A    between atoms: C20_42  and  O12_43
REMARK   17  A    between atoms: C21_45  and  O13_46
REMARK   18  A    between atoms: C22_48  and  O14_49
REMARK   19  A    between atoms: C23_51  and  O15_52
REMARK   20  A    between atoms: C24_54  and  O16_55
ROOT
HETATM    1  C7  UNL     1      37.883  -0.513  22.596  1.00  0.00     0.146 A
HETATM    2  O6  UNL     1      37.076   0.426  23.038  1.00  0.00    -0.272 OA
HETATM    3  C8  UNL     1      37.485   1.606  22.560  1.00  0.00     0.255 A
HETATM    4  N3  UNL     1      38.561   1.423  21.807  1.00  0.00    -0.222 N
HETATM    5  C12 UNL     1      39.322   2.389  21.122  1.00  0.00     0.234 C
HETATM    6  O7  UNL     1      39.097   3.631  21.115  1.00  0.00    -0.272 OA
HETATM    7  C23 UNL     1      38.827   0.074  21.819  1.00  0.00     0.188 A
ENDROOT
BRANCH   3   8
HETATM    8  N1  UNL     1      36.840   2.628  22.871  1.00  0.00    -0.264 N
ATOM      9  H1  UNL     1      36.510   2.536  23.832  1.00  0.00     0.190 HD
BRANCH   8  10
HETATM   10  N2  UNL     1      36.444   3.776  22.388  1.00  0.00    -0.307 N
HETATM   11  C9  UNL     1      35.730   4.700  22.926  1.00  0.00    -0.004 C
HETATM   12  C10 UNL     1      35.404   5.937  22.167  1.00  0.00     0.064 C
HETATM   13  C11 UNL     1      35.207   4.566  24.315  1.00  0.00     0.064 C
ATOM     14  H2  UNL     1      36.750   3.969  21.434  1.00  0.00     0.186 HD
ENDBRANCH   8  10
ENDBRANCH   3   8
BRANCH   5  15
HETATM   15  C13 UNL     1      40.504   1.971  20.324  1.00  0.00     0.123 C
BRANCH  15  16
HETATM   16  C14 UNL     1      40.215   2.002  18.827  1.00  0.00     0.132 C
BRANCH  16  17
HETATM   17  N4  UNL     1      39.588   0.787  18.351  1.00  0.00    -0.358 N
HETATM   18  C15 UNL     1      39.592   0.559  17.090  1.00  0.00     0.229 C
HETATM   19  N5  UNL     1      40.200   1.481  16.201  1.00  0.00    -0.056 NA
ATOM     20  H4  UNL     1      39.154   0.131  19.001  1.00  0.00     0.162 HD
BRANCH  18  21
HETATM   21  O8  UNL     1      38.985  -0.609  16.674  1.00  0.00    -0.290 OA
BRANCH  21  22
HETATM   22  C16 UNL     1      39.771  -1.675  16.266  1.00  0.00     0.300 C
HETATM   23  O9  UNL     1      38.979  -2.371  15.313  1.00  0.00    -0.347 OA
HETATM   24  C17 UNL     1      37.958  -3.060  16.011  1.00  0.00     0.186 C
HETATM   25  C20 UNL     1      38.491  -4.232  16.792  1.00  0.00     0.181 C
HETATM   26  C21 UNL     1      40.018  -4.054  16.808  1.00  0.00     0.183 C
HETATM   27  C22 UNL     1      40.228  -2.624  17.314  1.00  0.00     0.205 C
BRANCH  24  28
HETATM   28  C18 UNL     1      36.947  -3.532  15.009  1.00  0.00     0.173 C
BRANCH  28  29
HETATM   29  O10 UNL     1      36.050  -4.436  15.633  1.00  0.00    -0.391 OA
ATOM     30  H10 UNL     1      35.394  -3.948  16.115  1.00  0.00     0.210 HD
ENDBRANCH  28  29
BRANCH  28  31
HETATM   31  C19 UNL     1      36.140  -2.379  14.410  1.00  0.00     0.198 C
BRANCH  31  32
HETATM   32  O11 UNL     1      36.118  -2.597  13.026  1.00  0.00    -0.398 OA
ATOM     33  H11 UNL     1      35.862  -1.772  12.633  1.00  0.00     0.209 HD
ENDBRANCH  31  32
ENDBRANCH  28  31
ENDBRANCH  24  28
BRANCH  25  34
HETATM   34  O12 UNL     1      38.132  -4.121  18.159  1.00  0.00    -0.390 OA
ATOM     35  H12 UNL     1      38.868  -3.804  18.671  1.00  0.00     0.210 HD
ENDBRANCH  25  34
BRANCH  26  36
HETATM   36  O13 UNL     1      40.573  -4.950  17.714  1.00  0.00    -0.390 OA
ATOM     37  H13 UNL     1      40.486  -5.832  17.373  1.00  0.00     0.210 HD
ENDBRANCH  26  36
BRANCH  27  38
HETATM   38  O14 UNL     1      41.625  -2.544  17.538  1.00  0.00    -0.388 OA
ATOM     39  H14 UNL     1      41.940  -1.648  17.537  1.00  0.00     0.210 HD
ENDBRANCH  27  38
ENDBRANCH  21  22
ENDBRANCH  18  21
ENDBRANCH  16  17
ENDBRANCH  15  16
ENDBRANCH   5  15
BRANCH   7  40
HETATM   40  O15 UNL     1      39.894  -0.482  21.118  1.00  0.00    -0.344 OA
ATOM     41  H15 UNL     1      39.908  -0.967  20.300  1.00  0.00     0.219 HD
ENDBRANCH   7  40
BRANCH   1  42
HETATM   42  C6  UNL     1      37.685  -1.925  22.951  1.00  0.00     0.078 A
HETATM   43  C5  UNL     1      36.492  -2.534  22.855  1.00  0.00     0.158 A
HETATM   44  C4  UNL     1      36.326  -3.869  23.266  1.00  0.00     0.323 A
HETATM   45  O3  UNL     1      37.344  -4.519  23.743  1.00  0.00    -0.264 OA
HETATM   46  O4  UNL     1      35.212  -4.431  23.178  1.00  0.00    -0.257 OA
HETATM   47  C3  UNL     1      38.524  -4.016  23.870  1.00  0.00     0.188 A
HETATM   48  C24 UNL     1      38.745  -2.684  23.475  1.00  0.00     0.122 A
BRANCH  43  49
HETATM   49  O5  UNL     1      35.368  -1.923  22.354  1.00  0.00    -0.355 OA
ATOM     50  H5  UNL     1      35.175  -1.064  22.711  1.00  0.00     0.218 HD
ENDBRANCH  43  49
BRANCH  47  51
HETATM   51  C2  UNL     1      39.627  -4.789  24.407  1.00  0.00     0.320 C
HETATM   52  O2  UNL     1      40.727  -4.768  23.807  1.00  0.00    -0.257 OA
BRANCH  51  53
HETATM   53  O1  UNL     1      39.467  -5.546  25.574  1.00  0.00    -0.321 OA
HETATM   54  C1  UNL     1      40.647  -6.022  26.201  1.00  0.00     0.213 C
ENDBRANCH  51  53
ENDBRANCH  47  51
BRANCH  48  55
HETATM   55  O16 UNL     1      39.992  -2.180  23.621  1.00  0.00    -0.357 OA
ATOM     56  H16 UNL     1      40.531  -2.095  22.843  1.00  0.00     0.218 HD
ENDBRANCH  48  55
ENDBRANCH   1  42
TORSDOF 20
ENDMDL