MODEL 4
REMARK VINA RESULT: -7.726526908      1.007      1.268
REMARK  18 active torsions:
REMARK  status: ('A' for Active; 'I' for Inactive)
REMARK    1  A    between atoms: O1_2  and  C2_3
REMARK    2  A    between atoms: C2_3  and  O2_4
REMARK    3  A    between atoms: C2_3  and  C3_6
REMARK    4  A    between atoms: C3_6  and  S1_7
REMARK    5  A    between atoms: S1_7  and  C4_8
REMARK    6  A    between atoms: C7_12  and  O4_13
REMARK    7  A    between atoms: O4_13  and  C8_14
REMARK    8  A    between atoms: C9_16  and  C10_17
REMARK    9  A    between atoms: C11_20  and  O8_21
REMARK   10  A    between atoms: C12_23  and  O9_24
REMARK   11  A    between atoms: C14_28  and  O11_29
REMARK   12  A    between atoms: O11_29  and  C15_30
REMARK   13  A    between atoms: C15_30  and  C16_32
REMARK   14  A    between atoms: C17_33  and  C19_35
REMARK   15  A    between atoms: C19_35  and  O13_36
REMARK   16  A    between atoms: C19_35  and  O14_38
REMARK   17  A    between atoms: C21_43  and  O17_44
REMARK   18  A    between atoms: N1_48  and  O19_50
ROOT
HETATM    1  C4  UNL     1      37.576  -6.113  18.835  1.00  0.00     0.149 A
HETATM    2  O3  UNL     1      36.897  -6.506  19.884  1.00  0.00    -0.293 OA
HETATM    3  C5  UNL     1      37.221  -5.794  20.934  1.00  0.00     0.165 A
HETATM    4  C6  UNL     1      38.182  -4.866  20.547  1.00  0.00     0.144 A
HETATM    5  C7  UNL     1      38.414  -5.059  19.217  1.00  0.00     0.149 A
HETATM    6  O10 UNL     1      38.747  -3.949  21.414  1.00  0.00    -0.329 OA
HETATM    7  C13 UNL     1      38.510  -3.466  22.694  1.00  0.00     0.258 C
HETATM    8  C14 UNL     1      38.336  -1.943  22.521  1.00  0.00     0.314 C
HETATM    9  O15 UNL     1      37.043  -1.967  21.886  1.00  0.00    -0.282 OA
HETATM   10  C20 UNL     1      36.265  -2.903  22.597  1.00  0.00     0.328 C
HETATM   11  O16 UNL     1      35.022  -3.000  22.636  1.00  0.00    -0.259 OA
HETATM   12  C21 UNL     1      37.202  -3.788  23.320  1.00  0.00     0.291 C
HETATM   13  O18 UNL     1      36.816  -5.136  23.324  1.00  0.00    -0.282 OA
HETATM   14  C22 UNL     1      36.631  -5.998  22.251  1.00  0.00     0.203 C
HETATM   15  N1  UNL     1      35.891  -7.020  22.483  1.00  0.00    -0.245 N
ATOM     16  H1  UNL     1      35.478  -7.164  23.404  1.00  0.00     0.196 HD
ENDROOT
BRANCH   5  17
HETATM   17  O4  UNL     1      39.304  -4.332  18.466  1.00  0.00    -0.311 OA
BRANCH  17  18
HETATM   18  C8  UNL     1      38.997  -3.753  17.236  1.00  0.00     0.299 C
HETATM   19  O5  UNL     1      38.707  -2.397  17.322  1.00  0.00    -0.340 OA
HETATM   20  C9  UNL     1      39.871  -1.704  17.133  1.00  0.00     0.256 C
HETATM   21  C11 UNL     1      40.810  -2.571  16.334  1.00  0.00     0.191 C
HETATM   22  C12 UNL     1      40.086  -3.893  16.202  1.00  0.00     0.205 C
BRANCH  20  23
HETATM   23  C10 UNL     1      39.600  -0.400  16.501  1.00  0.00     0.206 C
HETATM   24  O6  UNL     1      40.392   0.577  16.575  1.00  0.00    -0.646 OA
HETATM   25  O7  UNL     1      38.425  -0.221  15.792  1.00  0.00    -0.646 OA
ENDBRANCH  20  23
BRANCH  21  26
HETATM   26  O8  UNL     1      41.152  -2.020  15.113  1.00  0.00    -0.390 OA
ATOM     27  H8  UNL     1      41.507  -2.656  14.503  1.00  0.00     0.210 HD
ENDBRANCH  21  26
BRANCH  22  28
HETATM   28  O9  UNL     1      39.506  -4.023  14.951  1.00  0.00    -0.388 OA
ATOM     29  H9  UNL     1      38.915  -3.293  14.808  1.00  0.00     0.210 HD
ENDBRANCH  22  28
ENDBRANCH  17  18
ENDBRANCH   5  17
BRANCH   1  30
HETATM   30  S1  UNL     1      37.525  -6.733  17.165  1.00  0.00    -0.097 SA
BRANCH  30  31
HETATM   31  C3  UNL     1      35.993  -6.173  16.394  1.00  0.00     0.141 C
BRANCH  31  32
HETATM   32  C2  UNL     1      36.248  -5.348  15.160  1.00  0.00     0.265 C
BRANCH  32  33
HETATM   33  O1  UNL     1      36.381  -3.991  15.470  1.00  0.00    -0.366 OA
HETATM   34  C1  UNL     1      36.179  -3.182  14.365  1.00  0.00     0.204 C
ENDBRANCH  32  33
BRANCH  32  35
HETATM   35  O2  UNL     1      37.366  -5.793  14.462  1.00  0.00    -0.371 OA
ATOM     36  H2  UNL     1      37.898  -6.350  15.017  1.00  0.00     0.212 HD
ENDBRANCH  32  35
ENDBRANCH  31  32
ENDBRANCH  30  31
ENDBRANCH   1  30
BRANCH  15  37
HETATM   37  O19 UNL     1      35.666  -7.914  21.468  1.00  0.00    -0.288 OA
ATOM     38  H19 UNL     1      35.681  -8.842  21.666  1.00  0.00     0.244 HD
ENDBRANCH  15  37
BRANCH   8  39
HETATM   39  O11 UNL     1      38.216  -1.333  23.794  1.00  0.00    -0.283 OA
BRANCH  39  40
HETATM   40  C15 UNL     1      38.140   0.071  23.924  1.00  0.00     0.285 C
HETATM   41  O12 UNL     1      39.189   0.654  23.589  1.00  0.00    -0.260 OA
BRANCH  40  42
HETATM   42  C16 UNL     1      36.950   0.723  24.401  1.00  0.00     0.089 C
HETATM   43  C17 UNL     1      36.317   1.778  24.122  1.00  0.00    -0.024 C
HETATM   44  C18 UNL     1      35.043   2.046  24.954  1.00  0.00     0.049 C
BRANCH  43  45
HETATM   45  C19 UNL     1      36.585   2.803  23.125  1.00  0.00     0.284 C
BRANCH  45  46
HETATM   46  O13 UNL     1      36.441   2.514  21.800  1.00  0.00    -0.367 OA
ATOM     47  H13 UNL     1      37.205   2.494  21.235  1.00  0.00     0.213 HD
ENDBRANCH  45  46
BRANCH  45  48
HETATM   48  O14 UNL     1      37.872   3.334  23.381  1.00  0.00    -0.367 OA
ATOM     49  H14 UNL     1      38.143   3.828  22.616  1.00  0.00     0.213 HD
ENDBRANCH  45  48
ENDBRANCH  43  45
ENDBRANCH  40  42
ENDBRANCH  39  40
ENDBRANCH   8  39
BRANCH  12  50
HETATM   50  O17 UNL     1      37.293  -3.407  24.678  1.00  0.00    -0.355 OA
ATOM     51  H17 UNL     1      37.839  -4.054  25.109  1.00  0.00     0.213 HD
ENDBRANCH  12  50
TORSDOF 18
ENDMDL