MODEL 2
REMARK VINA RESULT: -8.574848212      4.205     12.537
REMARK  19 active torsions:
REMARK  status: ('A' for Active; 'I' for Inactive)
REMARK    1  A    between atoms: C2_2  and  C3_4
REMARK    2  A    between atoms: C5_6  and  C6_7
REMARK    3  A    between atoms: C6_7  and  N1_8
REMARK    4  A    between atoms: N1_8  and  C7_10
REMARK    5  A    between atoms: C7_10  and  C8_11
REMARK    6  A    between atoms: C8_11  and  O2_12
REMARK    7  A    between atoms: C8_11  and  N2_14
REMARK    8  A    between atoms: N2_14  and  N3_16
REMARK    9  A    between atoms: N3_16  and  C9_18
REMARK   10  A    between atoms: C10_19  and  N4_20
REMARK   11  A    between atoms: C11_24  and  N5_25
REMARK   12  A    between atoms: C12_30  and  C13_31
REMARK   13  A    between atoms: C13_31  and  N8_33
REMARK   14  A    between atoms: N8_33  and  N9_35
REMARK   15  A    between atoms: N9_35  and  C15_37
REMARK   16  A    between atoms: N13_44  and  C16_45
REMARK   17  A    between atoms: C18_57  and  O4_58
REMARK   18  A    between atoms: C19_60  and  O5_61
REMARK   19  A    between atoms: C20_63  and  O6_64
ROOT
HETATM    1  C9  UNL     1      38.322  -1.877  23.062  1.00  0.00     0.067 C
HETATM    2  C10 UNL     1      37.431  -0.741  23.467  1.00  0.00     0.261 C
HETATM    3  C11 UNL     1      37.882   0.580  22.884  1.00  0.00     0.196 C
HETATM    4  C18 UNL     1      39.341   0.870  23.084  1.00  0.00     0.178 C
HETATM    5  C19 UNL     1      40.191  -0.366  23.281  1.00  0.00     0.183 C
HETATM    6  C20 UNL     1      39.582  -1.486  22.394  1.00  0.00     0.198 C
ENDROOT
BRANCH   3   7
HETATM    7  N5  UNL     1      37.116   1.602  23.595  1.00  0.00    -0.208 N
HETATM    8  N6  UNL     1      36.725   1.530  24.834  1.00  0.00    -0.224 N
HETATM    9  N7  UNL     1      36.063   2.669  25.064  1.00  0.00    -0.267 N
ATOM     10  H6  UNL     1      36.888   0.766  25.490  1.00  0.00     0.210 HD
HETATM   11  C12 UNL     1      36.063   3.419  23.953  1.00  0.00     0.161 A
ATOM     12  H7  UNL     1      35.627   2.928  25.949  1.00  0.00     0.190 HD
HETATM   13  N17 UNL     1      36.745   2.717  23.015  1.00  0.00    -0.264 N
ATOM     14  H17 UNL     1      36.933   2.999  22.053  1.00  0.00     0.190 HD
BRANCH  11  15
HETATM   15  C13 UNL     1      35.459   4.747  23.780  1.00  0.00     0.069 C
HETATM   16  C14 UNL     1      35.950   5.522  22.585  1.00  0.00     0.074 C
BRANCH  15  17
HETATM   17  N8  UNL     1      34.587   5.193  24.576  1.00  0.00    -0.287 N
ATOM     18  H8  UNL     1      33.749   4.617  24.665  1.00  0.00     0.187 HD
BRANCH  17  19
HETATM   19  N9  UNL     1      34.593   6.288  25.312  1.00  0.00    -0.129 N
ATOM     20  H9  UNL     1      35.011   6.113  26.225  1.00  0.00     0.205 HD
BRANCH  19  21
HETATM   21  C15 UNL     1      34.228   7.488  25.206  1.00  0.00     0.737 A
HETATM   22  N10 UNL     1      33.058   7.824  24.590  1.00  0.00    -0.113 N
HETATM   23  N11 UNL     1      32.929   9.124  24.599  1.00  0.00    -0.213 N
ATOM     24  H10 UNL     1      32.390   7.166  24.187  1.00  0.00     0.207 HD
HETATM   25  N12 UNL     1      33.985   9.607  25.204  1.00  0.00    -0.205 N
ATOM     26  H11 UNL     1      32.154   9.660  24.210  1.00  0.00     0.210 HD
HETATM   27  N13 UNL     1      34.813   8.619  25.595  1.00  0.00    -0.046 N
ATOM     28  H12 UNL     1      34.158  10.600  25.359  1.00  0.00     0.211 HD
BRANCH  27  29
HETATM   29  C16 UNL     1      36.037   8.861  26.252  1.00  0.00     0.214 A
HETATM   30  N14 UNL     1      36.197   9.310  27.534  1.00  0.00    -0.220 N
HETATM   31  O3  UNL     1      37.466   9.392  27.830  1.00  0.00    -0.153 OA
ATOM     32  H14 UNL     1      35.435   9.546  28.169  1.00  0.00     0.198 HD
HETATM   33  N15 UNL     1      38.147   9.014  26.778  1.00  0.00    -0.222 N
HETATM   34  C17 UNL     1      37.293   8.675  25.773  1.00  0.00     0.170 A
ATOM     35  H15 UNL     1      39.165   8.980  26.720  1.00  0.00     0.198 HD
HETATM   36  N16 UNL     1      37.673   8.267  24.601  1.00  0.00    -0.381 N
ATOM     37 2H16 UNL     1      37.033   8.013  23.849  1.00  0.00     0.157 HD
ATOM     38 1H16 UNL     1      38.616   8.128  24.240  1.00  0.00     0.157 HD
ENDBRANCH  27  29
ENDBRANCH  19  21
ENDBRANCH  17  19
ENDBRANCH  15  17
ENDBRANCH  11  15
ENDBRANCH   3   7
BRANCH   2  39
HETATM   39  N4  UNL     1      36.130  -1.043  22.861  1.00  0.00    -0.068 N
ATOM     40  H43 UNL     1      35.947  -2.040  22.752  1.00  0.00     0.275 HD
ATOM     41  H42 UNL     1      35.335  -0.845  23.469  1.00  0.00     0.275 HD
ATOM     42  H41 UNL     1      36.119  -0.523  21.984  1.00  0.00     0.275 HD
ENDBRANCH   2  39
BRANCH   4  43
HETATM   43  O4  UNL     1      39.834   1.576  21.970  1.00  0.00    -0.391 OA
ATOM     44  H4  UNL     1      40.713   1.886  22.157  1.00  0.00     0.210 HD
ENDBRANCH   4  43
BRANCH   1  45
HETATM   45  N3  UNL     1      37.958  -3.067  23.353  1.00  0.00    -0.302 N
ATOM     46  H3  UNL     1      37.507  -3.272  24.244  1.00  0.00     0.186 HD
BRANCH  45  47
HETATM   47  N2  UNL     1      38.199  -4.113  22.388  1.00  0.00    -0.279 N
ATOM     48  H2  UNL     1      39.135  -4.390  22.091  1.00  0.00     0.189 HD
BRANCH  47  49
HETATM   49  C8  UNL     1      37.046  -4.707  21.901  1.00  0.00     0.170 C
BRANCH  49  50
HETATM   50  C7  UNL     1      36.867  -6.024  21.398  1.00  0.00     0.141 C
BRANCH  50  51
HETATM   51  N1  UNL     1      36.516  -6.399  20.098  1.00  0.00    -0.391 N
ATOM     52  H1  UNL     1      35.558  -6.524  19.771  1.00  0.00     0.159 HD
BRANCH  51  53
HETATM   53  C6  UNL     1      37.720  -6.591  19.258  1.00  0.00     0.158 C
BRANCH  53  54
HETATM   54  C5  UNL     1      37.307  -6.031  17.876  1.00  0.00    -0.033 A
HETATM   55  C4  UNL     1      37.732  -4.829  17.408  1.00  0.00     0.032 A
HETATM   56  C3  UNL     1      37.237  -4.412  16.198  1.00  0.00     0.050 A
HETATM   57  S1  UNL     1      36.215  -5.680  15.741  1.00  0.00    -0.098 SA
HETATM   58  C21 UNL     1      36.422  -6.716  17.085  1.00  0.00     0.059 A
BRANCH  56  59
HETATM   59  C2  UNL     1      37.580  -3.147  15.500  1.00  0.00     0.162 C
HETATM   60  C1  UNL     1      38.623  -2.262  16.040  1.00  0.00     0.097 C
HETATM   61  O1  UNL     1      36.972  -2.872  14.462  1.00  0.00    -0.292 OA
ENDBRANCH  56  59
ENDBRANCH  53  54
ENDBRANCH  51  53
ENDBRANCH  50  51
ENDBRANCH  49  50
BRANCH  49  62
HETATM   62  O2  UNL     1      35.953  -3.970  21.884  1.00  0.00    -0.344 OA
ATOM     63  H2  UNL     1      36.113  -3.034  21.931  1.00  0.00     0.219 HD
ENDBRANCH  49  62
ENDBRANCH  47  49
ENDBRANCH  45  47
ENDBRANCH   1  45
BRANCH   5  64
HETATM   64  O5  UNL     1      40.187  -0.756  24.604  1.00  0.00    -0.390 OA
ATOM     65  H5  UNL     1      41.040  -1.089  24.859  1.00  0.00     0.210 HD
ENDBRANCH   5  64
BRANCH   6  66
HETATM   66  O6  UNL     1      39.415  -0.896  21.173  1.00  0.00    -0.387 OA
ATOM     67  H6  UNL     1      40.049  -0.217  20.976  1.00  0.00     0.210 HD
ENDBRANCH   6  66
TORSDOF 19
ENDMDL