MODEL 5
REMARK VINA RESULT: -7.432401960      4.023      8.075
REMARK  18 active torsions:
REMARK  status: ('A' for Active; 'I' for Inactive)
REMARK    1  A    between atoms: C2_2  and  C3_3
REMARK    2  A    between atoms: C3_3  and  O2_5
REMARK    3  A    between atoms: O2_5  and  C4_6
REMARK    4  A    between atoms: C4_6  and  C18_40
REMARK    5  A    between atoms: C5_7  and  C6_8
REMARK    6  A    between atoms: C6_8  and  O3_9
REMARK    7  A    between atoms: C6_8  and  O4_11
REMARK    8  A    between atoms: O4_11  and  C7_12
REMARK    9  A    between atoms: C8_15  and  O7_16
REMARK   10  A    between atoms: O7_16  and  C9_17
REMARK   11  A    between atoms: C10_19  and  N1_20
REMARK       I    between atoms: N1_20  and  C11_22
REMARK   12  A    between atoms: C13_25  and  O9_26
REMARK   13  A    between atoms: C14_28  and  O10_29
REMARK   14  A    between atoms: C15_31  and  O11_32
REMARK   15  A    between atoms: C16_34  and  O12_35
REMARK   16  A    between atoms: C17_37  and  O13_38
REMARK   17  A    between atoms: N2_42  and  C20_43
REMARK   18  A    between atoms: C21_49  and  N5_50
ROOT
HETATM    1  C7  UNL     1      36.622  -4.109  23.237  1.00  0.00     0.331 C
HETATM    2  O5  UNL     1      36.591  -3.504  24.507  1.00  0.00    -0.203 OA
HETATM    3  O6  UNL     1      37.383  -2.479  24.581  1.00  0.00    -0.203 OA
HETATM    4  C8  UNL     1      36.962  -1.414  23.787  1.00  0.00     0.329 C
HETATM    5  C16 UNL     1      37.061  -1.881  22.347  1.00  0.00     0.209 C
HETATM    6  C17 UNL     1      36.127  -3.096  22.245  1.00  0.00     0.210 C
ENDROOT
BRANCH   1   7
HETATM    7  O4  UNL     1      37.897  -4.545  22.997  1.00  0.00    -0.323 OA
BRANCH   7   8
HETATM    8  C6  UNL     1      38.003  -5.846  22.592  1.00  0.00     0.287 C
BRANCH   8   9
HETATM    9  C5  UNL     1      37.480  -6.077  21.215  1.00  0.00     0.072 C
HETATM   10  C4  UNL     1      37.243  -7.247  20.711  1.00  0.00     0.109 C
BRANCH  10  11
HETATM   11  O2  UNL     1      37.476  -8.380  21.466  1.00  0.00    -0.277 OA
BRANCH  11  12
HETATM   12  C3  UNL     1      38.488  -9.231  21.035  1.00  0.00     0.263 C
HETATM   13  O1  UNL     1      39.696  -8.884  21.034  1.00  0.00    -0.265 OA
BRANCH  12  14
HETATM   14  C2  UNL     1      38.177 -10.604  20.550  1.00  0.00     0.107 C
HETATM   15  C1  UNL     1      36.856 -11.039  21.153  1.00  0.00     0.015 C
ENDBRANCH  12  14
ENDBRANCH  11  12
ENDBRANCH  10  11
BRANCH  10  16
HETATM   16  C18 UNL     1      36.735  -7.362  19.357  1.00  0.00     0.097 A
HETATM   17  C19 UNL     1      36.941  -6.482  18.290  1.00  0.00     0.149 A
HETATM   18  N2  UNL     1      36.310  -6.928  17.202  1.00  0.00    -0.229 N
HETATM   19  N6  UNL     1      35.718  -8.054  17.560  1.00  0.00    -0.013 NA
HETATM   20  N7  UNL     1      35.957  -8.329  18.829  1.00  0.00    -0.280 N
ATOM     21  H7  UNL     1      35.608  -9.146  19.331  1.00  0.00     0.184 HD
BRANCH  18  22
HETATM   22  C20 UNL     1      36.288  -6.287  15.893  1.00  0.00     0.177 A
HETATM   23  N3  UNL     1      35.776  -5.070  15.751  1.00  0.00    -0.294 N
HETATM   24  S2  UNL     1      35.960  -4.745  14.116  1.00  0.00     0.070 SA
ATOM     25  H3  UNL     1      35.367  -4.472  16.468  1.00  0.00     0.177 HD
HETATM   26  N4  UNL     1      36.693  -6.184  13.644  1.00  0.00    -0.296 N
HETATM   27  C21 UNL     1      36.777  -6.884  14.780  1.00  0.00     0.153 A
ATOM     28  H4  UNL     1      37.001  -6.459  12.711  1.00  0.00     0.177 HD
BRANCH  27  29
HETATM   29  N5  UNL     1      37.320  -8.098  14.758  1.00  0.00    -0.382 N
ATOM     30  H52 UNL     1      38.315  -8.195  14.560  1.00  0.00     0.157 HD
ATOM     31  H51 UNL     1      36.803  -8.962  14.926  1.00  0.00     0.157 HD
ENDBRANCH  27  29
ENDBRANCH  18  22
ENDBRANCH  10  16
ENDBRANCH   8   9
BRANCH   8  32
HETATM   32  O3  UNL     1      39.331  -6.302  22.578  1.00  0.00    -0.368 OA
ATOM     33  H3  UNL     1      39.849  -5.598  22.949  1.00  0.00     0.213 HD
ENDBRANCH   8  32
ENDBRANCH   7   8
ENDBRANCH   1   7
BRANCH   6  34
HETATM   34  O13 UNL     1      34.861  -2.622  22.585  1.00  0.00    -0.388 OA
ATOM     35  H13 UNL     1      34.413  -2.252  21.832  1.00  0.00     0.210 HD
ENDBRANCH   6  34
BRANCH   5  36
HETATM   36  O12 UNL     1      38.356  -2.203  22.003  1.00  0.00    -0.388 OA
ATOM     37  H12 UNL     1      38.388  -2.767  21.238  1.00  0.00     0.210 HD
ENDBRANCH   5  36
BRANCH   4  38
HETATM   38  O7  UNL     1      37.637  -0.248  24.043  1.00  0.00    -0.337 OA
BRANCH  38  39
HETATM   39  C9  UNL     1      37.039   0.803  23.358  1.00  0.00     0.219 C
HETATM   40  S1  UNL     1      36.275   1.986  24.533  1.00  0.00    -0.106 SA
HETATM   41  C10 UNL     1      35.779   3.440  23.569  1.00  0.00     0.180 C
HETATM   42  C13 UNL     1      36.765   3.768  22.488  1.00  0.00     0.182 C
HETATM   43  C14 UNL     1      37.192   2.578  21.696  1.00  0.00     0.181 C
HETATM   44  C15 UNL     1      37.997   1.591  22.513  1.00  0.00     0.188 C
BRANCH  41  45
HETATM   45  N1  UNL     1      35.503   4.570  24.395  1.00  0.00    -0.345 N
HETATM   46  C11 UNL     1      34.794   5.723  23.958  1.00  0.00     0.214 C
HETATM   47  C12 UNL     1      34.523   6.879  24.842  1.00  0.00     0.117 C
HETATM   48  O8  UNL     1      34.351   5.816  22.767  1.00  0.00    -0.274 OA
ATOM     49  H1  UNL     1      35.834   4.550  25.359  1.00  0.00     0.163 HD
ENDBRANCH  41  45
BRANCH  42  50
HETATM   50  O9  UNL     1      37.885   4.437  22.958  1.00  0.00    -0.390 OA
ATOM     51  H9  UNL     1      38.701   4.049  22.665  1.00  0.00     0.210 HD
ENDBRANCH  42  50
BRANCH  43  52
HETATM   52  O10 UNL     1      37.908   3.034  20.583  1.00  0.00    -0.390 OA
ATOM     53  H10 UNL     1      38.657   2.461  20.461  1.00  0.00     0.210 HD
ENDBRANCH  43  52
BRANCH  44  54
HETATM   54  O11 UNL     1      38.866   2.287  23.374  1.00  0.00    -0.389 OA
ATOM     55  H11 UNL     1      39.597   2.607  22.859  1.00  0.00     0.210 HD
ENDBRANCH  44  54
ENDBRANCH  38  39
ENDBRANCH   4  38
TORSDOF 18
ENDMDL