MODEL 3
REMARK VINA RESULT: -5.864488020      1.855      4.604
REMARK  6 active torsions:
REMARK  status: ('A' for Active; 'I' for Inactive)
REMARK       I    between atoms: C1_4  and  N3_6
REMARK    1  A    between atoms: N3_6  and  C2_8
REMARK    2  A    between atoms: C4_13  and  C5_14
REMARK    3  A    between atoms: C6_17  and  N7_18
REMARK    4  A    between atoms: N7_18  and  N8_20
REMARK    5  A    between atoms: C7_22  and  C8_23
REMARK    6  A    between atoms: C8_23  and  N9_24
ROOT
HETATM    1  C2  UNL     1      30.949  14.320  10.704  1.00  0.00     0.687 A
HETATM    2  N4  UNL     1      31.023  13.989  12.006  1.00  0.00    -0.177 N
ATOM      3  H4  UNL     1      30.568  13.131  12.320  1.00  0.00     0.185 HD
HETATM    4  C3  UNL     1      31.676  14.750  12.920  1.00  0.00     0.151 A
HETATM    5  N5  UNL     1      31.734  14.376  14.268  1.00  0.00    -0.081 NA
HETATM    6  C4  UNL     1      32.300  15.915  12.525  1.00  0.00     0.116 A
HETATM    7  C6  UNL     1      32.227  16.256  11.191  1.00  0.00     0.154 A
HETATM    8  N11 UNL     1      31.559  15.456  10.327  1.00  0.00    -0.174 N
ATOM      9  H11 UNL     1      31.517  15.728   9.344  1.00  0.00     0.186 HD
ENDROOT
BRANCH   7  10
HETATM   10  N7  UNL     1      32.807  17.338  10.828  1.00  0.00    -0.285 N
ATOM     11  H7  UNL     1      33.802  17.427  11.038  1.00  0.00     0.188 HD
BRANCH  10  12
HETATM   12  N8  UNL     1      32.198  18.397  10.176  1.00  0.00    -0.312 N
HETATM   13  C7  UNL     1      31.078  18.893  10.580  1.00  0.00     0.110 C
ATOM     14  H8  UNL     1      32.647  18.796   9.352  1.00  0.00     0.185 HD
BRANCH  13  15
HETATM   15  C8  UNL     1      30.418  20.012   9.901  1.00  0.00     0.318 C
BRANCH  15  16
HETATM   16  N9  UNL     1      31.218  20.513   8.807  1.00  0.00     0.096 N
HETATM   17  C9  UNL     1      30.345  20.650   7.632  1.00  0.00     0.300 C
HETATM   18  C10 UNL     1      30.859  21.792   6.762  1.00  0.00     0.262 C
HETATM   19  N10 UNL     1      30.488  23.036   7.428  1.00  0.00    -0.072 N
HETATM   20  C11 UNL     1      30.728  22.904   8.855  1.00  0.00     0.262 C
ATOM     21 2H10 UNL     1      30.963  23.846   7.029  1.00  0.00     0.277 HD
ATOM     22 1H10 UNL     1      29.529  23.315   7.221  1.00  0.00     0.277 HD
HETATM   23  C12 UNL     1      31.752  21.823   9.152  1.00  0.00     0.300 C
ENDBRANCH  15  16
ENDBRANCH  13  15
ENDBRANCH  10  12
ENDBRANCH   7  10
BRANCH   6  24
HETATM   24  C5  UNL     1      33.018  16.772  13.463  1.00  0.00     0.272 C
HETATM   25  N6  UNL     1      32.355  17.857  14.072  1.00  0.00    -0.057 NA
HETATM   26  O1  UNL     1      34.221  16.587  13.761  1.00  0.00    -0.271 OA
ENDBRANCH   6  24
BRANCH   1  27
HETATM   27  N3  UNL     1      30.317  13.579   9.837  1.00  0.00    -0.164 N
HETATM   28  C1  UNL     1      30.346  12.162   9.919  1.00  0.00     0.200 C
HETATM   29  N1  UNL     1      29.429  11.440  10.465  1.00  0.00    -0.373 N
HETATM   30  N2  UNL     1      31.468  11.493   9.357  1.00  0.00    -0.063 NA
ATOM     31  H12 UNL     1      29.450  10.422  10.523  1.00  0.00     0.158 HD
ATOM     32  H11 UNL     1      28.624  11.920  10.868  1.00  0.00     0.158 HD
ATOM     33  H3  UNL     1      29.790  14.026   9.086  1.00  0.00     0.187 HD
ENDBRANCH   1  27
TORSDOF 6
ENDMDL