MODEL 2
REMARK VINA RESULT: -5.670033273      2.925      5.261
REMARK  9 active torsions:
REMARK  status: ('A' for Active; 'I' for Inactive)
REMARK    1  A    between atoms: N1_1  and  N2_4
REMARK    2  A    between atoms: N2_4  and  C1_5
REMARK    3  A    between atoms: C1_5  and  N3_6
REMARK    4  A    between atoms: C1_5  and  C2_10
REMARK    5  A    between atoms: C2_10  and  C3_11
REMARK    6  A    between atoms: C3_11  and  N4_12
REMARK    7  A    between atoms: C3_11  and  C9_27
REMARK    8  A    between atoms: N4_12  and  C4_14
REMARK       I    between atoms: C9_27  and  N9_29
REMARK    9  A    between atoms: N9_29  and  C10_31
ROOT
HETATM    1  C3  UNL     1      30.200  18.814   9.686  1.00  0.00     0.179 C
ENDROOT
BRANCH   1   2
HETATM    2  C2  UNL     1      28.985  18.083   9.135  1.00  0.00     0.086 C
BRANCH   2   3
HETATM    3  C1  UNL     1      28.092  17.485  10.162  1.00  0.00     0.297 C
BRANCH   3   4
HETATM    4  N2  UNL     1      28.412  16.055  10.224  1.00  0.00    -0.115 NA
BRANCH   4   5
HETATM    5  N1  UNL     1      28.451  15.493   8.951  1.00  0.00    -0.346 N
ATOM      6  H12 UNL     1      28.582  16.036   8.098  1.00  0.00     0.172 HD
ATOM      7  H11 UNL     1      28.333  14.481   8.992  1.00  0.00     0.172 HD
ENDBRANCH   4   5
ENDBRANCH   3   4
BRANCH   3   8
HETATM    8  N3  UNL     1      28.218  18.023  11.474  1.00  0.00    -0.060 N
ATOM      9  H33 UNL     1      28.284  17.301  12.191  1.00  0.00     0.276 HD
ATOM     10  H32 UNL     1      29.125  18.460  11.636  1.00  0.00     0.276 HD
ATOM     11  H31 UNL     1      27.439  18.662  11.630  1.00  0.00     0.276 HD
ENDBRANCH   3   8
ENDBRANCH   2   3
ENDBRANCH   1   2
BRANCH   1  12
HETATM   12  N4  UNL     1      31.212  17.830   9.860  1.00  0.00    -0.361 N
ATOM     13  H4  UNL     1      31.628  17.507   8.986  1.00  0.00     0.162 HD
BRANCH  12  14
HETATM   14  C4  UNL     1      31.691  17.285  10.882  1.00  0.00     0.134 A
HETATM   15  N5  UNL     1      32.104  18.064  11.899  1.00  0.00    -0.337 N
HETATM   16  C5  UNL     1      32.632  17.531  13.031  1.00  0.00     0.183 A
ATOM     17  H5  UNL     1      32.020  19.078  11.817  1.00  0.00     0.168 HD
HETATM   18  N6  UNL     1      32.762  16.202  13.182  1.00  0.00    -0.337 N
HETATM   19  C6  UNL     1      32.364  15.368  12.196  1.00  0.00     0.138 A
ATOM     20  H6  UNL     1      33.160  15.823  14.041  1.00  0.00     0.168 HD
HETATM   21  N7  UNL     1      32.383  14.032  12.095  1.00  0.00    -0.337 N
HETATM   22  C8  UNL     1      31.821  15.927  11.027  1.00  0.00     0.122 A
HETATM   23  C7  UNL     1      31.870  13.707  10.899  1.00  0.00     0.182 A
ATOM     24  H7  UNL     1      32.726  13.380  12.800  1.00  0.00     0.168 HD
HETATM   25  N8  UNL     1      31.534  14.860  10.268  1.00  0.00    -0.346 N
ATOM     26  H8  UNL     1      31.118  14.909   9.337  1.00  0.00     0.167 HD
ENDBRANCH  12  14
ENDBRANCH   1  12
BRANCH   1  27
HETATM   27  C9  UNL     1      30.614  19.970   8.899  1.00  0.00     0.258 C
HETATM   28  O1  UNL     1      29.998  20.289   7.855  1.00  0.00    -0.270 OA
HETATM   29  N9  UNL     1      31.720  20.794   9.254  1.00  0.00    -0.155 N
ATOM     30  H9  UNL     1      32.607  20.345   9.482  1.00  0.00     0.187 HD
BRANCH  29  31
HETATM   31  C10 UNL     1      31.651  22.071   9.302  1.00  0.00     0.716 A
HETATM   32  N10 UNL     1      32.380  22.853  10.109  1.00  0.00    -0.115 N
HETATM   33  N11 UNL     1      32.042  24.110   9.882  1.00  0.00    -0.213 N
ATOM     34  H10 UNL     1      33.076  22.534  10.783  1.00  0.00     0.207 HD
HETATM   35  N12 UNL     1      31.111  24.163   8.948  1.00  0.00    -0.213 N
ATOM     36  H11 UNL     1      32.441  24.920  10.358  1.00  0.00     0.210 HD
HETATM   37  N13 UNL     1      30.871  22.904   8.591  1.00  0.00    -0.115 N
ATOM     38  H12 UNL     1      30.666  25.001   8.575  1.00  0.00     0.210 HD
ATOM     39  H13 UNL     1      30.196  22.614   7.884  1.00  0.00     0.207 HD
ENDBRANCH  29  31
ENDBRANCH   1  27
TORSDOF 9
ENDMDL