MODEL 5
REMARK VINA RESULT: -5.315976539      3.184      7.326
REMARK  9 active torsions:
REMARK  status: ('A' for Active; 'I' for Inactive)
REMARK    1  A    between atoms: N1_1  and  C1_4
REMARK    2  A    between atoms: C5_16  and  C6_17
REMARK    3  A    between atoms: N8_23  and  C8_25
REMARK    4  A    between atoms: C8_25  and  C9_26
REMARK    5  A    between atoms: C9_26  and  O1_27
REMARK    6  A    between atoms: C10_29  and  C11_30
REMARK    7  A    between atoms: C11_30  and  N10_35
REMARK    8  A    between atoms: N9_31  and  O2_33
REMARK    9  A    between atoms: N10_35  and  N11_37
ROOT
HETATM    1  C6  UNL     1      34.561  18.202  13.998  1.00  0.00     0.096 A
HETATM    2  N6  UNL     1      35.900  18.234  13.929  1.00  0.00    -0.296 N
ATOM      3  H6  UNL     1      36.478  17.460  13.599  1.00  0.00     0.187 HD
HETATM    4  N7  UNL     1      36.383  19.413  14.348  1.00  0.00    -0.284 N
ATOM      5  H7  UNL     1      37.369  19.669  14.386  1.00  0.00     0.188 HD
HETATM    6  C7  UNL     1      35.375  20.190  14.707  1.00  0.00     0.132 A
HETATM    7  N8  UNL     1      35.372  21.377  15.159  1.00  0.00    -0.372 N
ATOM      8  H8  UNL     1      34.463  21.788  15.373  1.00  0.00     0.161 HD
HETATM    9  C10 UNL     1      34.212  19.438  14.493  1.00  0.00     0.086 A
ENDROOT
BRANCH   1  10
HETATM   10  C5  UNL     1      33.653  17.123  13.624  1.00  0.00     0.107 A
HETATM   11  C1  UNL     1      33.091  16.225  14.495  1.00  0.00     0.130 A
HETATM   12  N2  UNL     1      32.261  15.258  14.065  1.00  0.00    -0.324 N
HETATM   13  C2  UNL     1      31.929  15.101  12.777  1.00  0.00     0.152 A
ATOM     14  H2  UNL     1      31.867  14.615  14.751  1.00  0.00     0.169 HD
HETATM   15  N3  UNL     1      31.172  14.288  12.048  1.00  0.00    -0.335 N
HETATM   16  C4  UNL     1      32.487  15.999  11.872  1.00  0.00     0.152 A
HETATM   17  C3  UNL     1      31.222  14.624  10.727  1.00  0.00     0.183 A
ATOM     18  H3  UNL     1      30.625  13.514  12.426  1.00  0.00     0.168 HD
HETATM   19  N4  UNL     1      32.042  15.685  10.652  1.00  0.00    -0.335 N
ATOM     20  H4  UNL     1      32.289  16.177   9.793  1.00  0.00     0.168 HD
HETATM   21  N5  UNL     1      33.310  16.953  12.328  1.00  0.00    -0.334 N
ATOM     22  H5  UNL     1      33.707  17.600  11.646  1.00  0.00     0.168 HD
BRANCH  11  23
HETATM   23  N1  UNL     1      33.329  16.271  15.740  1.00  0.00    -0.384 N
ATOM     24  H12 UNL     1      32.861  15.646  16.396  1.00  0.00     0.157 HD
ATOM     25  H11 UNL     1      34.010  16.960  16.058  1.00  0.00     0.157 HD
ENDBRANCH  11  23
ENDBRANCH   1  10
BRANCH   9  26
HETATM   26  C11 UNL     1      32.889  19.946  14.820  1.00  0.00     0.155 C
HETATM   27  N9  UNL     1      32.404  19.723  15.985  1.00  0.00    -0.251 N
ATOM     28  H9  UNL     1      32.933  19.197  16.680  1.00  0.00     0.196 HD
BRANCH  27  29
HETATM   29  O2  UNL     1      31.155  20.212  16.270  1.00  0.00    -0.288 OA
ATOM     30  H2  UNL     1      30.453  19.590  16.418  1.00  0.00     0.244 HD
ENDBRANCH  27  29
BRANCH  26  31
HETATM   31  N10 UNL     1      32.153  20.679  13.848  1.00  0.00    -0.290 N
ATOM     32  H10 UNL     1      32.310  21.681  13.743  1.00  0.00     0.188 HD
BRANCH  31  33
HETATM   33  N11 UNL     1      31.217  20.034  13.035  1.00  0.00    -0.344 N
ATOM     34 2H11 UNL     1      30.883  20.509  12.197  1.00  0.00     0.176 HD
ATOM     35 1H11 UNL     1      30.876  19.103  13.279  1.00  0.00     0.176 HD
ENDBRANCH  31  33
ENDBRANCH  26  31
ENDBRANCH   9  26
BRANCH   7  36
HETATM   36  C8  UNL     1      36.520  22.188  15.397  1.00  0.00     0.147 C
BRANCH  36  37
HETATM   37  C9  UNL     1      36.715  23.291  14.374  1.00  0.00     0.183 C
BRANCH  37  38
HETATM   38  O1  UNL     1      37.845  23.075  13.602  1.00  0.00    -0.399 OA
ATOM     39  H1  UNL     1      38.486  23.767  13.719  1.00  0.00     0.209 HD
ENDBRANCH  37  38
ENDBRANCH  36  37
ENDBRANCH   7  36
TORSDOF 9
ENDMDL