MODEL 2
REMARK VINA RESULT: -6.295485395      2.971      3.635
REMARK  7 active torsions:
REMARK  status: ('A' for Active; 'I' for Inactive)
REMARK    1  A    between atoms: N1_1  and  C1_4
REMARK    2  A    between atoms: C3_9  and  C4_10
REMARK       I    between atoms: C4_10  and  N4_12
REMARK    3  A    between atoms: C6_17  and  N7_18
REMARK    4  A    between atoms: N7_18  and  C7_19
REMARK    5  A    between atoms: C7_19  and  C8_20
REMARK    6  A    between atoms: N8_21  and  N9_23
REMARK    7  A    between atoms: N9_23  and  C9_25
ROOT
HETATM    1  C1  UNL     1      32.794  17.492  13.208  1.00  0.00     0.679 A
HETATM    2  N2  UNL     1      33.205  17.301  11.948  1.00  0.00    -0.178 N
ATOM      3  H2  UNL     1      33.750  18.023  11.477  1.00  0.00     0.185 HD
HETATM    4  C2  UNL     1      32.903  16.164  11.304  1.00  0.00     0.152 A
HETATM    5  N3  UNL     1      33.328  15.933   9.962  1.00  0.00    -0.081 NA
HETATM    6  C3  UNL     1      32.158  15.146  11.915  1.00  0.00     0.132 A
HETATM    7  C6  UNL     1      31.735  15.344  13.212  1.00  0.00     0.212 A
HETATM    8  N12 UNL     1      32.091  16.555  13.812  1.00  0.00    -0.163 N
ATOM      9  H12 UNL     1      31.788  16.724  14.771  1.00  0.00     0.187 HD
ENDROOT
BRANCH   7  10
HETATM   10  N7  UNL     1      31.089  14.543  13.824  1.00  0.00    -0.397 NA
BRANCH  10  11
HETATM   11  C7  UNL     1      30.340  13.656  14.470  1.00  0.00     0.203 C
BRANCH  11  12
HETATM   12  C8  UNL     1      29.282  12.964  13.642  1.00  0.00     0.139 C
HETATM   13  N8  UNL     1      29.494  11.794  13.185  1.00  0.00    -0.295 N
ATOM     14  H8  UNL     1      30.370  11.304  13.365  1.00  0.00     0.186 HD
BRANCH  13  15
HETATM   15  N9  UNL     1      28.466  11.201  12.420  1.00  0.00    -0.133 N
ATOM     16  H9  UNL     1      27.621  11.740  12.225  1.00  0.00     0.205 HD
BRANCH  15  17
HETATM   17  C9  UNL     1      28.570   9.878  11.912  1.00  0.00     0.688 C
HETATM   18  N10 UNL     1      28.378   8.821  12.635  1.00  0.00    -0.225 N
HETATM   19  C10 UNL     1      28.467   7.470  12.182  1.00  0.00     0.139 C
ATOM     20  H10 UNL     1      28.142   8.966  13.617  1.00  0.00     0.177 HD
HETATM   21  C11 UNL     1      29.297   7.233  10.969  1.00  0.00     0.040 C
HETATM   22  C12 UNL     1      29.657   8.440  10.172  1.00  0.00     0.139 C
HETATM   23  N11 UNL     1      28.901   9.634  10.546  1.00  0.00    -0.225 N
ATOM     24  H11 UNL     1      28.610  10.296   9.828  1.00  0.00     0.177 HD
ENDBRANCH  15  17
ENDBRANCH  13  15
ENDBRANCH  11  12
ENDBRANCH  10  11
ENDBRANCH   7  10
BRANCH   6  25
HETATM   25  C4  UNL     1      31.868  13.941  11.175  1.00  0.00     0.266 C
HETATM   26  O1  UNL     1      32.803  13.062  11.094  1.00  0.00    -0.267 OA
HETATM   27  N4  UNL     1      30.689  13.587  10.520  1.00  0.00    -0.299 N
HETATM   28  C5  UNL     1      30.475  12.576   9.784  1.00  0.00     0.203 C
ATOM     29  H4  UNL     1      29.900  14.220  10.648  1.00  0.00     0.171 HD
HETATM   30  N5  UNL     1      31.509  11.635   9.544  1.00  0.00    -0.066 NA
HETATM   31  N6  UNL     1      29.185  12.406   9.209  1.00  0.00    -0.066 NA
ENDBRANCH   6  25
BRANCH   1  32
HETATM   32  N1  UNL     1      33.119  18.613  13.777  1.00  0.00    -0.234 N
ATOM     33  H12 UNL     1      33.640  18.663  14.652  1.00  0.00     0.174 HD
ATOM     34  H11 UNL     1      32.831  19.475  13.313  1.00  0.00     0.174 HD
ENDBRANCH   1  32
TORSDOF 7
ENDMDL