MODEL 1
REMARK VINA RESULT: -5.455612478      0.000      0.000
REMARK  8 active torsions:
REMARK  status: ('A' for Active; 'I' for Inactive)
REMARK       I    between atoms: N1_2  and  C2_4
REMARK    1  A    between atoms: C2_4  and  C3_6
REMARK    2  A    between atoms: C3_6  and  C4_7
REMARK    3  A    between atoms: C3_6  and  N10_36
REMARK    4  A    between atoms: C5_8  and  C6_9
REMARK    5  A    between atoms: C7_10  and  N2_11
REMARK    6  A    between atoms: C10_16  and  N4_17
REMARK    7  A    between atoms: C11_22  and  N6_23
REMARK    8  A    between atoms: N6_23  and  N7_25
REMARK       I    between atoms: N7_25  and  C12_27
REMARK       I    between atoms: C12_27  and  N8_28
REMARK       I    between atoms: C12_27  and  N9_32
ROOT
HETATM    1  C6  UNL     1      32.005  15.656  12.221  1.00  0.00     0.108 A
HETATM    2  C7  UNL     1      31.995  15.458  13.594  1.00  0.00     0.141 A
HETATM    3  N3  UNL     1      32.777  16.185  14.407  1.00  0.00    -0.175 N
ATOM      4  H3  UNL     1      32.751  16.020  15.413  1.00  0.00     0.186 HD
HETATM    5  C10 UNL     1      33.589  17.125  13.913  1.00  0.00     0.679 A
HETATM    6  N5  UNL     1      33.604  17.325  12.580  1.00  0.00    -0.174 N
ATOM      7  H5  UNL     1      34.225  18.042  12.203  1.00  0.00     0.186 HD
HETATM    8  C11 UNL     1      32.841  16.625  11.723  1.00  0.00     0.158 A
ENDROOT
BRANCH   8   9
HETATM    9  N6  UNL     1      32.903  16.873  10.433  1.00  0.00    -0.285 N
ATOM     10  H6  UNL     1      33.292  16.187   9.787  1.00  0.00     0.188 HD
BRANCH   9  11
HETATM   11  N7  UNL     1      32.420  18.106   9.967  1.00  0.00    -0.282 N
HETATM   12  C12 UNL     1      31.127  18.641  10.226  1.00  0.00     0.494 C
HETATM   13  N8  UNL     1      31.047  19.988   9.642  1.00  0.00    -0.032 N
HETATM   14  N9  UNL     1      30.169  17.845   9.460  1.00  0.00    -0.032 N
ATOM     15  H83 UNL     1      31.795  20.600   9.968  1.00  0.00     0.279 HD
ATOM     16  H82 UNL     1      31.281  19.998   8.649  1.00  0.00     0.279 HD
ATOM     17  H81 UNL     1      30.121  20.372   9.827  1.00  0.00     0.279 HD
ATOM     18  H93 UNL     1      30.391  17.801   8.465  1.00  0.00     0.279 HD
ATOM     19  H92 UNL     1      30.233  16.846   9.653  1.00  0.00     0.279 HD
ATOM     20  H91 UNL     1      29.242  18.229   9.645  1.00  0.00     0.279 HD
ATOM     21  H7  UNL     1      33.051  18.667   9.393  1.00  0.00     0.184 HD
ENDBRANCH   9  11
ENDBRANCH   8   9
BRANCH   1  22
HETATM   22  C5  UNL     1      31.167  14.861  11.371  1.00  0.00    -0.057 C
HETATM   23  C4  UNL     1      30.474  14.206  10.635  1.00  0.00    -0.058 C
BRANCH  23  24
HETATM   24  C3  UNL     1      29.645  13.422   9.712  1.00  0.00     0.355 C
BRANCH  24  25
HETATM   25  C2  UNL     1      30.026  12.001   9.880  1.00  0.00     0.260 C
HETATM   26  N1  UNL     1      29.004  11.047  10.040  1.00  0.00    -0.363 N
HETATM   27  C1  UNL     1      29.357   9.654  10.204  1.00  0.00     0.149 C
ATOM     28  H1  UNL     1      28.025  11.335  10.041  1.00  0.00     0.162 HD
HETATM   29  O1  UNL     1      31.233  11.697   9.875  1.00  0.00    -0.270 OA
ENDBRANCH  24  25
BRANCH  24  30
HETATM   30  N10 UNL     1      28.241  13.674   9.892  1.00  0.00    -0.056 N
HETATM   31  C13 UNL     1      27.809  14.898   9.262  1.00  0.00     0.269 C
ATOM     32 2H10 UNL     1      27.683  12.882   9.573  1.00  0.00     0.278 HD
ATOM     33 1H10 UNL     1      27.992  13.663  10.881  1.00  0.00     0.278 HD
ENDBRANCH  24  30
ENDBRANCH  23  24
ENDBRANCH   1  22
BRANCH   2  34
HETATM   34  N2  UNL     1      31.112  14.467  14.081  1.00  0.00    -0.374 N
HETATM   35  C8  UNL     1      31.526  13.092  14.226  1.00  0.00     0.150 C
HETATM   36  C9  UNL     1      29.770  14.859  14.445  1.00  0.00     0.150 C
ENDBRANCH   2  34
BRANCH   5  37
HETATM   37  N4  UNL     1      34.340  17.820  14.697  1.00  0.00    -0.234 N
ATOM     38  H42 UNL     1      35.123  17.391  15.192  1.00  0.00     0.174 HD
ATOM     39  H41 UNL     1      34.162  18.815  14.838  1.00  0.00     0.174 HD
ENDBRANCH   5  37
TORSDOF 8
ENDMDL