MODEL 5
REMARK VINA RESULT: -5.661131076      2.689      4.026
REMARK  6 active torsions:
REMARK  status: ('A' for Active; 'I' for Inactive)
REMARK    1  A    between atoms: C3_8  and  C4_9
REMARK       I    between atoms: C4_9  and  N3_11
REMARK    2  A    between atoms: N3_11  and  N4_13
REMARK    3  A    between atoms: C5_16  and  N5_17
REMARK    4  A    between atoms: N5_17  and  C6_19
REMARK    5  A    between atoms: C6_19  and  C7_20
REMARK       I    between atoms: C7_20  and  N6_22
REMARK    6  A    between atoms: N6_22  and  C8_24
ROOT
HETATM    1  N1  UNL     1      31.801  20.962   9.169  1.00  0.00    -0.234 N
ATOM      2  H11 UNL     1      32.627  21.123   9.745  1.00  0.00     0.174 HD
ATOM      3  H12 UNL     1      31.519  21.616   8.439  1.00  0.00     0.174 HD
HETATM    4  C1  UNL     1      31.103  19.903   9.373  1.00  0.00     0.677 A
HETATM    5  N2  UNL     1      29.996  19.686   8.602  1.00  0.00    -0.201 N
ATOM      6  H2  UNL     1      29.715  20.338   7.869  1.00  0.00     0.183 HD
HETATM    7  C2  UNL     1      29.303  18.575   8.861  1.00  0.00     0.127 A
HETATM    8  C3  UNL     1      29.653  17.652   9.857  1.00  0.00     0.094 A
HETATM    9  C5  UNL     1      30.772  17.892  10.612  1.00  0.00     0.138 A
HETATM   10  N8  UNL     1      31.467  19.058  10.317  1.00  0.00    -0.176 N
ATOM     11  H8  UNL     1      32.304  19.272  10.860  1.00  0.00     0.186 HD
ENDROOT
BRANCH   9  12
HETATM   12  N5  UNL     1      31.245  17.104  11.418  1.00  0.00    -0.346 N
ATOM     13  H5  UNL     1      30.600  17.067  12.208  1.00  0.00     0.167 HD
BRANCH  12  14
HETATM   14  C6  UNL     1      32.281  16.245  11.710  1.00  0.00     0.164 C
BRANCH  14  15
HETATM   15  C7  UNL     1      32.000  14.856  11.144  1.00  0.00     0.261 C
HETATM   16  O2  UNL     1      32.995  14.319  10.632  1.00  0.00    -0.267 OA
HETATM   17  N6  UNL     1      30.741  14.282  11.212  1.00  0.00    -0.316 N
ATOM     18  H6  UNL     1      30.005  14.833  11.655  1.00  0.00     0.169 HD
BRANCH  17  19
HETATM   19  C8  UNL     1      30.377  13.003  10.724  1.00  0.00     0.126 A
HETATM   20  C9  UNL     1      31.136  12.271   9.852  1.00  0.00     0.182 A
HETATM   21  O3  UNL     1      30.723  11.057   9.465  1.00  0.00    -0.271 OA
HETATM   22  C10 UNL     1      29.617  10.526   9.880  1.00  0.00     0.372 A
HETATM   23  O4  UNL     1      29.220   9.375   9.512  1.00  0.00    -0.238 OA
HETATM   24  N7  UNL     1      28.804  11.177  10.741  1.00  0.00    -0.267 N
HETATM   25  C11 UNL     1      29.177  12.415  11.168  1.00  0.00     0.278 A
ATOM     26  H7  UNL     1      27.934  10.752  11.063  1.00  0.00     0.174 HD
HETATM   27  O5  UNL     1      28.490  13.097  11.965  1.00  0.00    -0.265 OA
ENDBRANCH  17  19
ENDBRANCH  14  15
ENDBRANCH  12  14
ENDBRANCH   9  12
BRANCH   8  28
HETATM   28  C4  UNL     1      28.726  16.536  10.121  1.00  0.00     0.274 C
HETATM   29  O1  UNL     1      28.297  16.301  11.276  1.00  0.00    -0.266 OA
HETATM   30  N3  UNL     1      28.328  15.708   9.056  1.00  0.00    -0.272 N
ATOM     31  H3  UNL     1      28.682  15.925   8.124  1.00  0.00     0.189 HD
BRANCH  30  32
HETATM   32  N4  UNL     1      27.472  14.597   9.197  1.00  0.00    -0.342 N
ATOM     33  H42 UNL     1      27.545  13.866   8.489  1.00  0.00     0.176 HD
ATOM     34  H41 UNL     1      26.796  14.488   9.953  1.00  0.00     0.176 HD
ENDBRANCH  30  32
ENDBRANCH   8  28
TORSDOF 6
ENDMDL