MODEL 3
REMARK VINA RESULT: -5.586596487      1.222      2.004
REMARK  9 active torsions:
REMARK  status: ('A' for Active; 'I' for Inactive)
REMARK    1  A    between atoms: C2_2  and  N1_3
REMARK    2  A    between atoms: C2_2  and  C8_19
REMARK    3  A    between atoms: N1_3  and  C3_5
REMARK    4  A    between atoms: C8_19  and  N7_20
REMARK    5  A    between atoms: C8_19  and  C9_24
REMARK    6  A    between atoms: C9_24  and  N8_25
REMARK    7  A    between atoms: N8_25  and  C10_27
REMARK    8  A    between atoms: C11_30  and  N10_31
REMARK    9  A    between atoms: C12_36  and  N12_37
ROOT
HETATM    1  C8  UNL     1      31.152  18.038  10.748  1.00  0.00     0.223 C
ENDROOT
BRANCH   1   2
HETATM    2  C2  UNL     1      30.631  18.819   9.521  1.00  0.00     0.111 C
HETATM    3  C1  UNL     1      29.130  18.927   9.705  1.00  0.00     0.034 C
BRANCH   2   4
HETATM    4  N1  UNL     1      31.333  20.018   9.427  1.00  0.00    -0.368 N
ATOM      5  H1  UNL     1      32.318  19.796   9.285  1.00  0.00     0.161 HD
BRANCH   4   6
HETATM    6  C3  UNL     1      31.221  21.236   9.448  1.00  0.00     0.135 A
HETATM    7  N2  UNL     1      31.422  21.990  10.532  1.00  0.00    -0.337 N
HETATM    8  C4  UNL     1      31.280  23.335  10.489  1.00  0.00     0.183 A
ATOM      9  H2  UNL     1      31.688  21.543  11.409  1.00  0.00     0.168 HD
HETATM   10  N3  UNL     1      30.931  23.956   9.354  1.00  0.00    -0.335 N
HETATM   11  C5  UNL     1      30.717  23.252   8.241  1.00  0.00     0.156 A
ATOM     12  H3  UNL     1      30.827  24.971   9.341  1.00  0.00     0.168 HD
HETATM   13  C6  UNL     1      30.856  21.908   8.273  1.00  0.00     0.139 A
HETATM   14  N6  UNL     1      30.359  23.626   6.982  1.00  0.00    -0.265 N
HETATM   15  N4  UNL     1      30.580  21.460   7.015  1.00  0.00    -0.279 N
HETATM   16  N5  UNL     1      30.290  22.527   6.289  1.00  0.00    -0.239 N
ATOM     17  H4  UNL     1      30.594  20.491   6.696  1.00  0.00     0.189 HD
ATOM     18  H5  UNL     1      30.042  22.492   5.300  1.00  0.00     0.208 HD
HETATM   19  C7  UNL     1      30.108  24.994   6.546  1.00  0.00     0.181 C
ENDBRANCH   4   6
ENDBRANCH   2   4
ENDBRANCH   1   2
BRANCH   1  20
HETATM   20  N7  UNL     1      30.841  16.646  10.492  1.00  0.00    -0.071 N
ATOM     21  H73 UNL     1      30.054  16.513   9.858  1.00  0.00     0.274 HD
ATOM     22  H72 UNL     1      31.540  16.171   9.921  1.00  0.00     0.274 HD
ATOM     23  H71 UNL     1      30.704  16.218  11.408  1.00  0.00     0.274 HD
ENDBRANCH   1  20
BRANCH   1  24
HETATM   24  C9  UNL     1      30.389  18.553  11.960  1.00  0.00     0.173 C
BRANCH  24  25
HETATM   25  N8  UNL     1      31.332  18.962  12.950  1.00  0.00    -0.223 N
ATOM     26  H8  UNL     1      31.329  19.953  13.192  1.00  0.00     0.177 HD
BRANCH  25  27
HETATM   27  C10 UNL     1      32.165  18.248  13.558  1.00  0.00     0.707 A
HETATM   28  N9  UNL     1      31.835  17.193  14.297  1.00  0.00    -0.022 N
HETATM   29  C11 UNL     1      32.783  16.450  14.935  1.00  0.00     0.705 A
ATOM     30  H9  UNL     1      30.852  16.936  14.389  1.00  0.00     0.203 HD
HETATM   31  N11 UNL     1      34.076  16.767  14.831  1.00  0.00    -0.022 N
HETATM   32  C12 UNL     1      34.428  17.842  14.079  1.00  0.00     0.705 A
ATOM     33  H11 UNL     1      34.786  16.212  15.308  1.00  0.00     0.203 HD
HETATM   34  N13 UNL     1      33.486  18.560  13.460  1.00  0.00    -0.022 N
ATOM     35  H13 UNL     1      33.765  19.365  12.898  1.00  0.00     0.203 HD
BRANCH  29  36
HETATM   36  N10 UNL     1      32.436  15.442  15.639  1.00  0.00    -0.234 N
ATOM     37 2H10 UNL     1      32.490  14.506  15.238  1.00  0.00     0.174 HD
ATOM     38 1H10 UNL     1      32.108  15.578  16.595  1.00  0.00     0.174 HD
ENDBRANCH  29  36
BRANCH  32  39
HETATM   39  N12 UNL     1      35.684  18.146  13.979  1.00  0.00    -0.234 N
ATOM     40 2H12 UNL     1      36.271  18.255  14.806  1.00  0.00     0.174 HD
ATOM     41 1H12 UNL     1      36.084  18.277  13.050  1.00  0.00     0.174 HD
ENDBRANCH  32  39
ENDBRANCH  25  27
ENDBRANCH  24  25
ENDBRANCH   1  24
TORSDOF 9
ENDMDL