MODEL 4
REMARK VINA RESULT: -6.044519517      2.899      5.241
REMARK  5 active torsions:
REMARK  status: ('A' for Active; 'I' for Inactive)
REMARK    1  A    between atoms: N1_1  and  C1_4
REMARK    2  A    between atoms: C3_6  and  C4_7
REMARK    3  A    between atoms: C4_7  and  C5_8
REMARK    4  A    between atoms: C6_9  and  C7_10
REMARK       I    between atoms: C7_10  and  N2_12
REMARK       I    between atoms: N2_12  and  C8_14
REMARK       I    between atoms: C8_14  and  N3_15
REMARK       I    between atoms: C8_14  and  N4_19
REMARK    5  A    between atoms: N6_27  and  N7_28
REMARK       I    between atoms: N7_28  and  C10_30
ROOT
HETATM    1  C5  UNL     1      30.799  15.090  11.578  1.00  0.00     0.076 A
HETATM    2  C6  UNL     1      31.994  15.014  12.230  1.00  0.00     0.130 A
HETATM    3  N5  UNL     1      32.643  13.920  11.760  1.00  0.00    -0.301 N
ATOM      4  H5  UNL     1      33.565  13.596  12.050  1.00  0.00     0.171 HD
HETATM    5  C9  UNL     1      31.839  13.331  10.828  1.00  0.00     0.346 A
HETATM    6  O2  UNL     1      32.154  12.283  10.199  1.00  0.00    -0.245 OA
HETATM    7  N6  UNL     1      30.703  14.016  10.690  1.00  0.00    -0.203 N
ENDROOT
BRANCH   2   8
HETATM    8  C7  UNL     1      32.574  15.825  13.309  1.00  0.00     0.273 C
HETATM    9  O1  UNL     1      32.507  15.554  14.523  1.00  0.00    -0.266 OA
HETATM   10  N2  UNL     1      33.282  17.030  12.985  1.00  0.00    -0.306 N
HETATM   11  C8  UNL     1      33.873  17.866  14.000  1.00  0.00     0.483 C
ATOM     12  H2  UNL     1      33.370  17.304  12.007  1.00  0.00     0.166 HD
HETATM   13  N3  UNL     1      33.263  19.179  14.054  1.00  0.00    -0.033 N
HETATM   14  N4  UNL     1      35.284  18.039  13.861  1.00  0.00    -0.033 N
ATOM     15  H33 UNL     1      33.287  19.634  13.142  1.00  0.00     0.278 HD
ATOM     16  H32 UNL     1      32.253  19.111  14.176  1.00  0.00     0.278 HD
ATOM     17  H31 UNL     1      33.681  19.771  14.772  1.00  0.00     0.278 HD
ATOM     18  H43 UNL     1      35.754  17.133  13.824  1.00  0.00     0.278 HD
ATOM     19  H42 UNL     1      35.512  18.389  12.930  1.00  0.00     0.278 HD
ATOM     20  H41 UNL     1      35.701  18.630  14.578  1.00  0.00     0.278 HD
ENDBRANCH   2   8
BRANCH   1  21
HETATM   21  C4  UNL     1      29.773  16.132  11.716  1.00  0.00     0.100 C
BRANCH  21  22
HETATM   22  C3  UNL     1      29.781  17.203  10.717  1.00  0.00    -0.048 A
HETATM   23  C2  UNL     1      30.766  18.171  10.638  1.00  0.00     0.055 A
HETATM   24  C1  UNL     1      30.697  19.116   9.629  1.00  0.00     0.098 A
HETATM   25  N9  UNL     1      29.706  19.130   8.716  1.00  0.00    -0.353 N
HETATM   26  C12 UNL     1      28.725  18.200   8.759  1.00  0.00     0.090 A
ATOM     27  H9  UNL     1      29.696  19.845   7.988  1.00  0.00     0.166 HD
HETATM   28  C11 UNL     1      28.801  17.273   9.758  1.00  0.00     0.024 A
BRANCH  24  29
HETATM   29  N1  UNL     1      31.618  20.030   9.547  1.00  0.00    -0.385 N
ATOM     30  H12 UNL     1      31.982  20.262   8.623  1.00  0.00     0.157 HD
ATOM     31  H11 UNL     1      31.948  20.486  10.397  1.00  0.00     0.157 HD
ENDBRANCH  24  29
ENDBRANCH  21  22
ENDBRANCH   1  21
BRANCH   7  32
HETATM   32  N7  UNL     1      29.608  13.775   9.876  1.00  0.00    -0.243 N
HETATM   33  C10 UNL     1      28.714  12.706   9.889  1.00  0.00     0.347 C
HETATM   34  N8  UNL     1      27.634  12.688   8.916  1.00  0.00    -0.038 NA
HETATM   35  O3  UNL     1      28.703  11.723  10.644  1.00  0.00    -0.249 OA
ATOM     36  H7  UNL     1      29.431  14.484   9.164  1.00  0.00     0.192 HD
ENDBRANCH   7  32
TORSDOF 5
ENDMDL