MODEL 3
REMARK VINA RESULT: -5.619376553      3.028      5.077
REMARK  10 active torsions:
REMARK  status: ('A' for Active; 'I' for Inactive)
REMARK    1  A    between atoms: N1_2  and  C2_4
REMARK    2  A    between atoms: C4_6  and  C5_7
REMARK    3  A    between atoms: C5_7  and  O1_8
REMARK    4  A    between atoms: C5_7  and  C6_10
REMARK    5  A    between atoms: C6_10  and  N2_11
REMARK    6  A    between atoms: C6_10  and  C7_15
REMARK    7  A    between atoms: C7_15  and  N3_16
REMARK    8  A    between atoms: C7_15  and  C8_20
REMARK       I    between atoms: C8_20  and  N4_22
REMARK    9  A    between atoms: N4_22  and  C9_24
REMARK   10  A    between atoms: C11_31  and  N8_32
ROOT
HETATM    1  C7  UNL     1      31.806  15.270  12.387  1.00  0.00     0.308 C
ENDROOT
BRANCH   1   2
HETATM    2  C6  UNL     1      32.955  16.181  12.744  1.00  0.00     0.256 C
BRANCH   2   3
HETATM    3  C5  UNL     1      32.747  16.841  14.072  1.00  0.00     0.184 C
BRANCH   3   4
HETATM    4  C4  UNL     1      33.640  18.008  14.280  1.00  0.00    -0.023 A
HETATM    5  C3  UNL     1      33.200  19.281  14.567  1.00  0.00     0.058 A
HETATM    6  C2  UNL     1      34.077  20.334  14.753  1.00  0.00     0.100 A
HETATM    7  N10 UNL     1      35.405  20.140  14.657  1.00  0.00    -0.353 N
HETATM    8  C13 UNL     1      35.864  18.901  14.378  1.00  0.00     0.090 A
ATOM      9  H10 UNL     1      36.054  20.915  14.793  1.00  0.00     0.166 HD
HETATM   10  C12 UNL     1      35.005  17.836  14.188  1.00  0.00     0.027 A
BRANCH   6  11
HETATM   11  N1  UNL     1      33.662  21.519  15.020  1.00  0.00    -0.381 N
HETATM   12  C1  UNL     1      34.193  22.615  14.237  1.00  0.00     0.147 C
ATOM     13  H1  UNL     1      32.980  21.683  15.760  1.00  0.00     0.160 HD
ENDBRANCH   6  11
ENDBRANCH   3   4
BRANCH   3  14
HETATM   14  O1  UNL     1      32.995  15.879  15.074  1.00  0.00    -0.389 OA
ATOM     15  H1  UNL     1      32.551  15.070  14.850  1.00  0.00     0.210 HD
ENDBRANCH   3  14
ENDBRANCH   2   3
BRANCH   2  16
HETATM   16  N2  UNL     1      33.200  17.185  11.748  1.00  0.00    -0.070 N
ATOM     17  H23 UNL     1      33.884  17.876  12.056  1.00  0.00     0.274 HD
ATOM     18  H22 UNL     1      33.714  16.819  10.948  1.00  0.00     0.274 HD
ATOM     19  H21 UNL     1      32.314  17.612  11.477  1.00  0.00     0.274 HD
ENDBRANCH   2  16
ENDBRANCH   1   2
BRANCH   1  20
HETATM   20  N3  UNL     1      31.860  14.104  13.243  1.00  0.00    -0.064 N
ATOM     21  H33 UNL     1      32.581  13.442  12.958  1.00  0.00     0.275 HD
ATOM     22  H32 UNL     1      32.224  14.317  14.172  1.00  0.00     0.275 HD
ATOM     23  H31 UNL     1      30.932  13.682  13.274  1.00  0.00     0.275 HD
ENDBRANCH   1  20
BRANCH   1  24
HETATM   24  C8  UNL     1      31.856  14.820  10.986  1.00  0.00     0.268 C
HETATM   25  O2  UNL     1      32.964  14.424  10.540  1.00  0.00    -0.270 OA
HETATM   26  N4  UNL     1      30.753  14.800  10.106  1.00  0.00    -0.157 N
ATOM     27  H4  UNL     1      30.531  15.648   9.584  1.00  0.00     0.187 HD
BRANCH  26  28
HETATM   28  C9  UNL     1      30.009  13.756   9.931  1.00  0.00     0.702 A
HETATM   29  N5  UNL     1      30.502  12.507   9.955  1.00  0.00    -0.162 N
HETATM   30  C10 UNL     1      29.722  11.432   9.773  1.00  0.00     0.221 A
ATOM     31  H5  UNL     1      31.499  12.373  10.118  1.00  0.00     0.187 HD
HETATM   32  N6  UNL     1      30.240  10.105   9.798  1.00  0.00    -0.062 NA
HETATM   33  N7  UNL     1      28.389  11.630   9.556  1.00  0.00    -0.163 N
HETATM   34  C11 UNL     1      27.873  12.875   9.528  1.00  0.00     0.692 A
ATOM     35  H7  UNL     1      27.776  10.827   9.414  1.00  0.00     0.187 HD
HETATM   36  N9  UNL     1      28.693  13.922   9.716  1.00  0.00    -0.022 N
ATOM     37  H9  UNL     1      28.308  14.867   9.696  1.00  0.00     0.203 HD
BRANCH  34  38
HETATM   38  N8  UNL     1      26.607  13.029   9.320  1.00  0.00    -0.234 N
ATOM     39  H82 UNL     1      25.906  12.590   9.917  1.00  0.00     0.174 HD
ATOM     40  H81 UNL     1      26.297  13.607   8.539  1.00  0.00     0.174 HD
ENDBRANCH  34  38
ENDBRANCH  26  28
ENDBRANCH   1  24
TORSDOF 10
ENDMDL