MODEL 3
REMARK VINA RESULT: -5.617351575      2.025      9.216
REMARK  5 active torsions:
REMARK  status: ('A' for Active; 'I' for Inactive)
REMARK    1  A    between atoms: C8_19  and  N6_20
REMARK    2  A    between atoms: N6_20  and  C9_22
REMARK    3  A    between atoms: C9_22  and  C10_23
REMARK    4  A    between atoms: C10_23  and  C11_24
REMARK    5  A    between atoms: C11_24  and  C12_25
ROOT
HETATM    1  N1  UNL     1      36.972  20.435  14.747  1.00  0.00    -0.079 NA
HETATM    2  C1  UNL     1      36.061  21.570  14.721  1.00  0.00     0.159 C
HETATM    3  N2  UNL     1      36.561  22.638  14.293  1.00  0.00    -0.354 N
ATOM      4  H2  UNL     1      37.541  22.549  14.025  1.00  0.00     0.166 HD
HETATM    5  C2  UNL     1      36.046  23.935  14.106  1.00  0.00     0.089 C
HETATM    6  C3  UNL     1      36.881  24.921  14.915  1.00  0.00     0.276 C
HETATM    7  N3  UNL     1      37.890  24.269  15.700  1.00  0.00    -0.069 N
ATOM      8  H31 UNL     1      38.766  24.200  15.182  1.00  0.00     0.277 HD
ATOM      9  H32 UNL     1      37.682  23.277  15.810  1.00  0.00     0.277 HD
HETATM   10  C4  UNL     1      38.099  24.896  16.983  1.00  0.00     0.260 C
HETATM   11  C5  UNL     1      37.672  24.005  18.128  1.00  0.00     0.259 C
HETATM   12  N4  UNL     1      36.207  23.989  18.194  1.00  0.00    -0.072 N
ATOM     13  H41 UNL     1      35.789  24.730  17.631  1.00  0.00     0.277 HD
ATOM     14  H42 UNL     1      35.859  24.283  19.107  1.00  0.00     0.277 HD
HETATM   15  C6  UNL     1      35.709  22.658  17.815  1.00  0.00     0.251 C
HETATM   16  C7  UNL     1      34.414  22.826  17.079  1.00  0.00     0.148 C
HETATM   17  N5  UNL     1      34.087  21.821  16.144  1.00  0.00    -0.372 N
ATOM     18  H5  UNL     1      33.148  21.443  16.266  1.00  0.00     0.161 HD
HETATM   19  C8  UNL     1      34.719  21.295  15.191  1.00  0.00     0.139 C
ENDROOT
BRANCH  19  20
HETATM   20  N6  UNL     1      34.038  20.245  14.437  1.00  0.00    -0.374 N
ATOM     21  H6  UNL     1      33.763  20.388  13.465  1.00  0.00     0.161 HD
BRANCH  20  22
HETATM   22  C9  UNL     1      33.767  19.002  15.107  1.00  0.00     0.121 C
BRANCH  22  23
HETATM   23  C10 UNL     1      34.335  17.884  14.262  1.00  0.00     0.023 C
BRANCH  23  24
HETATM   24  C11 UNL     1      33.480  16.652  14.331  1.00  0.00     0.064 C
BRANCH  24  25
HETATM   25  C12 UNL     1      33.032  16.185  12.964  1.00  0.00     0.382 C
HETATM   26  N7  UNL     1      31.628  15.820  12.987  1.00  0.00    -0.045 N
HETATM   27  C13 UNL     1      30.769  16.979  13.036  1.00  0.00     0.262 C
ATOM     28  H72 UNL     1      31.390  15.216  12.201  1.00  0.00     0.279 HD
ATOM     29  H71 UNL     1      31.425  15.177  13.752  1.00  0.00     0.279 HD
HETATM   30  C14 UNL     1      29.803  16.989  11.883  1.00  0.00     0.260 C
HETATM   31  N8  UNL     1      30.444  16.831  10.605  1.00  0.00    -0.072 N
HETATM   32  C15 UNL     1      31.551  17.747  10.453  1.00  0.00     0.260 C
ATOM     33  H82 UNL     1      30.734  15.865  10.449  1.00  0.00     0.277 HD
ATOM     34  H81 UNL     1      29.777  16.921   9.839  1.00  0.00     0.277 HD
HETATM   35  C16 UNL     1      32.837  16.967  10.704  1.00  0.00     0.262 C
HETATM   36  N9  UNL     1      33.265  17.296  12.045  1.00  0.00    -0.045 N
ATOM     37  H92 UNL     1      32.826  18.155  12.377  1.00  0.00     0.279 HD
ATOM     38  H91 UNL     1      34.239  17.598  12.063  1.00  0.00     0.279 HD
ENDBRANCH  24  25
ENDBRANCH  23  24
ENDBRANCH  22  23
ENDBRANCH  20  22
ENDBRANCH  19  20
TORSDOF 5
ENDMDL