MODEL 2
REMARK VINA RESULT: -6.355377814      0.748      1.914
REMARK  14 active torsions:
REMARK  status: ('A' for Active; 'I' for Inactive)
REMARK    1  A    between atoms: O1_2  and  C2_3
REMARK    2  A    between atoms: C4_5  and  C5_6
REMARK    3  A    between atoms: C5_6  and  O2_7
REMARK    4  A    between atoms: C5_6  and  N1_9
REMARK    5  A    between atoms: N1_9  and  C6_12
REMARK    6  A    between atoms: C6_12  and  C7_13
REMARK    7  A    between atoms: C6_12  and  C9_19
REMARK    8  A    between atoms: C7_13  and  C8_14
REMARK    9  A    between atoms: C8_14  and  O3_15
REMARK   10  A    between atoms: C8_14  and  O4_17
REMARK   11  A    between atoms: C11_21  and  O5_22
REMARK   12  A    between atoms: C13_24  and  O6_25
REMARK   13  A    between atoms: C17_31  and  O9_32
REMARK   14  A    between atoms: C19_34  and  O10_35
ROOT
HETATM    1  N1  UNL     1      20.913  37.272  10.397  1.00  0.00    -0.034 N
ATOM      2  H11 UNL     1      20.911  38.143   9.868  1.00  0.00     0.281 HD
ATOM      3  H12 UNL     1      21.719  36.827   9.958  1.00  0.00     0.281 HD
ENDROOT
BRANCH   1   4
HETATM    4  C5  UNL     1      19.702  36.514  10.184  1.00  0.00     0.354 C
BRANCH   4   5
HETATM    5  C4  UNL     1      19.534  36.004   8.825  1.00  0.00     0.003 A
HETATM    6  C3  UNL     1      19.933  34.685   8.597  1.00  0.00     0.051 A
HETATM    7  C2  UNL     1      19.833  34.082   7.368  1.00  0.00     0.104 A
HETATM    8  C19 UNL     1      19.310  34.833   6.326  1.00  0.00     0.133 A
HETATM    9  C17 UNL     1      18.896  36.153   6.501  1.00  0.00     0.104 A
HETATM   10  C16 UNL     1      19.021  36.705   7.755  1.00  0.00     0.051 A
BRANCH   7  11
HETATM   11  O1  UNL     1      20.235  32.762   7.149  1.00  0.00    -0.353 OA
HETATM   12  C1  UNL     1      19.610  31.750   7.921  1.00  0.00     0.210 C
ENDBRANCH   7  11
BRANCH   8  13
HETATM   13  O10 UNL     1      19.189  34.276   5.081  1.00  0.00    -0.356 OA
ATOM     14  H10 UNL     1      19.632  34.677   4.341  1.00  0.00     0.218 HD
ENDBRANCH   8  13
BRANCH   9  15
HETATM   15  O9  UNL     1      18.382  36.853   5.422  1.00  0.00    -0.353 OA
HETATM   16  C18 UNL     1      17.043  36.849   5.027  1.00  0.00     0.210 C
ENDBRANCH   9  15
ENDBRANCH   4   5
BRANCH   4  17
HETATM   17  O2  UNL     1      18.564  37.286  10.469  1.00  0.00    -0.366 OA
ATOM     18  H2  UNL     1      18.721  37.704  11.308  1.00  0.00     0.212 HD
ENDBRANCH   4  17
ENDBRANCH   1   4
BRANCH   1  19
HETATM   19  C6  UNL     1      21.132  37.503  11.799  1.00  0.00     0.250 C
BRANCH  19  20
HETATM   20  C7  UNL     1      20.692  36.411  12.710  1.00  0.00     0.100 C
BRANCH  20  21
HETATM   21  C8  UNL     1      19.836  36.799  13.858  1.00  0.00     0.256 C
BRANCH  21  22
HETATM   22  O3  UNL     1      18.716  37.532  13.574  1.00  0.00    -0.371 OA
ATOM     23  H3  UNL     1      18.499  38.235  14.176  1.00  0.00     0.212 HD
ENDBRANCH  21  22
BRANCH  21  24
HETATM   24  O4  UNL     1      20.650  37.592  14.704  1.00  0.00    -0.371 OA
ATOM     25  H4  UNL     1      20.058  38.029  15.304  1.00  0.00     0.212 HD
ENDBRANCH  21  24
ENDBRANCH  20  21
ENDBRANCH  19  20
BRANCH  19  26
HETATM   26  C9  UNL     1      22.526  37.931  12.080  1.00  0.00     0.090 A
HETATM   27  C10 UNL     1      23.583  37.143  11.682  1.00  0.00     0.074 A
HETATM   28  C11 UNL     1      24.909  37.481  11.911  1.00  0.00     0.110 A
HETATM   29  C13 UNL     1      25.159  38.669  12.572  1.00  0.00     0.178 A
HETATM   30  C15 UNL     1      24.067  39.423  12.950  1.00  0.00     0.324 A
HETATM   31  O7  UNL     1      24.331  40.507  13.554  1.00  0.00    -0.257 OA
HETATM   32  O8  UNL     1      22.818  39.050  12.704  1.00  0.00    -0.276 OA
BRANCH  28  33
HETATM   33  O5  UNL     1      25.946  36.665  11.497  1.00  0.00    -0.353 OA
HETATM   34  C12 UNL     1      26.818  36.103  12.456  1.00  0.00     0.210 C
ENDBRANCH  28  33
BRANCH  29  35
HETATM   35  O6  UNL     1      26.456  39.051  12.824  1.00  0.00    -0.348 OA
HETATM   36  C14 UNL     1      27.240  39.625  11.794  1.00  0.00     0.210 C
ENDBRANCH  29  35
ENDBRANCH  19  26
ENDBRANCH   1  19
TORSDOF 14
ENDMDL