MODEL 5
REMARK VINA RESULT: -5.231529071      1.137      1.255
REMARK  13 active torsions:
REMARK  status: ('A' for Active; 'I' for Inactive)
REMARK    1  A    between atoms: O1_2  and  C2_3
REMARK    2  A    between atoms: C2_3  and  C3_4
REMARK    3  A    between atoms: C3_4  and  O2_5
REMARK    4  A    between atoms: O2_5  and  C4_6
REMARK    5  A    between atoms: C4_6  and  O3_7
REMARK    6  A    between atoms: C4_6  and  C5_9
REMARK    7  A    between atoms: C6_11  and  N1_12
REMARK    8  A    between atoms: N1_12  and  S1_14
REMARK    9  A    between atoms: C7_18  and  N2_19
REMARK   10  A    between atoms: N2_19  and  C8_21
REMARK   11  A    between atoms: C8_21  and  C11_24
REMARK   12  A    between atoms: C11_24  and  O8_26
REMARK   13  A    between atoms: N3_30  and  O9_32
ROOT
HETATM    1  C5  UNL     1      19.879  35.888  11.101  1.00  0.00     0.118 A
HETATM    2  O4  UNL     1      19.484  34.626  10.942  1.00  0.00    -0.290 OA
HETATM    3  C6  UNL     1      19.015  34.399   9.758  1.00  0.00     0.186 A
HETATM    4  C7  UNL     1      19.100  35.607   9.063  1.00  0.00     0.090 A
HETATM    5  C14 UNL     1      19.647  36.544   9.912  1.00  0.00     0.004 A
HETATM    6  C15 UNL     1      19.973  37.977   9.617  1.00  0.00     0.054 C
ENDROOT
BRANCH   1   7
HETATM    7  C4  UNL     1      20.452  36.407  12.370  1.00  0.00     0.316 C
BRANCH   7   8
HETATM    8  O2  UNL     1      21.584  37.160  12.230  1.00  0.00    -0.347 OA
BRANCH   8   9
HETATM    9  C3  UNL     1      21.619  38.356  12.899  1.00  0.00     0.257 C
BRANCH   9  10
HETATM   10  C2  UNL     1      22.991  38.894  13.057  1.00  0.00     0.161 C
HETATM   11  N3  UNL     1      23.149  40.030  13.629  1.00  0.00    -0.249 N
ATOM     12  H3  UNL     1      24.085  40.416  13.746  1.00  0.00     0.196 HD
BRANCH  10  13
HETATM   13  O1  UNL     1      24.108  38.208  12.607  1.00  0.00    -0.341 OA
HETATM   14  C1  UNL     1      25.315  38.895  12.331  1.00  0.00     0.211 C
ENDBRANCH  10  13
BRANCH  11  15
HETATM   15  O9  UNL     1      22.059  40.726  14.083  1.00  0.00    -0.288 OA
ATOM     16  H9  UNL     1      22.124  41.248  14.874  1.00  0.00     0.244 HD
ENDBRANCH  11  15
ENDBRANCH   9  10
ENDBRANCH   8   9
ENDBRANCH   7   8
BRANCH   7  17
HETATM   17  O3  UNL     1      19.486  37.313  12.928  1.00  0.00    -0.365 OA
ATOM     18  H3  UNL     1      18.975  37.604  12.181  1.00  0.00     0.213 HD
ENDBRANCH   7  17
ENDBRANCH   1   7
BRANCH   3  19
HETATM   19  N1  UNL     1      18.510  33.139   9.264  1.00  0.00    -0.243 N
ATOM     20  H1  UNL     1      17.599  32.798   9.570  1.00  0.00     0.183 HD
BRANCH  19  21
HETATM   21  S1  UNL     1      19.446  32.217   8.162  1.00  0.00     0.210 S
HETATM   22  O5  UNL     1      18.819  30.876   7.878  1.00  0.00    -0.578 OA
HETATM   23  O6  UNL     1      19.597  32.911   6.836  1.00  0.00    -0.578 OA
HETATM   24  O7  UNL     1      20.995  31.926   8.745  1.00  0.00    -0.578 OA
ENDBRANCH  19  21
ENDBRANCH   3  19
BRANCH   4  25
HETATM   25  N2  UNL     1      18.677  35.777   7.736  1.00  0.00    -0.375 N
ATOM     26  H2  UNL     1      17.693  35.559   7.583  1.00  0.00     0.160 HD
BRANCH  25  27
HETATM   27  C8  UNL     1      19.361  36.191   6.577  1.00  0.00     0.049 C
HETATM   28  C9  UNL     1      20.615  35.309   6.408  1.00  0.00     0.041 C
HETATM   29  C10 UNL     1      19.989  37.598   6.759  1.00  0.00     0.041 C
BRANCH  27  30
HETATM   30  C11 UNL     1      18.642  36.142   5.266  1.00  0.00     0.144 C
HETATM   31  C12 UNL     1      18.837  34.851   4.496  1.00  0.00     0.042 C
BRANCH  30  32
HETATM   32  O8  UNL     1      17.274  36.293   5.572  1.00  0.00    -0.389 OA
HETATM   33  C13 UNL     1      16.592  36.972   4.597  1.00  0.00     0.202 C
ENDBRANCH  30  32
ENDBRANCH  27  30
ENDBRANCH  25  27
ENDBRANCH   4  25
TORSDOF 13
ENDMDL