MODEL 4
REMARK VINA RESULT: -3.574983878      1.908      3.345
REMARK  15 active torsions:
REMARK  status: ('A' for Active; 'I' for Inactive)
REMARK    1  A    between atoms: O1_2  and  C2_3
REMARK    2  A    between atoms: C4_5  and  O2_6
REMARK    3  A    between atoms: C6_9  and  O3_10
REMARK    4  A    between atoms: O3_10  and  C7_11
REMARK    5  A    between atoms: C7_11  and  C8_12
REMARK    6  A    between atoms: C8_12  and  C9_13
REMARK    7  A    between atoms: C8_12  and  C10_16
REMARK    8  A    between atoms: C9_13  and  O4_14
REMARK    9  A    between atoms: C11_17  and  O5_18
REMARK   10  A    between atoms: C12_20  and  O6_21
REMARK   11  A    between atoms: C14_23  and  O7_24
REMARK   12  A    between atoms: C15_26  and  O8_27
REMARK   13  A    between atoms: C17_29  and  C18_30
REMARK   14  A    between atoms: C18_30  and  O9_31
REMARK   15  A    between atoms: C18_30  and  C19_33
ROOT
HETATM    1  C10 UNL     1      19.675  35.959   8.716  1.00  0.00    -0.002 A
HETATM    2  C11 UNL     1      19.523  36.578   7.467  1.00  0.00     0.109 A
HETATM    3  C12 UNL     1      19.362  35.892   6.292  1.00  0.00     0.138 A
HETATM    4  C14 UNL     1      19.352  34.529   6.346  1.00  0.00     0.136 A
HETATM    5  C15 UNL     1      19.506  33.848   7.568  1.00  0.00     0.114 A
HETATM    6  C17 UNL     1      19.660  34.557   8.704  1.00  0.00     0.023 A
ENDROOT
BRANCH   1   7
HETATM    7  C8  UNL     1      19.849  36.835   9.859  1.00  0.00     0.070 C
BRANCH   7   8
HETATM    8  C7  UNL     1      21.334  37.166  10.163  1.00  0.00     0.187 C
BRANCH   8   9
HETATM    9  O3  UNL     1      21.562  37.236  11.533  1.00  0.00    -0.350 OA
BRANCH   9  10
HETATM   10  C6  UNL     1      22.415  38.083  12.200  1.00  0.00     0.074 A
HETATM   11  C5  UNL     1      21.890  38.913  13.202  1.00  0.00     0.073 A
HETATM   12  C4  UNL     1      22.666  39.780  13.924  1.00  0.00     0.070 A
HETATM   13  C3  UNL     1      24.010  39.838  13.659  1.00  0.00     0.073 A
HETATM   14  C2  UNL     1      24.594  39.035  12.675  1.00  0.00     0.073 A
HETATM   15  C20 UNL     1      23.779  38.191  11.981  1.00  0.00     0.073 A
BRANCH  12  16
HETATM   16  O2  UNL     1      22.169  40.607  14.912  1.00  0.00    -0.361 OA
ATOM     17  H2  UNL     1      22.572  40.561  15.771  1.00  0.00     0.217 HD
ENDBRANCH  12  16
BRANCH  14  18
HETATM   18  O1  UNL     1      25.949  39.121  12.447  1.00  0.00    -0.356 OA
HETATM   19  C1  UNL     1      26.841  38.050  12.351  1.00  0.00     0.210 C
ENDBRANCH  14  18
ENDBRANCH   9  10
ENDBRANCH   8   9
ENDBRANCH   7   8
BRANCH   7  20
HETATM   20  C9  UNL     1      19.150  36.476  11.105  1.00  0.00     0.175 C
BRANCH  20  21
HETATM   21  O4  UNL     1      18.919  37.661  11.856  1.00  0.00    -0.400 OA
ATOM     22  H4  UNL     1      18.555  38.322  11.279  1.00  0.00     0.209 HD
ENDBRANCH  20  21
ENDBRANCH   7  20
ENDBRANCH   1   7
BRANCH   2  23
HETATM   23  O5  UNL     1      19.526  37.964   7.383  1.00  0.00    -0.357 OA
ATOM     24  H5  UNL     1      18.805  38.410   6.954  1.00  0.00     0.217 HD
ENDBRANCH   2  23
BRANCH   6  25
HETATM   25  C18 UNL     1      19.940  33.919  10.007  1.00  0.00     0.215 C
BRANCH  25  26
HETATM   26  O9  UNL     1      20.653  32.692   9.536  1.00  0.00    -0.384 OA
ATOM     27  H9  UNL     1      20.149  32.030   9.994  1.00  0.00     0.211 HD
ENDBRANCH  25  26
BRANCH  25  28
HETATM   28  C19 UNL     1      18.854  33.327  10.768  1.00  0.00     0.267 C
HETATM   29  O10 UNL     1      17.944  34.026  11.204  1.00  0.00    -0.304 OA
ENDBRANCH  25  28
ENDBRANCH   6  25
BRANCH   3  30
HETATM   30  O6  UNL     1      19.205  36.533   5.051  1.00  0.00    -0.351 OA
HETATM   31  C13 UNL     1      17.876  36.780   4.638  1.00  0.00     0.210 C
ENDBRANCH   3  30
BRANCH   5  32
HETATM   32  O8  UNL     1      19.471  32.466   7.430  1.00  0.00    -0.352 OA
HETATM   33  C16 UNL     1      18.233  31.786   7.786  1.00  0.00     0.210 C
ENDBRANCH   5  32
BRANCH   4  34
HETATM   34  O7  UNL     1      19.191  33.818   5.190  1.00  0.00    -0.356 OA
ATOM     35  H7  UNL     1      19.497  32.919   5.153  1.00  0.00     0.218 HD
ENDBRANCH   4  34
TORSDOF 15
ENDMDL