MODEL 3
REMARK VINA RESULT: -8.439303203      1.603      8.541
REMARK  14 active torsions:
REMARK  status: ('A' for Active; 'I' for Inactive)
REMARK    1  A    between atoms: O1_2  and  C2_3
REMARK    2  A    between atoms: C2_3  and  C3_5
REMARK    3  A    between atoms: C6_8  and  C7_9
REMARK    4  A    between atoms: C7_9  and  C8_11
REMARK    5  A    between atoms: C8_11  and  C19_30
REMARK    6  A    between atoms: N1_12  and  N2_14
REMARK    7  A    between atoms: N2_14  and  C9_16
REMARK    8  A    between atoms: C9_16  and  O4_17
REMARK    9  A    between atoms: C9_16  and  C10_19
REMARK   10  A    between atoms: C10_19  and  C11_20
REMARK   11  A    between atoms: C11_20  and  C12_22
REMARK   12  A    between atoms: C15_25  and  O6_26
REMARK   13  A    between atoms: C19_30  and  O7_31
REMARK   14  A    between atoms: C19_30  and  O8_33
ROOT
HETATM    1  C8  UNL     1      21.662  37.672  12.837  1.00  0.00     0.133 C
HETATM    2  N1  UNL     1      21.610  37.077  11.700  1.00  0.00    -0.298 N
ATOM      3  H1  UNL     1      22.261  37.407  10.988  1.00  0.00     0.186 HD
ENDROOT
BRANCH   2   4
HETATM    4  N2  UNL     1      20.783  36.054  11.336  1.00  0.00    -0.307 N
ATOM      5  H2  UNL     1      20.966  35.121  11.708  1.00  0.00     0.183 HD
BRANCH   4   6
HETATM    6  C9  UNL     1      19.658  36.237  10.442  1.00  0.00     0.240 C
BRANCH   6   7
HETATM    7  O4  UNL     1      18.843  37.289  10.868  1.00  0.00    -0.375 OA
ATOM      8  H4  UNL     1      18.076  36.965  11.325  1.00  0.00     0.212 HD
ENDBRANCH   6   7
BRANCH   6   9
HETATM    9  C10 UNL     1      18.790  35.013  10.362  1.00  0.00     0.138 C
BRANCH   9  10
HETATM   10  C11 UNL     1      19.243  34.198   9.189  1.00  0.00     0.163 C
HETATM   11  O5  UNL     1      19.827  33.108   9.367  1.00  0.00    -0.292 OA
BRANCH  10  12
HETATM   12  C12 UNL     1      19.018  34.652   7.820  1.00  0.00     0.010 A
HETATM   13  C13 UNL     1      19.699  34.077   6.780  1.00  0.00     0.018 A
HETATM   14  C14 UNL     1      19.466  34.528   5.487  1.00  0.00     0.037 A
HETATM   15  C15 UNL     1      18.551  35.547   5.283  1.00  0.00     0.068 A
HETATM   16  C17 UNL     1      17.878  36.113   6.330  1.00  0.00     0.037 A
HETATM   17  C18 UNL     1      18.113  35.662   7.607  1.00  0.00     0.018 A
BRANCH  15  18
HETATM   18  O6  UNL     1      18.353  35.965   3.965  1.00  0.00    -0.356 OA
HETATM   19  C16 UNL     1      18.263  35.000   2.949  1.00  0.00     0.210 C
ENDBRANCH  15  18
ENDBRANCH  10  12
ENDBRANCH   9  10
ENDBRANCH   6   9
ENDBRANCH   4   6
ENDBRANCH   2   4
BRANCH   1  20
HETATM   20  C7  UNL     1      22.619  38.752  13.038  1.00  0.00     0.234 C
HETATM   21  O3  UNL     1      22.224  39.825  13.566  1.00  0.00    -0.283 OA
BRANCH  20  22
HETATM   22  C6  UNL     1      24.032  38.649  12.654  1.00  0.00     0.128 A
HETATM   23  C5  UNL     1      24.905  39.721  12.480  1.00  0.00     0.044 A
HETATM   24  C4  UNL     1      26.114  39.186  12.124  1.00  0.00     0.046 A
HETATM   25  C3  UNL     1      25.967  37.813  12.085  1.00  0.00     0.151 A
HETATM   26  O9  UNL     1      24.728  37.576  12.405  1.00  0.00    -0.300 OA
BRANCH  25  27
HETATM   27  C2  UNL     1      27.019  36.831  11.746  1.00  0.00     0.317 C
HETATM   28  O2  UNL     1      27.429  36.778  10.559  1.00  0.00    -0.257 OA
BRANCH  27  29
HETATM   29  O1  UNL     1      27.557  35.986  12.673  1.00  0.00    -0.321 OA
HETATM   30  C1  UNL     1      28.581  36.409  13.562  1.00  0.00     0.213 C
ENDBRANCH  27  29
ENDBRANCH  25  27
ENDBRANCH  20  22
ENDBRANCH   1  20
BRANCH   1  31
HETATM   31  C19 UNL     1      20.731  37.253  13.908  1.00  0.00     0.310 C
BRANCH  31  32
HETATM   32  O7  UNL     1      21.088  37.872  15.108  1.00  0.00    -0.366 OA
ATOM     33  H7  UNL     1      20.352  38.377  15.438  1.00  0.00     0.213 HD
ENDBRANCH  31  32
BRANCH  31  34
HETATM   34  O8  UNL     1      19.404  37.573  13.671  1.00  0.00    -0.366 OA
ATOM     35  H8  UNL     1      19.192  38.490  13.801  1.00  0.00     0.213 HD
ENDBRANCH  31  34
ENDBRANCH   1  31
TORSDOF 14
ENDMDL