MODEL 1
REMARK VINA RESULT: -5.135191063      0.000      0.000
REMARK  13 active torsions:
REMARK  status: ('A' for Active; 'I' for Inactive)
REMARK    1  A    between atoms: O1_2  and  C2_3
REMARK    2  A    between atoms: C2_3  and  C3_5
REMARK    3  A    between atoms: C3_5  and  C4_6
REMARK    4  A    between atoms: C4_6  and  N1_7
REMARK    5  A    between atoms: C4_6  and  C17_31
REMARK    6  A    between atoms: N1_7  and  C5_9
REMARK    7  A    between atoms: C6_10  and  C7_11
REMARK    8  A    between atoms: C7_11  and  O3_12
REMARK    9  A    between atoms: C7_11  and  O4_14
REMARK   10  A    between atoms: C9_17  and  C10_18
REMARK   11  A    between atoms: C10_18  and  O6_19
REMARK   12  A    between atoms: C10_18  and  N2_21
REMARK   13  A    between atoms: N2_21  and  C11_23
ROOT
HETATM    1  C5  UNL     1      18.962  35.301   8.331  1.00  0.00     0.114 A
HETATM    2  C6  UNL     1      19.049  34.416   9.370  1.00  0.00     0.138 A
HETATM    3  O5  UNL     1      19.521  34.909  10.523  1.00  0.00    -0.307 OA
HETATM    4  C9  UNL     1      19.881  36.136  10.682  1.00  0.00     0.105 A
HETATM    5  C15 UNL     1      19.811  37.068   9.665  1.00  0.00     0.094 A
HETATM    6  C16 UNL     1      19.338  36.644   8.449  1.00  0.00     0.203 A
HETATM    7  O7  UNL     1      19.250  37.445   7.485  1.00  0.00    -0.286 OA
ENDROOT
BRANCH   1   8
HETATM    8  N1  UNL     1      18.539  34.858   7.071  1.00  0.00    -0.370 N
ATOM      9  H1  UNL     1      17.536  34.761   6.916  1.00  0.00     0.160 HD
BRANCH   8  10
HETATM   10  C4  UNL     1      19.431  34.524   5.964  1.00  0.00     0.192 C
BRANCH  10  11
HETATM   11  C3  UNL     1      19.358  35.468   4.824  1.00  0.00     0.147 C
BRANCH  11  12
HETATM   12  C2  UNL     1      18.174  35.210   3.969  1.00  0.00     0.260 C
HETATM   13  O2  UNL     1      18.005  34.118   3.369  1.00  0.00    -0.265 OA
BRANCH  12  14
HETATM   14  O1  UNL     1      17.195  36.183   3.804  1.00  0.00    -0.326 OA
HETATM   15  C1  UNL     1      16.779  37.068   4.806  1.00  0.00     0.213 C
ENDBRANCH  12  14
ENDBRANCH  11  12
ENDBRANCH  10  11
BRANCH  10  16
HETATM   16  C17 UNL     1      20.814  34.395   6.442  1.00  0.00     0.197 C
HETATM   17  O8  UNL     1      21.202  33.292   6.891  1.00  0.00    -0.646 OA
HETATM   18  O9  UNL     1      21.683  35.449   6.402  1.00  0.00    -0.646 OA
ENDBRANCH  10  16
ENDBRANCH   8  10
ENDBRANCH   1   8
BRANCH   2  19
HETATM   19  C7  UNL     1      18.680  32.999   9.374  1.00  0.00     0.317 C
BRANCH  19  20
HETATM   20  O3  UNL     1      17.283  32.953   8.939  1.00  0.00    -0.365 OA
ATOM     21  H3  UNL     1      16.929  32.146   9.296  1.00  0.00     0.213 HD
ENDBRANCH  19  20
BRANCH  19  22
HETATM   22  O4  UNL     1      19.368  32.168   8.533  1.00  0.00    -0.360 OA
HETATM   23  C8  UNL     1      18.442  31.419   7.809  1.00  0.00     0.205 C
ENDBRANCH  19  22
ENDBRANCH   2  19
BRANCH   4  24
HETATM   24  C10 UNL     1      20.400  36.607  12.003  1.00  0.00     0.276 C
BRANCH  24  25
HETATM   25  O6  UNL     1      19.547  36.215  13.031  1.00  0.00    -0.371 OA
ATOM     26  H6  UNL     1      20.007  36.205  13.861  1.00  0.00     0.212 HD
ENDBRANCH  24  25
BRANCH  24  27
HETATM   27  N2  UNL     1      20.682  37.997  11.948  1.00  0.00    -0.358 N
ATOM     28  H2  UNL     1      19.991  38.633  11.552  1.00  0.00     0.162 HD
BRANCH  27  29
HETATM   29  C11 UNL     1      21.937  38.530  12.445  1.00  0.00     0.037 A
HETATM   30  C12 UNL     1      22.006  39.330  13.517  1.00  0.00     0.037 A
HETATM   31  C13 UNL     1      23.241  39.781  13.901  1.00  0.00     0.052 A
HETATM   32  S1  UNL     1      24.281  39.072  12.754  1.00  0.00    -0.111 SA
HETATM   33  C14 UNL     1      23.134  38.229  11.822  1.00  0.00     0.078 A
ENDBRANCH  27  29
ENDBRANCH  24  27
ENDBRANCH   4  24
TORSDOF 13
ENDMDL