MODEL 4
REMARK VINA RESULT: -3.980994172      1.701      2.047
REMARK  14 active torsions:
REMARK  status: ('A' for Active; 'I' for Inactive)
REMARK    1  A    between atoms: O1_2  and  C2_3
REMARK    2  A    between atoms: C2_3  and  C4_5
REMARK    3  A    between atoms: C5_6  and  O2_7
REMARK    4  A    between atoms: C6_9  and  O3_10
REMARK    5  A    between atoms: O3_10  and  C7_11
REMARK    6  A    between atoms: C7_11  and  C8_12
REMARK    7  A    between atoms: C8_12  and  O4_13
REMARK    8  A    between atoms: C8_12  and  C9_15
REMARK    9  A    between atoms: C9_15  and  C10_16
REMARK   10  A    between atoms: C9_15  and  C11_24
REMARK   11  A    between atoms: C11_24  and  O5_26
REMARK   12  A    between atoms: C15_30  and  O6_31
REMARK   13  A    between atoms: C16_33  and  N5_34
REMARK   14  A    between atoms: N5_34  and  O7_36
ROOT
HETATM    1  C4  UNL     1      19.888  34.796   8.017  1.00  0.00     0.038 A
HETATM    2  C5  UNL     1      19.949  36.065   8.672  1.00  0.00     0.111 A
HETATM    3  C6  UNL     1      19.442  36.262   9.940  1.00  0.00     0.111 A
HETATM    4  C13 UNL     1      18.845  35.202  10.638  1.00  0.00     0.010 A
HETATM    5  C14 UNL     1      18.323  35.441  12.018  1.00  0.00     0.054 C
HETATM    6  C15 UNL     1      18.787  34.000  10.021  1.00  0.00     0.103 A
HETATM    7  C16 UNL     1      19.303  33.780   8.710  1.00  0.00     0.102 A
ENDROOT
BRANCH   3   8
HETATM    8  O3  UNL     1      19.485  37.464  10.579  1.00  0.00    -0.345 OA
BRANCH   8   9
HETATM    9  C7  UNL     1      20.451  38.197  11.177  1.00  0.00     0.208 C
BRANCH   9  10
HETATM   10  C8  UNL     1      21.715  37.655  11.692  1.00  0.00     0.156 C
BRANCH  10  11
HETATM   11  O4  UNL     1      22.774  38.527  11.286  1.00  0.00    -0.393 OA
ATOM     12  H4  UNL     1      22.431  39.127  10.634  1.00  0.00     0.210 HD
ENDBRANCH  10  11
BRANCH  10  13
HETATM   13  C9  UNL     1      21.849  37.569  13.197  1.00  0.00     0.115 C
BRANCH  13  14
HETATM   14  C10 UNL     1      22.234  38.952  13.660  1.00  0.00     0.119 A
HETATM   15  N1  UNL     1      23.250  39.309  14.463  1.00  0.00    -0.270 N
HETATM   16  N2  UNL     1      23.238  40.643  14.605  1.00  0.00    -0.005 NA
ATOM     17  H1  UNL     1      23.920  38.673  14.894  1.00  0.00     0.185 HD
HETATM   18  N3  UNL     1      22.232  41.137  13.905  1.00  0.00    -0.225 N
HETATM   19  N4  UNL     1      21.633  40.134  13.344  1.00  0.00    -0.275 N
ATOM     20  H3  UNL     1      21.975  42.121  13.822  1.00  0.00     0.205 HD
ATOM     21  H4  UNL     1      20.814  40.219  12.741  1.00  0.00     0.189 HD
ENDBRANCH  13  14
BRANCH  13  22
HETATM   22  C11 UNL     1      20.630  37.092  13.905  1.00  0.00     0.128 C
HETATM   23  C12 UNL     1      19.325  37.615  13.435  1.00  0.00     0.040 C
BRANCH  22  24
HETATM   24  O5  UNL     1      20.771  37.491  15.255  1.00  0.00    -0.395 OA
ATOM     25  H5  UNL     1      20.997  36.708  15.744  1.00  0.00     0.210 HD
ENDBRANCH  22  24
ENDBRANCH  13  22
ENDBRANCH  10  13
ENDBRANCH   9  10
ENDBRANCH   8   9
ENDBRANCH   3   8
BRANCH   2  26
HETATM   26  O2  UNL     1      20.539  37.082   7.997  1.00  0.00    -0.357 OA
ATOM     27  H2  UNL     1      21.350  37.425   8.354  1.00  0.00     0.217 HD
ENDBRANCH   2  26
BRANCH   1  28
HETATM   28  C2  UNL     1      20.335  34.716   6.620  1.00  0.00     0.155 C
HETATM   29  C3  UNL     1      19.491  35.434   5.581  1.00  0.00     0.045 C
BRANCH  28  30
HETATM   30  O1  UNL     1      21.620  35.347   6.516  1.00  0.00    -0.386 OA
HETATM   31  C1  UNL     1      21.969  35.499   5.215  1.00  0.00     0.202 C
ENDBRANCH  28  30
ENDBRANCH   1  28
BRANCH   6  32
HETATM   32  O6  UNL     1      18.203  32.944  10.700  1.00  0.00    -0.358 OA
ATOM     33  H6  UNL     1      17.257  32.929  10.779  1.00  0.00     0.217 HD
ENDBRANCH   6  32
BRANCH   7  34
HETATM   34  N5  UNL     1      19.139  32.443   8.230  1.00  0.00    -0.260 N
HETATM   35  C17 UNL     1      17.900  31.898   7.710  1.00  0.00     0.186 C
BRANCH  34  36
HETATM   36  O7  UNL     1      20.201  31.624   8.269  1.00  0.00    -0.283 OA
HETATM   37  C18 UNL     1      21.239  32.067   9.030  1.00  0.00     0.237 C
ENDBRANCH  34  36
ENDBRANCH   7  34
TORSDOF 14
ENDMDL