MODEL 4
REMARK VINA RESULT: -7.043082475      2.729      8.174
REMARK  15 active torsions:
REMARK  status: ('A' for Active; 'I' for Inactive)
REMARK       I    between atoms: C2_2  and  N1_4
REMARK    1  A    between atoms: N1_4  and  O2_5
REMARK    2  A    between atoms: N1_4  and  C9_13
REMARK    3  A    between atoms: O2_5  and  C3_6
REMARK    4  A    between atoms: C3_6  and  C5_8
REMARK    5  A    between atoms: N2_15  and  N3_17
REMARK    6  A    between atoms: C11_19  and  N4_20
REMARK    7  A    between atoms: C11_19  and  C14_30
REMARK    8  A    between atoms: N4_20  and  C12_22
REMARK    9  A    between atoms: C12_22  and  C13_23
REMARK   10  A    between atoms: C13_23  and  O4_24
REMARK   11  A    between atoms: N5_26  and  O5_28
REMARK   12  A    between atoms: C14_30  and  N6_31
REMARK   13  A    between atoms: C14_30  and  C16_35
REMARK   14  A    between atoms: C16_35  and  O6_36
REMARK   15  A    between atoms: C16_35  and  O7_38
ROOT
HETATM    1  N6  UNL     1      22.717  38.548  14.358  1.00  0.00    -0.312 N
ATOM      2  H6  UNL     1      23.257  37.835  14.847  1.00  0.00     0.172 HD
HETATM    3  C15 UNL     1      22.804  39.871  14.804  1.00  0.00     0.178 C
HETATM    4  N7  UNL     1      22.896  40.965  15.179  1.00  0.00    -0.172 NA
ENDROOT
BRANCH   1   5
HETATM    5  C14 UNL     1      21.905  38.148  13.248  1.00  0.00     0.215 C
BRANCH   5   6
HETATM    6  C11 UNL     1      22.567  38.115  11.945  1.00  0.00     0.121 C
HETATM    7  N3  UNL     1      22.189  37.274  11.047  1.00  0.00    -0.286 N
ATOM      8  H3  UNL     1      22.696  37.319  10.163  1.00  0.00     0.188 HD
BRANCH   7   9
HETATM    9  N2  UNL     1      21.205  36.330  11.110  1.00  0.00    -0.286 N
HETATM   10  C9  UNL     1      20.234  36.239  10.233  1.00  0.00     0.123 C
HETATM   11  C10 UNL     1      20.279  37.279   9.147  1.00  0.00     0.093 C
ATOM     12  H2  UNL     1      21.225  35.662  11.879  1.00  0.00     0.188 HD
BRANCH  10  13
HETATM   13  N1  UNL     1      19.228  35.270  10.303  1.00  0.00    -0.175 N
HETATM   14  C2  UNL     1      18.578  34.997  11.530  1.00  0.00     0.245 C
HETATM   15  C1  UNL     1      18.812  35.658  12.813  1.00  0.00     0.120 C
HETATM   16  O1  UNL     1      17.687  34.071  11.511  1.00  0.00    -0.271 OA
BRANCH  13  17
HETATM   17  O2  UNL     1      18.814  34.538   9.265  1.00  0.00    -0.259 OA
BRANCH  17  18
HETATM   18  C3  UNL     1      19.637  34.398   8.192  1.00  0.00     0.184 C
HETATM   19  C4  UNL     1      19.980  32.910   7.956  1.00  0.00     0.047 C
BRANCH  18  20
HETATM   20  C5  UNL     1      19.131  34.905   6.927  1.00  0.00    -0.003 A
HETATM   21  C6  UNL     1      19.536  34.585   5.648  1.00  0.00     0.036 A
HETATM   22  C7  UNL     1      18.768  35.289   4.764  1.00  0.00     0.142 A
HETATM   23  O3  UNL     1      17.931  36.007   5.461  1.00  0.00    -0.334 OA
HETATM   24  C8  UNL     1      18.111  35.810   6.750  1.00  0.00     0.151 A
ENDBRANCH  18  20
ENDBRANCH  17  18
ENDBRANCH  13  17
ENDBRANCH  10  13
ENDBRANCH   7   9
BRANCH   6  25
HETATM   25  N4  UNL     1      23.631  38.974  11.563  1.00  0.00    -0.369 N
ATOM     26  H4  UNL     1      23.492  39.511  10.708  1.00  0.00     0.161 HD
BRANCH  25  27
HETATM   27  C12 UNL     1      24.874  39.172  12.237  1.00  0.00     0.206 C
BRANCH  27  28
HETATM   28  C13 UNL     1      25.671  37.977  12.498  1.00  0.00     0.153 C
HETATM   29  N5  UNL     1      26.190  37.299  11.540  1.00  0.00    -0.250 N
ATOM     30  H5  UNL     1      26.040  37.605  10.579  1.00  0.00     0.196 HD
BRANCH  28  31
HETATM   31  O4  UNL     1      25.880  37.554  13.793  1.00  0.00    -0.347 OA
ATOM     32  H4  UNL     1      26.329  38.118  14.413  1.00  0.00     0.219 HD
ENDBRANCH  28  31
BRANCH  29  33
HETATM   33  O5  UNL     1      26.934  36.187  11.770  1.00  0.00    -0.288 OA
ATOM     34  H5  UNL     1      26.535  35.355  12.001  1.00  0.00     0.244 HD
ENDBRANCH  29  33
ENDBRANCH  27  28
ENDBRANCH  25  27
ENDBRANCH   6  25
ENDBRANCH   5   6
BRANCH   5  35
HETATM   35  C16 UNL     1      20.621  38.949  13.233  1.00  0.00     0.284 C
BRANCH  35  36
HETATM   36  O6  UNL     1      20.688  39.911  12.231  1.00  0.00    -0.369 OA
ATOM     37  H6  UNL     1      20.393  39.534  11.410  1.00  0.00     0.212 HD
ENDBRANCH  35  36
BRANCH  35  38
HETATM   38  O7  UNL     1      19.509  38.164  12.982  1.00  0.00    -0.369 OA
ATOM     39  H7  UNL     1      19.341  38.055  12.053  1.00  0.00     0.212 HD
ENDBRANCH  35  38
ENDBRANCH   5  35
ENDBRANCH   1   5
TORSDOF 15
ENDMDL