MODEL 3
REMARK VINA RESULT: -7.608606863      2.126      2.693
REMARK  13 active torsions:
REMARK  status: ('A' for Active; 'I' for Inactive)
REMARK    1  A    between atoms: C2_2  and  C4_4
REMARK    2  A    between atoms: C4_4  and  N1_5
REMARK    3  A    between atoms: C4_4  and  C12_22
REMARK    4  A    between atoms: N1_5  and  C5_7
REMARK    5  A    between atoms: C6_8  and  N2_9
REMARK    6  A    between atoms: N2_9  and  C7_11
REMARK    7  A    between atoms: C7_11  and  C8_12
REMARK    8  A    between atoms: C8_12  and  O1_13
REMARK    9  A    between atoms: O1_13  and  S1_14
REMARK   10  A    between atoms: C14_24  and  C15_25
REMARK   11  A    between atoms: C15_25  and  O6_26
REMARK   12  A    between atoms: C15_25  and  O7_28
REMARK   13  A    between atoms: C16_31  and  O9_32
ROOT
HETATM    1  N1  UNL     1      19.870  36.135   9.591  1.00  0.00    -0.376 N
ATOM      2  H1  UNL     1      20.708  36.376   9.063  1.00  0.00     0.160 HD
ENDROOT
BRANCH   1   3
HETATM    3  C4  UNL     1      18.896  35.316   8.877  1.00  0.00     0.123 C
BRANCH   3   4
HETATM    4  C2  UNL     1      19.328  33.915   8.978  1.00  0.00     0.005 C
HETATM    5  C1  UNL     1      19.777  33.110   7.843  1.00  0.00     0.012 C
HETATM    6  C3  UNL     1      18.243  33.087   9.714  1.00  0.00     0.012 C
ENDBRANCH   3   4
BRANCH   3   7
HETATM    7  C12 UNL     1      18.857  35.893   7.478  1.00  0.00     0.025 A
HETATM    8  C13 UNL     1      17.715  36.174   6.730  1.00  0.00     0.052 A
HETATM    9  C14 UNL     1      18.128  36.370   5.407  1.00  0.00     0.111 A
HETATM   10  O8  UNL     1      19.423  36.224   5.410  1.00  0.00    -0.287 OA
HETATM   11  C16 UNL     1      19.904  35.942   6.596  1.00  0.00     0.192 A
BRANCH   9  12
HETATM   12  C15 UNL     1      17.324  36.668   4.217  1.00  0.00     0.312 C
BRANCH  12  13
HETATM   13  O6  UNL     1      15.953  36.842   4.489  1.00  0.00    -0.365 OA
ATOM     14  H6  UNL     1      15.405  36.143   4.152  1.00  0.00     0.213 HD
ENDBRANCH  12  13
BRANCH  12  15
HETATM   15  O7  UNL     1      17.471  35.665   3.258  1.00  0.00    -0.365 OA
ATOM     16  H7  UNL     1      18.387  35.440   3.146  1.00  0.00     0.213 HD
ENDBRANCH  12  15
ENDBRANCH   9  12
BRANCH  11  17
HETATM   17  O9  UNL     1      21.271  35.745   6.803  1.00  0.00    -0.340 OA
ATOM     18  H9  UNL     1      21.997  35.784   6.193  1.00  0.00     0.220 HD
ENDBRANCH  11  17
ENDBRANCH   3   7
ENDBRANCH   1   3
BRANCH   1  19
HETATM   19  C5  UNL     1      19.820  36.630  10.879  1.00  0.00     0.114 A
HETATM   20  C6  UNL     1      20.295  37.583  11.723  1.00  0.00     0.114 A
HETATM   21  C10 UNL     1      19.469  37.181  12.740  1.00  0.00     0.252 A
HETATM   22  O4  UNL     1      19.274  37.578  13.938  1.00  0.00    -0.281 OA
HETATM   23  C11 UNL     1      18.966  36.233  11.961  1.00  0.00     0.252 A
HETATM   24  O5  UNL     1      18.106  35.309  12.036  1.00  0.00    -0.281 OA
BRANCH  20  25
HETATM   25  N2  UNL     1      21.303  38.623  11.714  1.00  0.00    -0.383 N
ATOM     26  H2  UNL     1      21.057  39.604  11.848  1.00  0.00     0.160 HD
BRANCH  25  27
HETATM   27  C7  UNL     1      22.686  38.204  11.504  1.00  0.00     0.147 C
BRANCH  27  28
HETATM   28  C8  UNL     1      23.517  38.404  12.750  1.00  0.00     0.209 C
BRANCH  28  29
HETATM   29  O1  UNL     1      23.671  39.735  13.092  1.00  0.00    -0.274 OA
BRANCH  29  30
HETATM   30  S1  UNL     1      22.659  40.150  14.373  1.00  0.00     0.261 S
HETATM   31  C9  UNL     1      21.977  38.720  15.167  1.00  0.00     0.194 C
HETATM   32  O2  UNL     1      21.549  41.066  13.915  1.00  0.00    -0.199 OA
HETATM   33  O3  UNL     1      23.452  40.901  15.419  1.00  0.00    -0.199 OA
ENDBRANCH  29  30
ENDBRANCH  28  29
ENDBRANCH  27  28
ENDBRANCH  25  27
ENDBRANCH  20  25
ENDBRANCH   1  19
TORSDOF 13
ENDMDL