MODEL 2
REMARK VINA RESULT: 1.735072634      1.755      2.388
REMARK  13 active torsions:
REMARK  status: ('A' for Active; 'I' for Inactive)
REMARK    1  A    between atoms: O1_2  and  C2_3
REMARK    2  A    between atoms: C6_8  and  O2_9
REMARK    3  A    between atoms: C9_12  and  N2_13
REMARK    4  A    between atoms: N2_13  and  C10_15
REMARK    5  A    between atoms: C10_15  and  C11_16
REMARK    6  A    between atoms: C10_15  and  C12_19
REMARK    7  A    between atoms: C11_16  and  O3_17
REMARK    8  A    between atoms: C12_19  and  O4_20
REMARK    9  A    between atoms: C13_22  and  N3_23
REMARK   10  A    between atoms: N3_23  and  C14_25
REMARK   11  A    between atoms: C14_25  and  O5_26
REMARK   12  A    between atoms: C14_25  and  C15_28
REMARK   13  A    between atoms: C15_28  and  O6_30
ROOT
HETATM    1  C2  UNL     1      22.222  38.390  11.666  1.00  0.00     0.104 A
HETATM    2  C3  UNL     1      22.093  38.405  13.029  1.00  0.00     0.065 A
HETATM    3  C4  UNL     1      21.127  37.624  13.630  1.00  0.00     0.081 A
HETATM    4  C5  UNL     1      20.956  37.638  15.041  1.00  0.00     0.102 C
HETATM    5  N1  UNL     1      20.822  37.676  16.198  1.00  0.00    -0.191 NA
HETATM    6  C6  UNL     1      20.282  36.819  12.875  1.00  0.00     0.104 A
HETATM    7  C8  UNL     1      20.396  36.801  11.520  1.00  0.00     0.065 A
HETATM    8  C9  UNL     1      19.584  36.056  10.650  1.00  0.00     0.077 A
HETATM    9  C13 UNL     1      19.775  36.114   9.283  1.00  0.00     0.134 A
HETATM   10  C18 UNL     1      20.803  36.941   8.802  1.00  0.00     0.317 A
HETATM   11  O7  UNL     1      20.947  36.959   7.541  1.00  0.00    -0.257 OA
HETATM   12  O8  UNL     1      21.532  37.621   9.607  1.00  0.00    -0.270 OA
HETATM   13  C19 UNL     1      21.382  37.597  10.902  1.00  0.00     0.128 A
ENDROOT
BRANCH   6  14
HETATM   14  O2  UNL     1      19.345  36.045  13.541  1.00  0.00    -0.353 OA
HETATM   15  C7  UNL     1      18.121  36.650  13.973  1.00  0.00     0.210 C
ENDBRANCH   6  14
BRANCH   1  16
HETATM   16  O1  UNL     1      23.174  39.151  11.015  1.00  0.00    -0.353 OA
HETATM   17  C1  UNL     1      24.412  39.391  11.663  1.00  0.00     0.210 C
ENDBRANCH   1  16
BRANCH   8  18
HETATM   18  N2  UNL     1      18.494  35.337  11.154  1.00  0.00    -0.378 N
ATOM     19  H2  UNL     1      17.735  35.912  11.518  1.00  0.00     0.160 HD
BRANCH  18  20
HETATM   20  C10 UNL     1      18.271  33.923  11.243  1.00  0.00     0.129 C
BRANCH  20  21
HETATM   21  C11 UNL     1      19.513  33.070  11.070  1.00  0.00     0.191 C
BRANCH  21  22
HETATM   22  O3  UNL     1      20.031  32.927   9.845  1.00  0.00    -0.399 OA
ATOM     23  H3  UNL     1      20.974  32.961   9.740  1.00  0.00     0.209 HD
ENDBRANCH  21  22
ENDBRANCH  20  21
BRANCH  20  24
HETATM   24  C12 UNL     1      17.118  33.392  10.440  1.00  0.00     0.191 C
BRANCH  24  25
HETATM   25  O4  UNL     1      17.544  33.011   9.150  1.00  0.00    -0.399 OA
ATOM     26  H4  UNL     1      17.513  33.751   8.556  1.00  0.00     0.209 HD
ENDBRANCH  24  25
ENDBRANCH  20  24
ENDBRANCH  18  20
ENDBRANCH   8  18
BRANCH   9  27
HETATM   27  N3  UNL     1      18.981  35.460   8.297  1.00  0.00    -0.355 N
ATOM     28  H3  UNL     1      18.911  34.443   8.273  1.00  0.00     0.162 HD
BRANCH  27  29
HETATM   29  C14 UNL     1      18.283  36.271   7.336  1.00  0.00     0.247 C
BRANCH  29  30
HETATM   30  O5  UNL     1      16.905  36.220   7.483  1.00  0.00    -0.374 OA
ATOM     31  H5  UNL     1      16.495  35.581   6.912  1.00  0.00     0.212 HD
ENDBRANCH  29  30
BRANCH  29  32
HETATM   32  C15 UNL     1      18.673  35.962   5.914  1.00  0.00     0.165 C
HETATM   33  C16 UNL     1      19.274  34.600   5.753  1.00  0.00     0.044 C
BRANCH  32  34
HETATM   34  O6  UNL     1      17.607  36.079   5.052  1.00  0.00    -0.387 OA
HETATM   35  C17 UNL     1      17.858  35.455   3.817  1.00  0.00     0.202 C
ENDBRANCH  32  34
ENDBRANCH  29  32
ENDBRANCH  27  29
ENDBRANCH   9  27
TORSDOF 13
ENDMDL