MODEL 3
REMARK VINA RESULT: -5.489672069      1.240      1.798
REMARK  15 active torsions:
REMARK  status: ('A' for Active; 'I' for Inactive)
REMARK    1  A    between atoms: O1_2  and  C2_3
REMARK    2  A    between atoms: C6_7  and  C7_8
REMARK    3  A    between atoms: C9_11  and  C10_12
REMARK    4  A    between atoms: C10_12  and  O2_13
REMARK    5  A    between atoms: O2_13  and  C11_14
REMARK    6  A    between atoms: C11_14  and  C12_16
REMARK    7  A    between atoms: C13_19  and  C14_20
REMARK    8  A    between atoms: C14_20  and  C15_21
REMARK    9  A    between atoms: C15_21  and  O6_22
REMARK   10  A    between atoms: C15_21  and  O7_24
REMARK   11  A    between atoms: O7_24  and  C16_25
REMARK   12  A    between atoms: C16_25  and  O8_26
REMARK   13  A    between atoms: C16_25  and  C17_28
REMARK   14  A    between atoms: C17_28  and  O9_29
REMARK   15  A    between atoms: C17_28  and  O10_31
ROOT
HETATM    1  C7  UNL     1      20.589  36.936  11.639  1.00  0.00     0.022 A
HETATM    2  S1  UNL     1      19.548  36.220  12.844  1.00  0.00    -0.100 SA
HETATM    3  C8  UNL     1      18.462  35.421  11.841  1.00  0.00     0.060 A
HETATM    4  C9  UNL     1      18.909  35.712  10.590  1.00  0.00    -0.020 A
HETATM    5  C13 UNL     1      20.032  36.508  10.482  1.00  0.00    -0.027 A
ENDROOT
BRANCH   5   6
HETATM    6  C14 UNL     1      20.633  36.848   9.123  1.00  0.00     0.101 C
BRANCH   6   7
HETATM    7  C15 UNL     1      20.086  36.039   7.997  1.00  0.00     0.264 C
BRANCH   7   8
HETATM    8  O6  UNL     1      21.285  35.496   7.377  1.00  0.00    -0.371 OA
ATOM      9  H6  UNL     1      20.942  34.805   6.823  1.00  0.00     0.212 HD
ENDBRANCH   7   8
BRANCH   7  10
HETATM   10  O7  UNL     1      19.521  36.777   6.976  1.00  0.00    -0.327 OA
BRANCH  10  11
HETATM   11  C16 UNL     1      18.719  36.089   6.110  1.00  0.00     0.315 C
BRANCH  11  12
HETATM   12  O8  UNL     1      19.458  35.084   5.427  1.00  0.00    -0.367 OA
ATOM     13  H8  UNL     1      18.927  34.308   5.291  1.00  0.00     0.212 HD
ENDBRANCH  11  12
BRANCH  11  14
HETATM   14  C17 UNL     1      17.909  36.897   5.160  1.00  0.00     0.309 C
BRANCH  14  15
HETATM   15  O9  UNL     1      16.680  37.189   5.701  1.00  0.00    -0.367 OA
ATOM     16  H9  UNL     1      16.780  37.601   6.551  1.00  0.00     0.212 HD
ENDBRANCH  14  15
BRANCH  14  17
HETATM   17  O10 UNL     1      17.681  36.078   4.027  1.00  0.00    -0.367 OA
ATOM     18  H10 UNL     1      18.238  36.413   3.335  1.00  0.00     0.212 HD
ENDBRANCH  14  17
ENDBRANCH  11  14
ENDBRANCH  10  11
ENDBRANCH   7  10
ENDBRANCH   6   7
ENDBRANCH   5   6
BRANCH   1  19
HETATM   19  C6  UNL     1      21.769  37.767  11.993  1.00  0.00    -0.016 A
HETATM   20  C5  UNL     1      23.040  37.591  11.618  1.00  0.00     0.013 A
HETATM   21  C4  UNL     1      24.040  38.449  12.095  1.00  0.00     0.004 A
HETATM   22  C3  UNL     1      23.744  39.474  12.944  1.00  0.00     0.037 A
HETATM   23  C2  UNL     1      22.447  39.691  13.353  1.00  0.00     0.069 A
HETATM   24  C18 UNL     1      21.506  38.841  12.873  1.00  0.00     0.049 A
BRANCH  23  25
HETATM   25  O1  UNL     1      22.134  40.738  14.221  1.00  0.00    -0.356 OA
HETATM   26  C1  UNL     1      22.870  40.872  15.427  1.00  0.00     0.210 C
ENDBRANCH  23  25
ENDBRANCH   1  19
BRANCH   4  27
HETATM   27  C10 UNL     1      18.194  35.144   9.363  1.00  0.00     0.219 C
BRANCH  27  28
HETATM   28  O2  UNL     1      18.230  33.780   9.314  1.00  0.00    -0.308 OA
BRANCH  28  29
HETATM   29  C11 UNL     1      19.403  33.063   9.191  1.00  0.00     0.360 C
HETATM   30  O3  UNL     1      20.238  33.014  10.128  1.00  0.00    -0.252 OA
BRANCH  29  31
HETATM   31  C12 UNL     1      19.713  32.326   7.949  1.00  0.00     0.277 C
HETATM   32  O4  UNL     1      19.109  31.237   7.750  1.00  0.00    -0.640 OA
HETATM   33  O5  UNL     1      20.637  32.834   7.048  1.00  0.00    -0.640 OA
ENDBRANCH  29  31
ENDBRANCH  28  29
ENDBRANCH  27  28
ENDBRANCH   4  27
TORSDOF 15
ENDMDL