MODEL 4
REMARK VINA RESULT: -4.381257058      4.721      5.376
REMARK  3 active torsions:
REMARK  status: ('A' for Active; 'I' for Inactive)
REMARK    1  A    between atoms: C1_4  and  O1_5
REMARK    2  A    between atoms: C1_4  and  C2_7
REMARK    3  A    between atoms: C2_7  and  C3_8
ROOT
HETATM    1  N1  UNL     1      42.761 -39.832  -3.253  1.00  0.00    -0.383 N
ATOM      2  H11 UNL     1      43.750 -39.584  -3.237  1.00  0.00     0.158 HD
ATOM      3  H12 UNL     1      42.434 -40.747  -3.561  1.00  0.00     0.158 HD
HETATM    4  C1  UNL     1      41.889 -38.967  -2.874  1.00  0.00     0.124 C
ENDROOT
BRANCH   4   5
HETATM    5  O1  UNL     1      40.557 -39.300  -2.895  1.00  0.00    -0.349 OA
ATOM      6  H1  UNL     1      39.913 -38.664  -2.606  1.00  0.00     0.219 HD
ENDBRANCH   4   5
BRANCH   4   7
HETATM    7  C2  UNL     1      42.365 -37.638  -2.426  1.00  0.00     0.077 A
HETATM    8  C4  UNL     1      42.324 -36.569  -3.488  1.00  0.00     0.027 A
HETATM    9  C5  UNL     1      43.624 -37.069  -2.965  1.00  0.00     0.027 A
BRANCH   7  10
HETATM   10  C3  UNL     1      42.030 -37.294  -1.032  1.00  0.00     0.249 C
HETATM   11  O2  UNL     1      41.174 -37.917  -0.391  1.00  0.00    -0.306 OA
ENDBRANCH   7  10
ENDBRANCH   4   7
TORSDOF 3
ENDMDL