MODEL 3
REMARK VINA RESULT: -3.795968804      2.015      2.187
REMARK  2 active torsions:
REMARK  status: ('A' for Active; 'I' for Inactive)
REMARK    1  A    between atoms: N1_2  and  C2_5
REMARK    2  A    between atoms: C2_5  and  C4_7
ROOT
HETATM    1  C2  UNL     1      41.861 -34.205  -4.098  1.00  0.00     0.281 C
HETATM    2  C3  UNL     1      41.991 -34.694  -5.553  1.00  0.00     0.052 C
ENDROOT
BRANCH   1   3
HETATM    3  N1  UNL     1      40.490 -34.521  -3.727  1.00  0.00    -0.065 N
HETATM    4  C1  UNL     1      40.350 -34.776  -2.316  1.00  0.00     0.267 C
ATOM      5  H12 UNL     1      40.129 -35.299  -4.279  1.00  0.00     0.277 HD
ATOM      6  H11 UNL     1      39.848 -33.791  -4.035  1.00  0.00     0.277 HD
ENDBRANCH   1   3
BRANCH   1   7
HETATM    7  C4  UNL     1      42.119 -32.758  -4.169  1.00  0.00     0.204 C
HETATM    8  O1  UNL     1      42.439 -32.073  -3.178  1.00  0.00    -0.646 OA
HETATM    9  O2  UNL     1      41.999 -32.117  -5.388  1.00  0.00    -0.646 OA
ENDBRANCH   1   7
TORSDOF 2
ENDMDL