MODEL 5
REMARK VINA RESULT: -4.559978497      3.209      3.756
REMARK  1 active torsions:
REMARK  status: ('A' for Active; 'I' for Inactive)
REMARK    1  A    between atoms: C1_2  and  C2_4
ROOT
HETATM    1  C2  UNL     1      41.640 -34.394  -3.469  1.00  0.00     0.087 C
HETATM    2  C3  UNL     1      41.215 -34.194  -4.934  1.00  0.00     0.015 C
HETATM    3  C4  UNL     1      42.562 -34.868  -5.251  1.00  0.00     0.002 C
HETATM    4  C5  UNL     1      42.287 -35.690  -3.988  1.00  0.00     0.015 C
ENDROOT
BRANCH   1   5
HETATM    5  C1  UNL     1      40.541 -34.606  -2.534  1.00  0.00     0.177 C
HETATM    6  O1  UNL     1      40.534 -34.060  -1.424  1.00  0.00    -0.648 OA
HETATM    7  O2  UNL     1      39.471 -35.427  -2.862  1.00  0.00    -0.648 OA
ENDBRANCH   1   5
TORSDOF 1
ENDMDL