MODEL 5
REMARK VINA RESULT: -4.158954824      3.588      4.797
REMARK  3 active torsions:
REMARK  status: ('A' for Active; 'I' for Inactive)
REMARK    1  A    between atoms: O1_1  and  C1_3
REMARK    2  A    between atoms: C3_5  and  N1_6
REMARK    3  A    between atoms: N1_6  and  C4_9
ROOT
HETATM    1  N1  UNL     1      43.070 -35.529  -3.556  1.00  0.00    -0.064 N
ATOM      2  H11 UNL     1      43.929 -34.978  -3.565  1.00  0.00     0.278 HD
ATOM      3  H12 UNL     1      42.568 -35.048  -2.809  1.00  0.00     0.278 HD
ENDROOT
BRANCH   1   4
HETATM    4  C3  UNL     1      43.341 -36.882  -3.191  1.00  0.00     0.217 A
HETATM    5  C1  UNL     1      43.141 -37.187  -1.720  1.00  0.00     0.150 A
HETATM    6  C2  UNL     1      42.343 -37.863  -2.766  1.00  0.00     0.069 A
BRANCH   5   7
HETATM    7  O1  UNL     1      44.252 -37.790  -1.131  1.00  0.00    -0.393 OA
ATOM      8  H1  UNL     1      44.724 -37.384  -0.413  1.00  0.00     0.210 HD
ENDBRANCH   5   7
ENDBRANCH   1   4
BRANCH   1   9
HETATM    9  C4  UNL     1      42.367 -35.398  -4.811  1.00  0.00     0.186 A
HETATM   10  C5  UNL     1      42.770 -34.168  -5.611  1.00  0.00     0.035 A
HETATM   11  C6  UNL     1      41.430 -34.217  -4.971  1.00  0.00     0.035 A
ENDBRANCH   1   9
TORSDOF 3
ENDMDL