MODEL 4
REMARK VINA RESULT: -4.463367743      2.169      2.930
REMARK  1 active torsions:
REMARK  status: ('A' for Active; 'I' for Inactive)
REMARK    1  A    between atoms: N1_2  and  N2_3
ROOT
HETATM    1  N2  UNL     1      42.386 -33.186  -4.253  1.00  0.00    -0.226 NA
HETATM    2  C2  UNL     1      41.222 -34.025  -4.545  1.00  0.00     0.112 A
HETATM    3  C3  UNL     1      41.957 -34.678  -5.691  1.00  0.00     0.042 A
HETATM    4  C4  UNL     1      43.044 -33.724  -5.405  1.00  0.00     0.030 A
HETATM    5  C5  UNL     1      43.746 -32.918  -6.398  1.00  0.00     0.029 A
HETATM    6  C6  UNL     1      44.461 -33.974  -5.519  1.00  0.00     0.029 A
ENDROOT
BRANCH   1   7
HETATM    7  N1  UNL     1      42.050 -31.854  -4.445  1.00  0.00    -0.169 NA
HETATM    8  C1  UNL     1      42.516 -31.036  -3.365  1.00  0.00     0.152 C
ENDBRANCH   1   7
TORSDOF 1
ENDMDL