MODEL 1
REMARK VINA RESULT: -4.151691610      0.000      0.000
REMARK  3 active torsions:
REMARK  status: ('A' for Active; 'I' for Inactive)
REMARK    1  A    between atoms: N1_2  and  N2_4
REMARK    2  A    between atoms: C2_6  and  N3_7
REMARK    3  A    between atoms: N3_7  and  C3_9
ROOT
HETATM    1  N2  UNL     1      42.577 -38.828  -2.862  1.00  0.00    -0.301 N
ATOM      2  H2  UNL     1      43.484 -38.413  -2.652  1.00  0.00     0.187 HD
HETATM    3  C2  UNL     1      41.506 -38.146  -2.688  1.00  0.00     0.192 C
ENDROOT
BRANCH   3   4
HETATM    4  N3  UNL     1      41.474 -36.809  -2.210  1.00  0.00    -0.381 N
ATOM      5  H3  UNL     1      42.272 -36.406  -1.718  1.00  0.00     0.160 HD
BRANCH   4   6
HETATM    6  C3  UNL     1      40.279 -36.041  -2.444  1.00  0.00     0.082 A
HETATM    7  C4  UNL     1      40.245 -34.735  -1.642  1.00  0.00     0.027 A
HETATM    8  C5  UNL     1      40.267 -34.766  -3.151  1.00  0.00     0.027 A
ENDBRANCH   4   6
ENDBRANCH   3   4
BRANCH   1   9
HETATM    9  N1  UNL     1      42.504 -40.133  -3.335  1.00  0.00    -0.340 N
HETATM   10  C1  UNL     1      41.352 -40.992  -3.093  1.00  0.00     0.167 C
ATOM     11  H1  UNL     1      43.288 -40.504  -3.872  1.00  0.00     0.179 HD
ENDBRANCH   1   9
TORSDOF 3
ENDMDL