MODEL 4
REMARK VINA RESULT: -4.411784169      0.564      1.701
REMARK  1 active torsions:
REMARK  status: ('A' for Active; 'I' for Inactive)
REMARK    1  A    between atoms: C2_2  and  C3_3
ROOT
HETATM    1  C1  UNL     1      41.999 -34.785  -5.630  1.00  0.00     0.027 C
HETATM    2  C2  UNL     1      41.803 -34.122  -4.298  1.00  0.00     0.045 A
HETATM    3  C4  UNL     1      41.907 -34.826  -3.014  1.00  0.00     0.021 A
HETATM    4  C5  UNL     1      40.553 -34.576  -3.570  1.00  0.00     0.021 A
ENDROOT
BRANCH   2   5
HETATM    5  C3  UNL     1      42.118 -32.663  -4.263  1.00  0.00     0.181 C
HETATM    6  O1  UNL     1      42.002 -32.043  -5.360  1.00  0.00    -0.647 OA
HETATM    7  O2  UNL     1      42.510 -32.025  -3.115  1.00  0.00    -0.647 OA
ENDBRANCH   2   5
TORSDOF 1
ENDMDL