MODEL 5
REMARK VINA RESULT: -3.953591569      1.574      2.025
REMARK  2 active torsions:
REMARK  status: ('A' for Active; 'I' for Inactive)
REMARK    1  A    between atoms: C1_2  and  C2_4
REMARK    2  A    between atoms: C4_6  and  O3_7
ROOT
HETATM    1  C2  UNL     1      41.636 -34.153  -4.450  1.00  0.00     0.118 A
HETATM    2  C3  UNL     1      42.004 -34.881  -5.682  1.00  0.00     0.050 A
HETATM    3  C4  UNL     1      42.680 -35.199  -4.379  1.00  0.00     0.133 A
ENDROOT
BRANCH   1   4
HETATM    4  C1  UNL     1      42.052 -32.736  -4.324  1.00  0.00     0.179 C
HETATM    5  O1  UNL     1      42.051 -31.951  -5.330  1.00  0.00    -0.648 OA
HETATM    6  O2  UNL     1      42.463 -32.196  -3.112  1.00  0.00    -0.648 OA
ENDBRANCH   1   4
BRANCH   3   7
HETATM    7  O3  UNL     1      42.400 -36.476  -3.893  1.00  0.00    -0.395 OA
ATOM      8  H3  UNL     1      42.297 -37.216  -4.478  1.00  0.00     0.210 HD
ENDBRANCH   3   7
TORSDOF 2
ENDMDL