MODEL 2
REMARK VINA RESULT: -4.689270328      1.654      1.669
REMARK  4 active torsions:
REMARK  status: ('A' for Active; 'I' for Inactive)
REMARK    1  A    between atoms: C1_4  and  O1_5
REMARK    2  A    between atoms: C1_4  and  C2_7
REMARK    3  A    between atoms: C2_7  and  O2_8
REMARK    4  A    between atoms: C2_7  and  C3_10
ROOT
HETATM    1  N1  UNL     1      44.708 -31.948  -3.302  1.00  0.00    -0.382 N
ATOM      2  H11 UNL     1      44.414 -32.634  -2.607  1.00  0.00     0.158 HD
ATOM      3  H12 UNL     1      45.533 -31.374  -3.126  1.00  0.00     0.158 HD
HETATM    4  C1  UNL     1      44.047 -31.805  -4.397  1.00  0.00     0.139 C
ENDROOT
BRANCH   4   5
HETATM    5  O1  UNL     1      44.445 -30.877  -5.336  1.00  0.00    -0.348 OA
ATOM      6  H1  UNL     1      43.853 -30.610  -6.030  1.00  0.00     0.219 HD
ENDBRANCH   4   5
BRANCH   4   7
HETATM    7  C2  UNL     1      42.872 -32.622  -4.648  1.00  0.00     0.196 C
BRANCH   7   8
HETATM    8  O2  UNL     1      42.007 -31.867  -5.470  1.00  0.00    -0.387 OA
ATOM      9  H2  UNL     1      42.432 -31.775  -6.314  1.00  0.00     0.210 HD
ENDBRANCH   7   8
BRANCH   7  10
HETATM   10  C3  UNL     1      43.152 -33.954  -5.268  1.00  0.00     0.022 A
HETATM   11  C4  UNL     1      43.157 -35.210  -4.536  1.00  0.00     0.008 A
HETATM   12  C5  UNL     1      41.955 -34.901  -5.409  1.00  0.00     0.008 A
ENDBRANCH   7  10
ENDBRANCH   4   7
TORSDOF 4
ENDMDL