MODEL 5
REMARK VINA RESULT: -6.185552385      1.827      2.325
REMARK  13 active torsions:
REMARK  status: ('A' for Active; 'I' for Inactive)
REMARK    1  A    between atoms: C2_2  and  C3_4
REMARK    2  A    between atoms: C3_4  and  N1_5
REMARK    3  A    between atoms: C3_4  and  C10_23
REMARK    4  A    between atoms: N1_5  and  C4_7
REMARK    5  A    between atoms: C4_7  and  S1_8
REMARK    6  A    between atoms: C4_7  and  C5_14
REMARK    7  A    between atoms: S1_8  and  N2_9
REMARK    8  A    between atoms: N2_9  and  N3_10
REMARK       I    between atoms: C10_23  and  N5_25
REMARK    9  A    between atoms: N5_25  and  C11_27
REMARK   10  A    between atoms: C11_27  and  C12_28
REMARK   11  A    between atoms: C11_27  and  C15_33
REMARK   12  A    between atoms: C12_28  and  C13_29
REMARK   13  A    between atoms: C13_29  and  C14_30
ROOT
HETATM    1  N1  UNL     1      50.181  -2.651  -3.631  1.00  0.00    -0.366 N
ATOM      2  H1  UNL     1      49.672  -2.883  -2.778  1.00  0.00     0.161 HD
ENDROOT
BRANCH   1   3
HETATM    3  C3  UNL     1      50.995  -1.462  -3.583  1.00  0.00     0.244 C
BRANCH   3   4
HETATM    4  C2  UNL     1      50.594  -0.511  -4.663  1.00  0.00     0.154 C
HETATM    5  C1  UNL     1      51.439  -0.168  -5.823  1.00  0.00     0.093 C
HETATM    6  O1  UNL     1      49.486   0.012  -4.567  1.00  0.00    -0.296 OA
ENDBRANCH   3   4
BRANCH   3   7
HETATM    7  C10 UNL     1      50.882  -0.875  -2.232  1.00  0.00     0.248 C
HETATM    8  O3  UNL     1      50.955  -1.632  -1.234  1.00  0.00    -0.271 OA
HETATM    9  N5  UNL     1      50.696   0.507  -2.019  1.00  0.00    -0.344 N
ATOM     10  H5  UNL     1      50.639   1.137  -2.820  1.00  0.00     0.163 HD
BRANCH   9  11
HETATM   11  C11 UNL     1      50.586   1.046  -0.674  1.00  0.00     0.186 C
BRANCH  11  12
HETATM   12  C12 UNL     1      49.347   1.865  -0.488  1.00  0.00     0.046 C
BRANCH  12  13
HETATM   13  C13 UNL     1      48.444   1.870  -1.676  1.00  0.00     0.116 C
BRANCH  13  14
HETATM   14  C14 UNL     1      47.358   0.887  -1.462  1.00  0.00     0.172 C
HETATM   15  O4  UNL     1      46.302   1.226  -0.875  1.00  0.00    -0.648 OA
HETATM   16  O5  UNL     1      47.532  -0.408  -1.921  1.00  0.00    -0.648 OA
ENDBRANCH  13  14
ENDBRANCH  12  13
ENDBRANCH  11  12
BRANCH  11  17
HETATM   17  C15 UNL     1      51.757   1.895  -0.334  1.00  0.00     0.196 C
HETATM   18  O6  UNL     1      51.669   3.113  -0.032  1.00  0.00    -0.646 OA
HETATM   19  O7  UNL     1      53.026   1.336  -0.343  1.00  0.00    -0.646 OA
ENDBRANCH  11  17
ENDBRANCH   9  11
ENDBRANCH   3   7
ENDBRANCH   1   3
BRANCH   1  20
HETATM   20  C4  UNL     1      50.004  -3.530  -4.722  1.00  0.00     0.084 C
BRANCH  20  21
HETATM   21  S1  UNL     1      48.631  -3.756  -5.518  1.00  0.00     0.007 SA
BRANCH  21  22
HETATM   22  N2  UNL     1      47.462  -2.471  -5.815  1.00  0.00    -0.096 NA
HETATM   23  S2  UNL     1      46.048  -3.076  -6.620  1.00  0.00     0.043 SA
BRANCH  22  24
HETATM   24  N3  UNL     1      47.105  -1.826  -4.618  1.00  0.00    -0.343 NA
ATOM     25  H32 UNL     1      47.892  -1.284  -4.258  1.00  0.00     0.172 HD
ATOM     26  H31 UNL     1      46.279  -1.241  -4.748  1.00  0.00     0.172 HD
ENDBRANCH  22  24
ENDBRANCH  21  22
ENDBRANCH  20  21
BRANCH  20  27
HETATM   27  C5  UNL     1      51.232  -4.283  -5.210  1.00  0.00     0.199 C
HETATM   28  S3  UNL     1      50.712  -5.528  -6.421  1.00  0.00    -0.117 SA
HETATM   29  C6  UNL     1      50.786  -7.007  -5.331  1.00  0.00     0.075 C
HETATM   30  C7  UNL     1      49.503  -7.769  -5.381  1.00  0.00     0.050 C
HETATM   31  C8  UNL     1      51.943  -7.889  -5.710  1.00  0.00     0.050 C
HETATM   32  N4  UNL     1      51.021  -6.371  -4.057  1.00  0.00    -0.342 N
HETATM   33  C9  UNL     1      51.746  -5.178  -4.134  1.00  0.00     0.239 C
ATOM     34  H4  UNL     1      50.687  -6.759  -3.175  1.00  0.00     0.164 HD
HETATM   35  O2  UNL     1      52.740  -4.804  -3.418  1.00  0.00    -0.272 OA
ENDBRANCH  20  27
ENDBRANCH   1  20
TORSDOF 13
ENDMDL