MODEL 5
REMARK VINA RESULT: -6.240899025      1.902      4.247
REMARK  14 active torsions:
REMARK  status: ('A' for Active; 'I' for Inactive)
REMARK    1  A    between atoms: N1_4  and  C4_5
REMARK    2  A    between atoms: C4_5  and  C5_6
REMARK    3  A    between atoms: C5_6  and  C6_7
REMARK    4  A    between atoms: N2_9  and  C8_10
REMARK    5  A    between atoms: C8_10  and  C9_11
REMARK    6  A    between atoms: C9_11  and  C10_12
REMARK    7  A    between atoms: C9_11  and  C13_19
REMARK    8  A    between atoms: C10_12  and  C11_13
REMARK    9  A    between atoms: C11_13  and  N3_14
REMARK       I    between atoms: N3_14  and  C12_16
REMARK   10  A    between atoms: C13_19  and  N6_20
REMARK   11  A    between atoms: C16_25  and  N8_26
REMARK   12  A    between atoms: C17_31  and  C18_32
REMARK   13  A    between atoms: C18_32  and  N10_33
REMARK   14  A    between atoms: C18_32  and  N11_37
ROOT
HETATM    1  C9  UNL     1      50.416   0.985  -3.287  1.00  0.00     0.025 C
ENDROOT
BRANCH   1   2
HETATM    2  C8  UNL     1      51.857   0.617  -3.272  1.00  0.00     0.156 C
BRANCH   2   3
HETATM    3  N2  UNL     1      51.943  -0.806  -2.927  1.00  0.00    -0.286 N
HETATM    4  C7  UNL     1      51.993  -1.853  -3.748  1.00  0.00     0.142 A
HETATM    5  C6  UNL     1      52.082  -3.004  -2.919  1.00  0.00     0.068 A
HETATM    6  N13 UNL     1      52.078  -2.535  -1.682  1.00  0.00    -0.285 N
HETATM    7  N12 UNL     1      51.997  -1.251  -1.695  1.00  0.00    -0.240 N
ATOM      8  H13 UNL     1      52.131  -3.108  -0.840  1.00  0.00     0.188 HD
ATOM      9  H12 UNL     1      51.977  -0.661  -0.863  1.00  0.00     0.208 HD
BRANCH   5  10
HETATM   10  C5  UNL     1      52.116  -4.343  -3.450  1.00  0.00     0.050 C
BRANCH  10  11
HETATM   11  C4  UNL     1      51.579  -4.936  -4.425  1.00  0.00     0.099 C
BRANCH  11  12
HETATM   12  N1  UNL     1      50.284  -5.345  -4.789  1.00  0.00    -0.327 N
HETATM   13  C3  UNL     1      49.321  -4.448  -5.230  1.00  0.00     0.121 A
HETATM   14  C2  UNL     1      48.212  -5.185  -5.551  1.00  0.00     0.024 A
HETATM   15  C1  UNL     1      46.966  -4.526  -6.069  1.00  0.00     0.070 C
HETATM   16  N14 UNL     1      48.436  -6.457  -5.336  1.00  0.00    -0.350 N
HETATM   17  C19 UNL     1      49.713  -6.550  -4.868  1.00  0.00     0.189 A
HETATM   18  C20 UNL     1      47.486  -7.523  -5.565  1.00  0.00     0.156 C
ENDBRANCH  11  12
ENDBRANCH  10  11
ENDBRANCH   5  10
ENDBRANCH   2   3
ENDBRANCH   1   2
BRANCH   1  19
HETATM   19  C10 UNL     1      49.921   1.768  -2.125  1.00  0.00     0.027 C
BRANCH  19  20
HETATM   20  C11 UNL     1      49.291   1.046  -0.999  1.00  0.00     0.122 C
BRANCH  20  21
HETATM   21  N3  UNL     1      48.530   1.825  -0.074  1.00  0.00    -0.367 N
HETATM   22  C12 UNL     1      47.243   1.894  -0.076  1.00  0.00     0.196 C
HETATM   23  N4  UNL     1      46.623   2.709   0.905  1.00  0.00    -0.067 NA
HETATM   24  N5  UNL     1      46.508   1.160  -1.046  1.00  0.00    -0.067 NA
ATOM     25  H3  UNL     1      49.037   2.359   0.632  1.00  0.00     0.161 HD
ENDBRANCH  20  21
ENDBRANCH  19  20
ENDBRANCH   1  19
BRANCH   1  26
HETATM   26  C13 UNL     1      49.872   1.549  -4.571  1.00  0.00     0.138 C
BRANCH  26  27
HETATM   27  N6  UNL     1      49.470   0.556  -5.546  1.00  0.00    -0.322 N
HETATM   28  C14 UNL     1      50.300   0.366  -6.585  1.00  0.00     0.097 A
HETATM   29  C15 UNL     1      51.525   1.081  -6.893  1.00  0.00     0.090 C
HETATM   30  N7  UNL     1      49.946  -0.598  -7.496  1.00  0.00    -0.181 N
HETATM   31  C16 UNL     1      48.819  -1.312  -7.345  1.00  0.00     0.678 A
ATOM     32  H7  UNL     1      50.549  -0.774  -8.299  1.00  0.00     0.185 HD
HETATM   33  N9  UNL     1      48.018  -1.092  -6.296  1.00  0.00    -0.177 N
HETATM   34  C17 UNL     1      48.325  -0.143  -5.359  1.00  0.00     0.159 A
ATOM     35  H9  UNL     1      47.164  -1.640  -6.193  1.00  0.00     0.185 HD
BRANCH  31  36
HETATM   36  N8  UNL     1      48.460  -2.224  -8.186  1.00  0.00    -0.234 N
ATOM     37  H82 UNL     1      48.115  -1.916  -9.094  1.00  0.00     0.174 HD
ATOM     38  H81 UNL     1      48.514  -3.219  -7.970  1.00  0.00     0.174 HD
ENDBRANCH  31  36
BRANCH  34  39
HETATM   39  C18 UNL     1      47.411   0.065  -4.226  1.00  0.00     0.445 C
BRANCH  39  40
HETATM   40  N10 UNL     1      47.317  -1.147  -3.393  1.00  0.00    -0.043 N
ATOM     41 3H10 UNL     1      48.178  -1.694  -3.427  1.00  0.00     0.277 HD
ATOM     42 2H10 UNL     1      47.317  -0.920  -2.398  1.00  0.00     0.277 HD
ATOM     43 1H10 UNL     1      46.505  -1.706  -3.650  1.00  0.00     0.277 HD
ENDBRANCH  39  40
BRANCH  39  44
HETATM   44  N11 UNL     1      46.063   0.154  -4.831  1.00  0.00    -0.043 N
ATOM     45 3H11 UNL     1      45.313  -0.164  -4.216  1.00  0.00     0.277 HD
ATOM     46 2H11 UNL     1      45.724   1.110  -4.944  1.00  0.00     0.277 HD
ATOM     47 1H11 UNL     1      46.128  -0.367  -5.705  1.00  0.00     0.277 HD
ENDBRANCH  39  44
ENDBRANCH  34  39
ENDBRANCH  26  27
ENDBRANCH   1  26
TORSDOF 14
ENDMDL