MODEL 4
REMARK VINA RESULT: -7.314357804      2.998      4.837
REMARK  10 active torsions:
REMARK  status: ('A' for Active; 'I' for Inactive)
REMARK       I    between atoms: C2_2  and  N1_4
REMARK    1  A    between atoms: N1_4  and  C3_6
REMARK    2  A    between atoms: C3_6  and  C5_9
REMARK       I    between atoms: C5_9  and  N3_11
REMARK    3  A    between atoms: N3_11  and  C6_13
REMARK    4  A    between atoms: C9_18  and  C10_19
REMARK    5  A    between atoms: C10_19  and  N4_20
REMARK       I    between atoms: N4_20  and  C11_22
REMARK    6  A    between atoms: C11_22  and  C12_24
REMARK    7  A    between atoms: C12_24  and  C13_26
REMARK    8  A    between atoms: C15_29  and  N5_30
REMARK    9  A    between atoms: C16_35  and  C17_36
REMARK   10  A    between atoms: C17_36  and  O6_38
ROOT
HETATM    1  C3  UNL     1      51.338   2.497  -0.307  1.00  0.00     0.284 C
HETATM    2  C4  UNL     1      51.714   3.674  -1.120  1.00  0.00     0.094 C
HETATM    3  N2  UNL     1      52.004   4.598  -1.752  1.00  0.00    -0.195 NA
ENDROOT
BRANCH   1   4
HETATM    4  N1  UNL     1      49.941   2.187  -0.462  1.00  0.00    -0.337 N
HETATM    5  C2  UNL     1      49.008   2.499   0.554  1.00  0.00     0.215 C
HETATM    6  C1  UNL     1      47.559   2.199   0.428  1.00  0.00     0.117 C
HETATM    7  O1  UNL     1      49.398   3.053   1.612  1.00  0.00    -0.274 OA
ATOM      8  H1  UNL     1      49.619   1.735  -1.319  1.00  0.00     0.164 HD
ENDBRANCH   1   4
BRANCH   1   9
HETATM    9  C5  UNL     1      52.232   1.382  -0.776  1.00  0.00     0.255 C
HETATM   10  O2  UNL     1      53.097   1.003   0.053  1.00  0.00    -0.270 OA
HETATM   11  N3  UNL     1      52.074   0.822  -2.072  1.00  0.00    -0.342 N
ATOM     12  H3  UNL     1      51.348   1.181  -2.692  1.00  0.00     0.163 HD
BRANCH  11  13
HETATM   13  C6  UNL     1      52.925  -0.241  -2.515  1.00  0.00     0.203 C
HETATM   14  C7  UNL     1      53.936   0.287  -3.440  1.00  0.00     0.213 C
HETATM   15  O3  UNL     1      55.023   0.604  -3.058  1.00  0.00    -0.283 OA
HETATM   16  S1  UNL     1      53.471   0.430  -5.143  1.00  0.00    -0.086 SA
HETATM   17  C8  UNL     1      51.722   0.007  -5.220  1.00  0.00     0.118 C
HETATM   18  C9  UNL     1      51.513  -1.215  -4.314  1.00  0.00    -0.040 C
HETATM   19  C16 UNL     1      52.050  -1.317  -3.132  1.00  0.00     0.025 C
BRANCH  18  20
HETATM   20  C10 UNL     1      50.559  -2.222  -4.855  1.00  0.00     0.158 C
BRANCH  20  21
HETATM   21  N4  UNL     1      49.540  -1.534  -5.619  1.00  0.00    -0.350 N
HETATM   22  C11 UNL     1      48.186  -1.513  -5.115  1.00  0.00     0.294 C
HETATM   23  O4  UNL     1      48.010  -2.103  -4.041  1.00  0.00    -0.264 OA
ATOM     24  H4  UNL     1      49.774  -1.073  -6.499  1.00  0.00     0.163 HD
BRANCH  22  25
HETATM   25  C12 UNL     1      47.147  -0.850  -5.829  1.00  0.00     0.266 C
HETATM   26  O5  UNL     1      45.961  -1.293  -5.618  1.00  0.00    -0.280 OA
BRANCH  25  27
HETATM   27  C13 UNL     1      47.381   0.268  -6.752  1.00  0.00     0.097 A
HETATM   28  C14 UNL     1      47.576  -0.033  -8.108  1.00  0.00     0.087 A
HETATM   29  S2  UNL     1      47.805   1.504  -8.793  1.00  0.00    -0.064 SA
HETATM   30  C15 UNL     1      47.650   2.438  -7.389  1.00  0.00     0.142 A
HETATM   31  N6  UNL     1      47.427   1.524  -6.435  1.00  0.00    -0.333 N
ATOM     32  H6  UNL     1      47.294   1.814  -5.466  1.00  0.00     0.168 HD
BRANCH  30  33
HETATM   33  N5  UNL     1      47.727   3.749  -7.234  1.00  0.00    -0.380 N
ATOM     34  H52 UNL     1      46.978   4.428  -7.365  1.00  0.00     0.158 HD
ATOM     35  H51 UNL     1      48.521   4.327  -6.960  1.00  0.00     0.158 HD
ENDBRANCH  30  33
ENDBRANCH  25  27
ENDBRANCH  22  25
ENDBRANCH  20  21
ENDBRANCH  18  20
BRANCH  19  36
HETATM   36  C17 UNL     1      51.948  -2.515  -2.329  1.00  0.00     0.158 C
HETATM   37  N7  UNL     1      52.244  -3.839  -2.661  1.00  0.00    -0.074 NA
BRANCH  36  38
HETATM   38  O6  UNL     1      51.519  -2.315  -1.108  1.00  0.00    -0.348 OA
ATOM     39  H6  UNL     1      51.777  -2.984  -0.485  1.00  0.00     0.219 HD
ENDBRANCH  36  38
ENDBRANCH  19  36
ENDBRANCH  11  13
ENDBRANCH   1   9
TORSDOF 10
ENDMDL