MODEL 2
REMARK VINA RESULT: -7.837298318      3.006      5.025
REMARK  14 active torsions:
REMARK  status: ('A' for Active; 'I' for Inactive)
REMARK    1  A    between atoms: C2_2  and  N1_3
REMARK    2  A    between atoms: C2_2  and  C11_18
REMARK    3  A    between atoms: N1_3  and  C3_5
REMARK    4  A    between atoms: C3_5  and  C5_7
REMARK    5  A    between atoms: C5_7  and  N2_9
REMARK       I    between atoms: C11_18  and  N4_20
REMARK    6  A    between atoms: N4_20  and  C12_22
REMARK    7  A    between atoms: C12_22  and  O4_23
REMARK    8  A    between atoms: C12_22  and  C13_25
REMARK       I    between atoms: C13_25  and  N5_27
REMARK    9  A    between atoms: N5_27  and  C14_29
REMARK   10  A    between atoms: C14_29  and  O6_30
REMARK   11  A    between atoms: C14_29  and  C15_32
REMARK   12  A    between atoms: C18_35  and  C19_36
REMARK   13  A    between atoms: C19_36  and  C20_37
REMARK       I    between atoms: C20_37  and  N6_39
REMARK   14  A    between atoms: N6_39  and  N7_41
ROOT
HETATM    1  C12 UNL     1      50.350  -1.079  -2.363  1.00  0.00     0.212 C
ENDROOT
BRANCH   1   2
HETATM    2  N4  UNL     1      50.472  -2.183  -3.181  1.00  0.00    -0.301 N
HETATM    3  C11 UNL     1      51.355  -3.258  -3.193  1.00  0.00     0.245 C
HETATM    4  O3  UNL     1      52.285  -3.403  -2.394  1.00  0.00    -0.271 OA
ATOM      5  H4  UNL     1      49.777  -2.218  -3.926  1.00  0.00     0.171 HD
BRANCH   3   6
HETATM    6  C2  UNL     1      51.200  -4.351  -4.242  1.00  0.00     0.166 C
HETATM    7  C1  UNL     1      52.322  -5.308  -3.981  1.00  0.00     0.042 C
BRANCH   6   8
HETATM    8  N1  UNL     1      50.989  -3.882  -5.522  1.00  0.00    -0.404 N
ATOM      9  H1  UNL     1      51.650  -3.191  -5.875  1.00  0.00     0.154 HD
BRANCH   8  10
HETATM   10  C3  UNL     1      49.959  -4.264  -6.377  1.00  0.00     0.097 C
HETATM   11  C4  UNL     1      50.188  -5.667  -6.910  1.00  0.00     0.034 C
BRANCH  10  12
HETATM   12  C5  UNL     1      48.635  -4.215  -5.590  1.00  0.00     0.129 C
HETATM   13  C6  UNL     1      47.716  -5.349  -5.957  1.00  0.00     0.036 C
BRANCH  12  14
HETATM   14  N2  UNL     1      47.989  -2.928  -5.657  1.00  0.00    -0.248 N
HETATM   15  N3  UNL     1      47.862  -2.229  -6.768  1.00  0.00    -0.306 N
HETATM   16  C7  UNL     1      47.256  -1.028  -6.859  1.00  0.00     0.111 A
ATOM     17  H3  UNL     1      48.252  -2.626  -7.622  1.00  0.00     0.186 HD
HETATM   18  C8  UNL     1      46.705  -0.427  -5.747  1.00  0.00     0.079 A
HETATM   19  C9  UNL     1      46.817  -1.132  -4.548  1.00  0.00     0.242 A
HETATM   20  O1  UNL     1      46.328  -0.616  -3.514  1.00  0.00    -0.282 OA
HETATM   21  C10 UNL     1      47.451  -2.352  -4.543  1.00  0.00     0.312 A
HETATM   22  O2  UNL     1      47.539  -2.965  -3.459  1.00  0.00    -0.262 OA
ENDBRANCH  12  14
ENDBRANCH  10  12
ENDBRANCH   8  10
ENDBRANCH   6   8
ENDBRANCH   3   6
ENDBRANCH   1   2
BRANCH   1  23
HETATM   23  O4  UNL     1      51.008  -1.161  -1.225  1.00  0.00    -0.342 OA
ATOM     24  H4  UNL     1      51.101  -0.338  -0.759  1.00  0.00     0.219 HD
ENDBRANCH   1  23
BRANCH   1  25
HETATM   25  C13 UNL     1      49.617   0.154  -2.563  1.00  0.00     0.294 C
HETATM   26  O5  UNL     1      49.794   0.889  -3.542  1.00  0.00    -0.264 OA
HETATM   27  N5  UNL     1      48.642   0.537  -1.572  1.00  0.00    -0.327 N
ATOM     28  H5  UNL     1      48.480  -0.061  -0.762  1.00  0.00     0.165 HD
BRANCH  27  29
HETATM   29  C14 UNL     1      47.892   1.765  -1.722  1.00  0.00     0.229 C
BRANCH  29  30
HETATM   30  O6  UNL     1      46.525   1.425  -1.699  1.00  0.00    -0.376 OA
ATOM     31  H6  UNL     1      46.050   2.189  -1.390  1.00  0.00     0.212 HD
ENDBRANCH  29  30
BRANCH  29  32
HETATM   32  C15 UNL     1      48.143   2.706  -0.559  1.00  0.00     0.067 A
HETATM   33  C16 UNL     1      47.964   2.259   0.826  1.00  0.00     0.047 A
HETATM   34  C17 UNL     1      49.321   2.465   0.330  1.00  0.00    -0.074 A
HETATM   35  C18 UNL     1      50.645   2.478   0.448  1.00  0.00    -0.014 C
BRANCH  35  36
HETATM   36  C19 UNL     1      51.541   2.868  -0.659  1.00  0.00     0.132 C
BRANCH  36  37
HETATM   37  C20 UNL     1      52.429   1.737  -1.010  1.00  0.00     0.238 C
HETATM   38  O7  UNL     1      52.933   1.042  -0.080  1.00  0.00    -0.272 OA
HETATM   39  N6  UNL     1      52.696   1.453  -2.360  1.00  0.00    -0.276 N
ATOM     40  H6  UNL     1      52.285   2.019  -3.103  1.00  0.00     0.189 HD
BRANCH  39  41
HETATM   41  N7  UNL     1      53.540   0.371  -2.663  1.00  0.00    -0.343 N
ATOM     42  H72 UNL     1      53.137  -0.537  -2.896  1.00  0.00     0.176 HD
ATOM     43  H71 UNL     1      54.549   0.521  -2.643  1.00  0.00     0.176 HD
ENDBRANCH  39  41
ENDBRANCH  36  37
ENDBRANCH  35  36
ENDBRANCH  29  32
ENDBRANCH  27  29
ENDBRANCH   1  25
TORSDOF 14
ENDMDL