MODEL 1
REMARK VINA RESULT: -6.081806364      0.000      0.000
REMARK  15 active torsions:
REMARK  status: ('A' for Active; 'I' for Inactive)
REMARK    1  A    between atoms: N1_2  and  C2_4
REMARK    2  A    between atoms: C2_4  and  C3_6
REMARK    3  A    between atoms: C4_7  and  C5_8
REMARK    4  A    between atoms: N2_10  and  C7_11
REMARK    5  A    between atoms: C7_11  and  C8_12
REMARK       I    between atoms: C8_12  and  N3_14
REMARK    6  A    between atoms: N3_14  and  C9_16
REMARK    7  A    between atoms: C9_16  and  C10_17
REMARK    8  A    between atoms: C10_17  and  N4_18
REMARK    9  A    between atoms: C10_17  and  C11_22
REMARK       I    between atoms: C11_22  and  N5_24
REMARK   10  A    between atoms: N5_24  and  C12_26
REMARK   11  A    between atoms: C12_26  and  C13_27
REMARK   12  A    between atoms: C12_26  and  C14_29
REMARK   13  A    between atoms: C14_29  and  O4_31
REMARK   14  A    between atoms: C16_35  and  N7_36
REMARK       I    between atoms: N7_36  and  C17_38
REMARK   15  A    between atoms: C17_38  and  O6_40
ROOT
HETATM    1  C8  UNL     1      47.641   2.086  -0.110  1.00  0.00     0.237 C
HETATM    2  O1  UNL     1      47.247   2.965   0.695  1.00  0.00    -0.272 OA
HETATM    3  N3  UNL     1      49.034   1.809  -0.164  1.00  0.00    -0.357 N
ATOM      4  H3  UNL     1      49.368   1.097  -0.814  1.00  0.00     0.162 HD
ENDROOT
BRANCH   1   5
HETATM    5  C7  UNL     1      46.664   1.394  -0.950  1.00  0.00     0.250 C
BRANCH   5   6
HETATM    6  N2  UNL     1      47.312   0.726  -2.063  1.00  0.00    -0.291 N
HETATM    7  C6  UNL     1      47.240  -0.590  -2.333  1.00  0.00     0.135 A
HETATM    8  C5  UNL     1      47.979  -0.880  -3.471  1.00  0.00     0.080 A
HETATM    9  C16 UNL     1      48.501   0.332  -3.870  1.00  0.00     0.145 A
HETATM   10  N6  UNL     1      48.065   1.253  -2.987  1.00  0.00    -0.282 N
ATOM     11  H6  UNL     1      48.298   2.245  -3.036  1.00  0.00     0.189 HD
BRANCH   8  12
HETATM   12  C4  UNL     1      48.157  -2.176  -4.092  1.00  0.00    -0.054 C
HETATM   13  C3  UNL     1      48.314  -3.250  -4.624  1.00  0.00    -0.032 C
BRANCH  13  14
HETATM   14  C2  UNL     1      48.518  -4.514  -5.268  1.00  0.00     0.151 C
HETATM   15  S1  UNL     1      49.990  -5.165  -5.532  1.00  0.00    -0.051 SA
BRANCH  14  16
HETATM   16  N1  UNL     1      47.382  -5.243  -5.700  1.00  0.00    -0.378 N
HETATM   17  C1  UNL     1      47.446  -6.640  -6.082  1.00  0.00     0.147 C
ATOM     18  H1  UNL     1      46.482  -4.765  -5.743  1.00  0.00     0.160 HD
ENDBRANCH  14  16
ENDBRANCH  13  14
ENDBRANCH   8  12
BRANCH   9  19
HETATM   19  N7  UNL     1      49.334   0.519  -5.004  1.00  0.00    -0.286 N
HETATM   20  C17 UNL     1      50.442   1.416  -4.983  1.00  0.00     0.365 C
HETATM   21  O5  UNL     1      50.700   2.070  -3.928  1.00  0.00    -0.238 OA
ATOM     22  H7  UNL     1      49.135  -0.003  -5.857  1.00  0.00     0.172 HD
BRANCH  20  23
HETATM   23  O6  UNL     1      51.254   1.606  -6.072  1.00  0.00    -0.309 OA
HETATM   24  C18 UNL     1      52.642   1.811  -5.982  1.00  0.00     0.215 C
ENDBRANCH  20  23
ENDBRANCH   9  19
ENDBRANCH   5   6
ENDBRANCH   1   5
BRANCH   3  25
HETATM   25  C9  UNL     1      49.994   2.499   0.667  1.00  0.00     0.165 C
BRANCH  25  26
HETATM   26  C10 UNL     1      51.268   2.737  -0.125  1.00  0.00     0.292 C
BRANCH  26  27
HETATM   27  N4  UNL     1      50.851   3.332  -1.391  1.00  0.00    -0.065 N
ATOM     28  H43 UNL     1      49.910   3.063  -1.676  1.00  0.00     0.275 HD
ATOM     29  H42 UNL     1      50.681   4.337  -1.332  1.00  0.00     0.275 HD
ATOM     30  H41 UNL     1      51.569   3.081  -2.071  1.00  0.00     0.275 HD
ENDBRANCH  26  27
BRANCH  26  31
HETATM   31  C11 UNL     1      51.945   1.458  -0.450  1.00  0.00     0.250 C
HETATM   32  O2  UNL     1      52.890   1.084   0.293  1.00  0.00    -0.271 OA
HETATM   33  N5  UNL     1      51.569   0.655  -1.558  1.00  0.00    -0.346 N
ATOM     34  H5  UNL     1      50.802   0.977  -2.149  1.00  0.00     0.163 HD
BRANCH  33  35
HETATM   35  C12 UNL     1      52.205  -0.581  -1.893  1.00  0.00     0.174 C
BRANCH  35  36
HETATM   36  C13 UNL     1      53.188  -0.339  -2.975  1.00  0.00     0.258 C
HETATM   37  O3  UNL     1      54.293   0.107  -2.748  1.00  0.00    -0.305 OA
ENDBRANCH  35  36
BRANCH  35  38
HETATM   38  C14 UNL     1      51.207  -1.661  -2.270  1.00  0.00     0.143 C
HETATM   39  C15 UNL     1      51.957  -2.930  -2.609  1.00  0.00     0.042 C
BRANCH  38  40
HETATM   40  O4  UNL     1      50.374  -1.917  -1.207  1.00  0.00    -0.393 OA
ATOM     41  H4  UNL     1      49.468  -1.829  -1.480  1.00  0.00     0.210 HD
ENDBRANCH  38  40
ENDBRANCH  35  38
ENDBRANCH  33  35
ENDBRANCH  26  31
ENDBRANCH  25  26
ENDBRANCH   3  25
TORSDOF 15
ENDMDL