MODEL 5
REMARK VINA RESULT: -6.241280065      2.770      4.207
REMARK  10 active torsions:
REMARK  status: ('A' for Active; 'I' for Inactive)
REMARK    1  A    between atoms: O1_2  and  N1_3
REMARK    2  A    between atoms: N1_3  and  C2_5
REMARK    3  A    between atoms: C2_5  and  C3_6
REMARK    4  A    between atoms: C2_5  and  C4_9
REMARK       I    between atoms: C4_9  and  N3_11
REMARK    5  A    between atoms: N3_11  and  C5_13
REMARK    6  A    between atoms: C8_16  and  C9_17
REMARK    7  A    between atoms: C9_17  and  N4_18
REMARK    8  A    between atoms: C13_28  and  N7_29
REMARK    9  A    between atoms: C14_31  and  C15_32
REMARK   10  A    between atoms: C18_37  and  N9_38
ROOT
HETATM    1  C5  UNL     1      48.523  -0.982  -3.850  1.00  0.00     0.079 A
HETATM    2  C6  UNL     1      47.469  -1.851  -3.904  1.00  0.00     0.035 A
HETATM    3  C7  UNL     1      47.574  -3.024  -4.671  1.00  0.00     0.029 A
HETATM    4  C8  UNL     1      48.706  -3.319  -5.369  1.00  0.00     0.029 A
HETATM    5  N6  UNL     1      49.714  -2.447  -5.291  1.00  0.00    -0.343 N
ATOM      6  H6  UNL     1      50.571  -2.653  -5.805  1.00  0.00     0.167 HD
HETATM    7  C13 UNL     1      49.660  -1.320  -4.574  1.00  0.00     0.132 A
ENDROOT
BRANCH   7   8
HETATM    8  N7  UNL     1      50.827  -0.478  -4.574  1.00  0.00    -0.349 N
HETATM    9  C14 UNL     1      51.939  -0.900  -4.071  1.00  0.00     0.108 C
ATOM     10  H7  UNL     1      50.775   0.459  -4.975  1.00  0.00     0.167 HD
BRANCH   9  11
HETATM   11  C15 UNL     1      53.147  -0.095  -4.044  1.00  0.00     0.070 A
HETATM   12  C16 UNL     1      54.198  -0.345  -4.901  1.00  0.00     0.040 A
HETATM   13  C17 UNL     1      54.057  -1.489  -5.860  1.00  0.00     0.070 C
HETATM   14  N8  UNL     1      55.298   0.413  -4.871  1.00  0.00    -0.195 N
HETATM   15  C18 UNL     1      55.459   1.448  -4.027  1.00  0.00     0.679 A
ATOM     16  H8  UNL     1      56.054   0.196  -5.520  1.00  0.00     0.184 HD
HETATM   17  N10 UNL     1      54.456   1.725  -3.176  1.00  0.00    -0.156 N
HETATM   18  C19 UNL     1      53.318   0.968  -3.183  1.00  0.00     0.273 A
ATOM     19  H10 UNL     1      54.545   2.503  -2.522  1.00  0.00     0.187 HD
HETATM   20  O6  UNL     1      52.375   1.234  -2.379  1.00  0.00    -0.267 OA
BRANCH  15  21
HETATM   21  N9  UNL     1      56.545   2.159  -4.048  1.00  0.00    -0.234 N
ATOM     22  H92 UNL     1      56.516   3.171  -4.172  1.00  0.00     0.174 HD
ATOM     23  H91 UNL     1      57.460   1.719  -3.949  1.00  0.00     0.174 HD
ENDBRANCH  15  21
ENDBRANCH   9  11
ENDBRANCH   7   8
BRANCH   1  24
HETATM   24  N3  UNL     1      48.469   0.208  -3.125  1.00  0.00    -0.322 N
HETATM   25  C4  UNL     1      49.003   0.541  -1.880  1.00  0.00     0.256 C
HETATM   26  O3  UNL     1      49.674  -0.235  -1.170  1.00  0.00    -0.270 OA
ATOM     27  H3  UNL     1      47.953   0.961  -3.581  1.00  0.00     0.169 HD
BRANCH  25  28
HETATM   28  C2  UNL     1      48.799   1.927  -1.284  1.00  0.00     0.286 C
BRANCH  28  29
HETATM   29  N1  UNL     1      49.877   2.151  -0.388  1.00  0.00    -0.280 N
ATOM     30  H1  UNL     1      50.279   1.375   0.138  1.00  0.00     0.189 HD
BRANCH  29  31
HETATM   31  O1  UNL     1      50.349   3.362  -0.244  1.00  0.00    -0.289 OA
HETATM   32  C1  UNL     1      50.802   4.033  -1.343  1.00  0.00     0.237 C
ENDBRANCH  29  31
ENDBRANCH  28  29
BRANCH  28  33
HETATM   33  C3  UNL     1      47.539   1.750  -0.470  1.00  0.00     0.265 C
HETATM   34  N2  UNL     1      46.452   1.093  -1.062  1.00  0.00    -0.060 NA
HETATM   35  O2  UNL     1      47.525   2.195   0.681  1.00  0.00    -0.274 OA
ENDBRANCH  28  33
ENDBRANCH  25  28
ENDBRANCH   1  24
BRANCH   4  36
HETATM   36  C9  UNL     1      48.821  -4.539  -6.182  1.00  0.00     0.190 C
BRANCH  36  37
HETATM   37  N4  UNL     1      49.171  -5.717  -5.419  1.00  0.00    -0.300 N
HETATM   38  C10 UNL     1      50.378  -5.915  -4.731  1.00  0.00     0.189 A
HETATM   39  N5  UNL     1      50.410  -7.057  -4.147  1.00  0.00    -0.315 N
HETATM   40  C11 UNL     1      49.189  -7.793  -4.378  1.00  0.00     0.314 A
ATOM     41  H5  UNL     1      51.195  -7.400  -3.593  1.00  0.00     0.170 HD
HETATM   42  O4  UNL     1      48.878  -8.925  -3.968  1.00  0.00    -0.262 OA
HETATM   43  C12 UNL     1      48.394  -6.876  -5.223  1.00  0.00     0.317 A
HETATM   44  O5  UNL     1      47.247  -7.119  -5.661  1.00  0.00    -0.262 OA
ENDBRANCH  36  37
ENDBRANCH   4  36
TORSDOF 10
ENDMDL