MODEL 2
REMARK VINA RESULT: -6.937493206      2.023      3.232
REMARK  11 active torsions:
REMARK  status: ('A' for Active; 'I' for Inactive)
REMARK    1  A    between atoms: C2_2  and  C3_3
REMARK    2  A    between atoms: C2_2  and  N3_13
REMARK    3  A    between atoms: C3_3  and  C4_4
REMARK    4  A    between atoms: C6_7  and  N1_8
REMARK       I    between atoms: N3_13  and  C7_15
REMARK    5  A    between atoms: C7_15  and  C8_17
REMARK    6  A    between atoms: C8_17  and  N4_19
REMARK    7  A    between atoms: N4_19  and  C10_21
REMARK    8  A    between atoms: C10_21  and  C12_24
REMARK    9  A    between atoms: C12_24  and  N6_25
REMARK   10  A    between atoms: C14_27  and  C15_28
REMARK   11  A    between atoms: C15_28  and  C16_30
ROOT
HETATM    1  C10 UNL     1      47.390   0.276  -2.636  1.00  0.00     0.204 C
HETATM    2  C11 UNL     1      47.226  -1.144  -2.231  1.00  0.00     0.086 C
HETATM    3  N5  UNL     1      47.123  -2.267  -1.948  1.00  0.00    -0.195 NA
ENDROOT
BRANCH   1   4
HETATM    4  N4  UNL     1      47.177   0.429  -4.000  1.00  0.00    -0.392 N
ATOM      5  H4  UNL     1      46.232   0.686  -4.283  1.00  0.00     0.155 HD
BRANCH   4   6
HETATM    6  C8  UNL     1      48.092   0.273  -5.014  1.00  0.00     0.166 C
HETATM    7  C9  UNL     1      47.669  -0.880  -5.963  1.00  0.00     0.042 C
BRANCH   6   8
HETATM    8  C7  UNL     1      49.463  -0.051  -4.603  1.00  0.00     0.240 C
HETATM    9  N3  UNL     1      49.940  -1.416  -4.590  1.00  0.00    -0.355 N
ATOM     10  H3  UNL     1      49.297  -2.154  -4.876  1.00  0.00     0.162 HD
HETATM   11  O1  UNL     1      50.260   0.850  -4.250  1.00  0.00    -0.271 OA
BRANCH   9  12
HETATM   12  C2  UNL     1      51.257  -1.786  -4.201  1.00  0.00     0.086 C
HETATM   13  C1  UNL     1      51.312  -3.016  -3.299  1.00  0.00     0.032 C
BRANCH  12  14
HETATM   14  C3  UNL     1      52.253  -1.899  -5.323  1.00  0.00     0.082 C
BRANCH  14  15
HETATM   15  C4  UNL     1      53.334  -0.847  -5.178  1.00  0.00     0.019 A
HETATM   16  C5  UNL     1      54.480  -0.930  -5.921  1.00  0.00     0.078 A
HETATM   17  S1  UNL     1      55.339   0.453  -5.411  1.00  0.00    -0.064 SA
HETATM   18  C6  UNL     1      54.206   1.054  -4.294  1.00  0.00     0.142 A
HETATM   19  N2  UNL     1      53.212   0.165  -4.358  1.00  0.00    -0.340 N
ATOM     20  H2  UNL     1      52.376   0.273  -3.783  1.00  0.00     0.167 HD
BRANCH  18  21
HETATM   21  N1  UNL     1      54.300   2.135  -3.553  1.00  0.00    -0.380 N
ATOM     22  H12 UNL     1      54.098   3.102  -3.804  1.00  0.00     0.158 HD
ATOM     23  H11 UNL     1      54.597   2.203  -2.580  1.00  0.00     0.158 HD
ENDBRANCH  18  21
ENDBRANCH  14  15
ENDBRANCH  12  14
ENDBRANCH   9  12
ENDBRANCH   6   8
ENDBRANCH   4   6
ENDBRANCH   1   4
BRANCH   1  24
HETATM   24  C12 UNL     1      46.788   1.159  -1.629  1.00  0.00     0.173 C
BRANCH  24  25
HETATM   25  N6  UNL     1      47.847   1.734  -0.780  1.00  0.00    -0.306 N
HETATM   26  C13 UNL     1      49.149   1.639  -1.195  1.00  0.00     0.117 A
HETATM   27  C14 UNL     1      50.208   2.097  -0.460  1.00  0.00     0.103 A
HETATM   28  C17 UNL     1      49.921   2.695   0.784  1.00  0.00     0.265 A
HETATM   29  O4  UNL     1      50.878   3.115   1.459  1.00  0.00    -0.267 OA
HETATM   30  N8  UNL     1      48.651   2.777   1.164  1.00  0.00    -0.275 N
HETATM   31  C18 UNL     1      47.622   2.310   0.405  1.00  0.00     0.329 A
ATOM     32  H8  UNL     1      48.438   3.209   2.064  1.00  0.00     0.173 HD
HETATM   33  O5  UNL     1      46.454   2.429   0.828  1.00  0.00    -0.246 OA
BRANCH  27  34
HETATM   34  C15 UNL     1      51.578   1.998  -0.883  1.00  0.00     0.253 C
HETATM   35  O2  UNL     1      52.015   2.931  -1.661  1.00  0.00    -0.282 OA
BRANCH  34  36
HETATM   36  C16 UNL     1      52.523   0.989  -0.550  1.00  0.00     0.305 C
HETATM   37  N7  UNL     1      52.819  -0.084  -1.460  1.00  0.00    -0.054 NA
HETATM   38  O3  UNL     1      53.146   0.958   0.522  1.00  0.00    -0.267 OA
ENDBRANCH  34  36
ENDBRANCH  27  34
ENDBRANCH  24  25
ENDBRANCH   1  24
TORSDOF 11
ENDMDL