MODEL 1
REMARK VINA RESULT: -6.152962317      0.000      0.000
REMARK  16 active torsions:
REMARK  status: ('A' for Active; 'I' for Inactive)
REMARK    1  A    between atoms: O1_2  and  C2_3
REMARK       I    between atoms: C2_3  and  N1_5
REMARK    2  A    between atoms: N1_5  and  C3_6
REMARK    3  A    between atoms: C3_6  and  C4_7
REMARK    4  A    between atoms: C3_6  and  C11_14
REMARK    5  A    between atoms: C4_7  and  C5_8
REMARK       I    between atoms: C11_14  and  N2_16
REMARK    6  A    between atoms: N2_16  and  C12_18
REMARK    7  A    between atoms: C12_18  and  C14_20
REMARK    8  A    between atoms: C14_20  and  O4_21
REMARK    9  A    between atoms: C14_20  and  N3_23
REMARK   10  A    between atoms: N3_23  and  C15_25
REMARK   11  A    between atoms: C15_25  and  O5_26
REMARK   12  A    between atoms: C15_25  and  C16_28
REMARK   13  A    between atoms: C16_28  and  O6_29
REMARK   14  A    between atoms: C16_28  and  C17_31
REMARK       I    between atoms: C17_31  and  N4_33
REMARK   15  A    between atoms: N4_33  and  C18_35
REMARK   16  A    between atoms: N7_41  and  N8_42
ROOT
HETATM    1  C14 UNL     1      49.997   2.384  -0.026  1.00  0.00     0.140 C
ENDROOT
BRANCH   1   2
HETATM    2  C12 UNL     1      48.772   1.615  -0.083  1.00  0.00     0.155 C
HETATM    3  C13 UNL     1      47.570   2.486   0.348  1.00  0.00     0.041 C
BRANCH   2   4
HETATM    4  N2  UNL     1      48.511   1.291  -1.532  1.00  0.00    -0.347 N
HETATM    5  C11 UNL     1      49.055   0.119  -2.051  1.00  0.00     0.254 C
HETATM    6  O3  UNL     1      49.762  -0.648  -1.306  1.00  0.00    -0.270 OA
ATOM      7  H2  UNL     1      47.951   1.912  -2.115  1.00  0.00     0.163 HD
BRANCH   5   8
HETATM    8  C3  UNL     1      48.871  -0.349  -3.468  1.00  0.00     0.265 C
BRANCH   8   9
HETATM    9  N1  UNL     1      49.327   0.599  -4.352  1.00  0.00    -0.375 NA
HETATM   10  C2  UNL     1      49.776   1.535  -5.226  1.00  0.00     0.435 C
HETATM   11  O2  UNL     1      50.926   2.009  -5.318  1.00  0.00    -0.221 OA
BRANCH  10  12
HETATM   12  O1  UNL     1      48.845   2.063  -6.171  1.00  0.00    -0.298 OA
HETATM   13  C1  UNL     1      48.998   3.366  -6.650  1.00  0.00     0.216 C
ENDBRANCH  10  12
ENDBRANCH   8   9
BRANCH   8  14
HETATM   14  C4  UNL     1      47.358  -0.608  -3.571  1.00  0.00     0.088 C
BRANCH  14  15
HETATM   15  C5  UNL     1      47.051  -1.656  -4.563  1.00  0.00    -0.055 A
HETATM   16  C6  UNL     1      46.158  -1.516  -5.603  1.00  0.00     0.007 A
HETATM   17  C7  UNL     1      45.886  -2.526  -6.501  1.00  0.00     0.001 A
HETATM   18  C8  UNL     1      46.564  -3.722  -6.316  1.00  0.00     0.000 A
HETATM   19  C9  UNL     1      47.466  -3.907  -5.293  1.00  0.00     0.001 A
HETATM   20  C10 UNL     1      47.716  -2.877  -4.410  1.00  0.00     0.007 A
ENDBRANCH  14  15
ENDBRANCH   8  14
ENDBRANCH   5   8
ENDBRANCH   2   4
ENDBRANCH   1   2
BRANCH   1  21
HETATM   21  O4  UNL     1      49.793   3.690  -0.072  1.00  0.00    -0.348 OA
ATOM     22  H4  UNL     1      48.903   3.920  -0.312  1.00  0.00     0.219 HD
ENDBRANCH   1  21
BRANCH   1  23
HETATM   23  N3  UNL     1      51.323   2.035   0.072  1.00  0.00    -0.321 N
ATOM     24  H3  UNL     1      51.700   2.220   1.001  1.00  0.00     0.169 HD
BRANCH  23  25
HETATM   25  C15 UNL     1      52.276   1.493  -0.780  1.00  0.00     0.156 C
BRANCH  25  26
HETATM   26  O5  UNL     1      52.736   0.285  -0.359  1.00  0.00    -0.347 OA
ATOM     27  H5  UNL     1      52.050  -0.269  -0.005  1.00  0.00     0.219 HD
ENDBRANCH  25  26
BRANCH  25  28
HETATM   28  C16 UNL     1      52.924   1.887  -2.018  1.00  0.00     0.285 C
BRANCH  28  29
HETATM   29  O6  UNL     1      52.232   2.719  -2.849  1.00  0.00    -0.378 OA
ATOM     30  H6  UNL     1      52.422   2.663  -3.777  1.00  0.00     0.211 HD
ENDBRANCH  28  29
BRANCH  28  31
HETATM   31  C17 UNL     1      53.361   0.657  -2.813  1.00  0.00     0.272 C
HETATM   32  O7  UNL     1      54.584   0.337  -2.778  1.00  0.00    -0.269 OA
HETATM   33  N4  UNL     1      52.457  -0.066  -3.540  1.00  0.00    -0.154 N
ATOM     34  H4  UNL     1      51.913   0.477  -4.210  1.00  0.00     0.187 HD
BRANCH  33  35
HETATM   35  C18 UNL     1      52.189  -1.297  -3.514  1.00  0.00     0.722 A
HETATM   36  N5  UNL     1      52.426  -2.049  -2.385  1.00  0.00    -0.183 N
HETATM   37  C19 UNL     1      52.044  -3.278  -2.654  1.00  0.00     0.217 A
ATOM     38  H5  UNL     1      52.823  -1.715  -1.506  1.00  0.00     0.185 HD
HETATM   39  N6  UNL     1      51.585  -3.312  -3.894  1.00  0.00    -0.260 N
HETATM   40  N7  UNL     1      51.674  -2.095  -4.426  1.00  0.00    -0.026 N
ATOM     41  H6  UNL     1      51.221  -4.139  -4.367  1.00  0.00     0.190 HD
BRANCH  40  42
HETATM   42  N8  UNL     1      51.259  -1.858  -5.746  1.00  0.00    -0.309 N
ATOM     43  H82 UNL     1      50.602  -1.107  -5.958  1.00  0.00     0.179 HD
ATOM     44  H81 UNL     1      51.492  -2.323  -6.623  1.00  0.00     0.179 HD
ENDBRANCH  40  42
ENDBRANCH  33  35
ENDBRANCH  28  31
ENDBRANCH  25  28
ENDBRANCH  23  25
ENDBRANCH   1  23
TORSDOF 16
ENDMDL