MODEL 3
REMARK VINA RESULT: -5.719301043      3.271      5.917
REMARK  11 active torsions:
REMARK  status: ('A' for Active; 'I' for Inactive)
REMARK    1  A    between atoms: S1_2  and  C2_3
REMARK    2  A    between atoms: C2_3  and  C3_4
REMARK    3  A    between atoms: C3_4  and  C4_5
REMARK    4  A    between atoms: C4_5  and  N1_6
REMARK    5  A    between atoms: C4_5  and  C5_10
REMARK       I    between atoms: C5_10  and  N2_12
REMARK    6  A    between atoms: N2_12  and  N3_14
REMARK    7  A    between atoms: C6_16  and  C7_17
REMARK    8  A    between atoms: C7_17  and  C8_18
REMARK       I    between atoms: C8_18  and  N4_20
REMARK    9  A    between atoms: N4_20  and  C9_22
REMARK   10  A    between atoms: C9_22  and  C10_23
REMARK   11  A    between atoms: C9_22  and  C12_26
ROOT
HETATM    1  C7  UNL     1      50.893   0.937  -2.696  1.00  0.00     0.164 C
HETATM    2  C13 UNL     1      52.183   0.197  -3.016  1.00  0.00     0.153 C
HETATM    3  C14 UNL     1      53.235   1.097  -3.483  1.00  0.00     0.069 C
HETATM    4  N6  UNL     1      54.067   1.822  -3.838  1.00  0.00    -0.197 NA
HETATM    5  C15 UNL     1      52.683  -0.566  -1.833  1.00  0.00     0.140 C
HETATM    6  N7  UNL     1      52.741   0.183  -0.620  1.00  0.00    -0.379 N
ATOM      7  H7  UNL     1      53.176  -0.182   0.227  1.00  0.00     0.157 HD
HETATM    8  C16 UNL     1      52.144   1.485  -0.678  1.00  0.00     0.384 C
HETATM    9  N8  UNL     1      51.646   1.948   0.608  1.00  0.00    -0.035 N
ATOM     10  H81 UNL     1      52.376   2.266   1.247  1.00  0.00     0.281 HD
ATOM     11  H82 UNL     1      51.286   1.205   1.208  1.00  0.00     0.281 HD
HETATM   12  C17 UNL     1      50.660   2.972   0.271  1.00  0.00     0.261 C
HETATM   13  C18 UNL     1      50.482   2.873  -1.256  1.00  0.00     0.106 C
HETATM   14  C19 UNL     1      51.177   4.036  -1.859  1.00  0.00     0.034 C
HETATM   15  N9  UNL     1      50.999   1.594  -1.488  1.00  0.00    -0.342 N
ENDROOT
BRANCH   1  16
HETATM   16  C6  UNL     1      50.526   1.788  -3.866  1.00  0.00     0.122 C
HETATM   17  N3  UNL     1      49.328   1.887  -4.301  1.00  0.00    -0.310 N
ATOM     18  H3  UNL     1      48.614   1.351  -3.809  1.00  0.00     0.185 HD
BRANCH  17  19
HETATM   19  N2  UNL     1      48.908   2.645  -5.366  1.00  0.00    -0.269 N
HETATM   20  C5  UNL     1      48.668   2.088  -6.637  1.00  0.00     0.266 C
HETATM   21  O1  UNL     1      48.837   0.865  -6.828  1.00  0.00    -0.269 OA
ATOM     22  H2  UNL     1      48.764   3.646  -5.231  1.00  0.00     0.190 HD
BRANCH  20  23
HETATM   23  C4  UNL     1      48.208   2.912  -7.801  1.00  0.00     0.277 C
BRANCH  23  24
HETATM   24  C3  UNL     1      49.236   3.902  -8.209  1.00  0.00     0.053 C
BRANCH  24  25
HETATM   25  C2  UNL     1      48.894   5.307  -7.890  1.00  0.00     0.076 C
BRANCH  25  26
HETATM   26  S1  UNL     1      49.825   6.104  -6.604  1.00  0.00    -0.173 SA
HETATM   27  C1  UNL     1      49.357   7.775  -6.195  1.00  0.00     0.089 C
ENDBRANCH  25  26
ENDBRANCH  24  25
ENDBRANCH  23  24
BRANCH  23  28
HETATM   28  N1  UNL     1      47.004   3.646  -7.405  1.00  0.00    -0.066 N
ATOM     29  H13 UNL     1      46.550   3.244  -6.585  1.00  0.00     0.275 HD
ATOM     30  H12 UNL     1      47.213   4.562  -7.009  1.00  0.00     0.275 HD
ATOM     31  H11 UNL     1      46.385   3.697  -8.213  1.00  0.00     0.275 HD
ENDBRANCH  23  28
ENDBRANCH  20  23
ENDBRANCH  17  19
ENDBRANCH   1  16
BRANCH   1  32
HETATM   32  C8  UNL     1      49.828  -0.099  -2.629  1.00  0.00     0.254 C
HETATM   33  O2  UNL     1      49.293  -0.296  -1.484  1.00  0.00    -0.270 OA
HETATM   34  N4  UNL     1      49.388  -0.853  -3.720  1.00  0.00    -0.339 N
ATOM     35  H4  UNL     1      49.816  -0.697  -4.632  1.00  0.00     0.163 HD
BRANCH  34  36
HETATM   36  C9  UNL     1      48.347  -1.848  -3.597  1.00  0.00     0.243 C
BRANCH  36  37
HETATM   37  C10 UNL     1      46.992  -1.227  -3.601  1.00  0.00     0.154 C
HETATM   38  C11 UNL     1      46.357  -0.603  -4.762  1.00  0.00     0.093 C
HETATM   39  O3  UNL     1      46.373  -1.251  -2.535  1.00  0.00    -0.296 OA
ENDBRANCH  36  37
BRANCH  36  40
HETATM   40  C12 UNL     1      48.392  -2.832  -4.703  1.00  0.00     0.261 C
HETATM   41  N5  UNL     1      49.309  -2.647  -5.753  1.00  0.00    -0.060 NA
HETATM   42  O4  UNL     1      47.631  -3.827  -4.726  1.00  0.00    -0.274 OA
ENDBRANCH  36  40
ENDBRANCH  34  36
ENDBRANCH   1  32
TORSDOF 11
ENDMDL