MODEL 2
REMARK VINA RESULT: -7.347963612      2.360      4.967
REMARK  10 active torsions:
REMARK  status: ('A' for Active; 'I' for Inactive)
REMARK       I    between atoms: C2_2  and  N1_4
REMARK    1  A    between atoms: N1_4  and  C3_5
REMARK    2  A    between atoms: N1_4  and  C13_31
REMARK    3  A    between atoms: C3_5  and  C4_6
REMARK       I    between atoms: C4_6  and  N2_8
REMARK    4  A    between atoms: N2_8  and  C5_10
REMARK    5  A    between atoms: C5_10  and  C6_11
REMARK    6  A    between atoms: C5_10  and  C9_20
REMARK    7  A    between atoms: C6_11  and  C7_12
REMARK    8  A    between atoms: C7_12  and  C8_13
REMARK       I    between atoms: C8_13  and  N3_15
REMARK    9  A    between atoms: N3_15  and  N4_17
REMARK   10  A    between atoms: C10_21  and  C11_22
ROOT
HETATM    1  C5  UNL     1      50.025   0.714  -2.154  1.00  0.00     0.139 C
ENDROOT
BRANCH   1   2
HETATM    2  N2  UNL     1      51.117  -0.185  -2.503  1.00  0.00    -0.349 N
HETATM    3  C4  UNL     1      51.202  -1.579  -2.143  1.00  0.00     0.236 C
HETATM    4  O2  UNL     1      50.247  -2.007  -1.472  1.00  0.00    -0.272 OA
ATOM      5  H2  UNL     1      51.886   0.203  -3.048  1.00  0.00     0.163 HD
BRANCH   3   6
HETATM    6  C3  UNL     1      52.367  -2.369  -2.579  1.00  0.00     0.235 C
BRANCH   6   7
HETATM    7  N1  UNL     1      52.248  -2.929  -3.891  1.00  0.00    -0.303 N
HETATM    8  C2  UNL     1      53.045  -2.325  -4.935  1.00  0.00     0.221 C
HETATM    9  C1  UNL     1      53.743  -1.048  -4.718  1.00  0.00     0.117 C
HETATM   10  O1  UNL     1      53.148  -2.894  -6.050  1.00  0.00    -0.273 OA
BRANCH   7  11
HETATM   11  C13 UNL     1      51.488  -4.083  -4.207  1.00  0.00     0.129 A
HETATM   12  C14 UNL     1      50.229  -4.062  -4.708  1.00  0.00     0.042 A
HETATM   13  C15 UNL     1      49.536  -2.789  -5.016  1.00  0.00     0.071 C
HETATM   14  N9  UNL     1      49.550  -5.237  -4.978  1.00  0.00    -0.310 N
HETATM   15  C16 UNL     1      50.135  -6.409  -4.746  1.00  0.00     0.327 A
ATOM     16  H9  UNL     1      48.601  -5.205  -5.353  1.00  0.00     0.170 HD
HETATM   17  O5  UNL     1      49.544  -7.485  -4.980  1.00  0.00    -0.247 OA
HETATM   18  N10 UNL     1      51.367  -6.438  -4.258  1.00  0.00    -0.274 N
HETATM   19  C17 UNL     1      52.082  -5.336  -3.974  1.00  0.00     0.278 A
ATOM     20  H10 UNL     1      51.797  -7.348  -4.088  1.00  0.00     0.173 HD
HETATM   21  O6  UNL     1      53.240  -5.386  -3.520  1.00  0.00    -0.265 OA
ENDBRANCH   7  11
ENDBRANCH   6   7
ENDBRANCH   3   6
ENDBRANCH   1   2
BRANCH   1  22
HETATM   22  C6  UNL     1      50.581   2.035  -1.690  1.00  0.00     0.041 C
BRANCH  22  23
HETATM   23  C7  UNL     1      50.985   2.015  -0.207  1.00  0.00     0.107 C
BRANCH  23  24
HETATM   24  C8  UNL     1      49.813   2.501   0.611  1.00  0.00     0.235 C
HETATM   25  O3  UNL     1      50.051   3.174   1.639  1.00  0.00    -0.272 OA
HETATM   26  N3  UNL     1      48.503   2.199   0.218  1.00  0.00    -0.277 N
ATOM     27  H3  UNL     1      48.326   1.648  -0.622  1.00  0.00     0.189 HD
BRANCH  26  28
HETATM   28  N4  UNL     1      47.424   2.674   1.011  1.00  0.00    -0.343 N
ATOM     29  H42 UNL     1      47.481   3.600   1.436  1.00  0.00     0.176 HD
ATOM     30  H41 UNL     1      46.609   2.076   1.140  1.00  0.00     0.176 HD
ENDBRANCH  26  28
ENDBRANCH  23  24
ENDBRANCH  22  23
ENDBRANCH   1  22
BRANCH   1  31
HETATM   31  C9  UNL     1      49.054   0.802  -3.272  1.00  0.00     0.085 A
HETATM   32  C10 UNL     1      47.738   0.346  -3.175  1.00  0.00     0.141 A
HETATM   33  N6  UNL     1      47.210   0.525  -4.425  1.00  0.00    -0.279 N
HETATM   34  N7  UNL     1      48.126   1.040  -5.185  1.00  0.00    -0.240 N
ATOM     35  H6  UNL     1      46.259   0.292  -4.711  1.00  0.00     0.189 HD
HETATM   36  N8  UNL     1      49.275   1.229  -4.521  1.00  0.00    -0.282 N
ATOM     37  H7  UNL     1      47.989   1.273  -6.168  1.00  0.00     0.208 HD
HETATM   38  C12 UNL     1      50.447   1.782  -5.155  1.00  0.00     0.179 C
BRANCH  32  39
HETATM   39  C11 UNL     1      46.965  -0.155  -2.042  1.00  0.00     0.284 C
HETATM   40  N5  UNL     1      46.734  -1.573  -1.997  1.00  0.00    -0.056 NA
HETATM   41  O4  UNL     1      46.490   0.512  -1.120  1.00  0.00    -0.269 OA
ENDBRANCH  32  39
ENDBRANCH   1  31
TORSDOF 10
ENDMDL