MODEL 4
REMARK VINA RESULT: -5.413174069      3.028      6.188
REMARK  4 active torsions:
REMARK  status: ('A' for Active; 'I' for Inactive)
REMARK    1  A    between atoms: O1_2  and  N1_3
REMARK    2  A    between atoms: N1_3  and  C2_4
REMARK    3  A    between atoms: C5_9  and  C6_10
REMARK    4  A    between atoms: C7_13  and  S1_14
ROOT
HETATM    1  C2  UNL     1      12.347   9.711  26.018  1.00  0.00     0.124 C
HETATM    2  C3  UNL     1      13.261   8.785  25.220  1.00  0.00     0.050 C
HETATM    3  C4  UNL     1      12.382   7.635  25.627  1.00  0.00     0.094 C
HETATM    4  N2  UNL     1      13.023   6.495  26.169  1.00  0.00    -0.401 N
ATOM      5  H2  UNL     1      12.996   5.595  25.690  1.00  0.00     0.154 HD
HETATM    6  C5  UNL     1      13.700   6.655  27.398  1.00  0.00     0.202 C
HETATM    7  C7  UNL     1      12.643   6.639  28.502  1.00  0.00     0.141 C
HETATM    8  S2  UNL     1      11.766   8.229  28.270  1.00  0.00    -0.142 SA
HETATM    9  C9  UNL     1      11.593   8.484  26.522  1.00  0.00     0.092 C
ENDROOT
BRANCH   1  10
HETATM   10  N1  UNL     1      11.578  10.555  25.124  1.00  0.00    -0.095 NA
BRANCH  10  11
HETATM   11  O1  UNL     1      12.437  11.171  24.264  1.00  0.00    -0.291 OA
HETATM   12  C1  UNL     1      11.685  11.612  23.179  1.00  0.00     0.231 C
ENDBRANCH  10  11
ENDBRANCH   1  10
BRANCH   7  13
HETATM   13  S1  UNL     1      13.397   6.533  30.131  1.00  0.00    -0.155 SA
HETATM   14  C8  UNL     1      13.640   8.212  30.754  1.00  0.00     0.091 C
ENDBRANCH   7  13
BRANCH   6  15
HETATM   15  C6  UNL     1      14.633   5.524  27.638  1.00  0.00     0.198 C
HETATM   16  O2  UNL     1      15.845   5.704  27.841  1.00  0.00    -0.646 OA
HETATM   17  O3  UNL     1      14.156   4.225  27.636  1.00  0.00    -0.646 OA
ENDBRANCH   6  15
TORSDOF 4
ENDMDL