MODEL 3
REMARK VINA RESULT: -6.143458256      1.419      1.986
REMARK  4 active torsions:
REMARK  status: ('A' for Active; 'I' for Inactive)
REMARK    1  A    between atoms: C2_2  and  C3_6
REMARK    2  A    between atoms: C6_9  and  C8_11
REMARK    3  A    between atoms: C8_11  and  N2_12
REMARK    4  A    between atoms: C12_17  and  O2_18
ROOT
HETATM    1  C3  UNL     1      12.295   9.022  26.432  1.00  0.00     0.166 C
HETATM    2  C4  UNL     1      12.161   7.621  25.911  1.00  0.00     0.039 C
HETATM    3  C5  UNL     1      13.293   6.729  26.322  1.00  0.00     0.016 C
HETATM    4  C6  UNL     1      13.677   6.941  27.799  1.00  0.00     0.004 C
HETATM    5  C7  UNL     1      12.520   6.860  28.715  1.00  0.00     0.019 C
HETATM    6  C13 UNL     1      14.108   8.430  27.790  1.00  0.00     0.179 C
HETATM    7  O3  UNL     1      13.006   9.167  27.568  1.00  0.00    -0.379 OA
ENDROOT
BRANCH   4   8
HETATM    8  C8  UNL     1      14.846   6.076  28.041  1.00  0.00     0.287 C
BRANCH   8   9
HETATM    9  N2  UNL     1      14.645   4.759  28.554  1.00  0.00     0.122 N
HETATM   10  C9  UNL     1      15.471   4.703  29.773  1.00  0.00     0.302 C
HETATM   11  C10 UNL     1      15.784   3.291  30.189  1.00  0.00     0.198 C
HETATM   12  O1  UNL     1      16.513   2.620  29.197  1.00  0.00    -0.385 OA
HETATM   13  C11 UNL     1      16.542   3.391  28.030  1.00  0.00     0.231 C
HETATM   14  C12 UNL     1      15.090   3.687  27.663  1.00  0.00     0.380 C
BRANCH  14  15
HETATM   15  O2  UNL     1      14.333   2.546  27.903  1.00  0.00    -0.366 OA
ATOM     16  H2  UNL     1      13.831   2.333  27.125  1.00  0.00     0.212 HD
ENDBRANCH  14  15
ENDBRANCH   8   9
ENDBRANCH   4   8
BRANCH   1  17
HETATM   17  C2  UNL     1      12.668   9.952  25.344  1.00  0.00     0.005 C
HETATM   18  C1  UNL     1      11.641  10.950  24.854  1.00  0.00     0.065 C
HETATM   19  N1  UNL     1      13.801   9.955  24.798  1.00  0.00    -0.404 N
ATOM     20  H12 UNL     1      14.059  10.596  24.047  1.00  0.00     0.155 HD
ATOM     21  H11 UNL     1      14.493   9.283  25.128  1.00  0.00     0.155 HD
ENDBRANCH   1  17
TORSDOF 4
ENDMDL