MODEL 3
REMARK VINA RESULT: -6.016332557      1.846      5.513
REMARK  6 active torsions:
REMARK  status: ('A' for Active; 'I' for Inactive)
REMARK    1  A    between atoms: C2_2  and  C3_3
REMARK    2  A    between atoms: C3_3  and  O1_4
REMARK    3  A    between atoms: O1_4  and  C4_5
REMARK    4  A    between atoms: C8_10  and  O3_11
REMARK    5  A    between atoms: C12_16  and  O4_17
REMARK    6  A    between atoms: C13_19  and  O5_20
ROOT
HETATM    1  C4  UNL     1      11.974   8.617  26.667  1.00  0.00     0.292 C
HETATM    2  O2  UNL     1      12.808   8.921  27.738  1.00  0.00    -0.353 OA
HETATM    3  C5  UNL     1      12.996   8.015  28.715  1.00  0.00     0.132 C
HETATM    4  C6  UNL     1      12.999   8.765  30.067  1.00  0.00     0.035 C
HETATM    5  C7  UNL     1      13.189   7.556  30.995  1.00  0.00     0.035 C
HETATM    6  C8  UNL     1      14.120   6.617  30.226  1.00  0.00     0.125 C
HETATM    7  C9  UNL     1      14.277   7.254  28.890  1.00  0.00     0.054 C
HETATM    8  C10 UNL     1      14.512   6.167  27.782  1.00  0.00     0.092 C
HETATM    9  C11 UNL     1      13.886   6.711  26.647  1.00  0.00    -0.148 C
HETATM   10  C12 UNL     1      13.344   6.863  25.366  1.00  0.00     0.217 C
HETATM   11  C13 UNL     1      12.677   8.250  25.359  1.00  0.00     0.213 C
ENDROOT
BRANCH   1  12
HETATM   12  O1  UNL     1      11.275   9.731  26.369  1.00  0.00    -0.358 OA
BRANCH  12  13
HETATM   13  C3  UNL     1      10.604  10.086  25.322  1.00  0.00     0.170 C
BRANCH  13  14
HETATM   14  C2  UNL     1      10.830  11.457  24.779  1.00  0.00     0.022 C
HETATM   15  C1  UNL     1      11.683  11.577  23.569  1.00  0.00     0.007 C
ENDBRANCH  13  14
ENDBRANCH  12  13
ENDBRANCH   1  12
BRANCH  11  16
HETATM   16  O5  UNL     1      13.760   9.134  25.205  1.00  0.00    -0.387 OA
ATOM     17  H5  UNL     1      13.592   9.885  25.761  1.00  0.00     0.210 HD
ENDBRANCH  11  16
BRANCH  10  18
HETATM   18  O4  UNL     1      12.369   5.969  24.904  1.00  0.00    -0.381 OA
ATOM     19  H4  UNL     1      11.864   6.175  24.126  1.00  0.00     0.211 HD
ENDBRANCH  10  18
BRANCH   6  20
HETATM   20  O3  UNL     1      13.619   5.329  30.194  1.00  0.00    -0.395 OA
ATOM     21  H3  UNL     1      14.119   4.780  29.601  1.00  0.00     0.210 HD
ENDBRANCH   6  20
TORSDOF 6
ENDMDL