MODEL 5
REMARK VINA RESULT: -5.669078746      2.598      5.766
REMARK  7 active torsions:
REMARK  status: ('A' for Active; 'I' for Inactive)
REMARK    1  A    between atoms: C2_2  and  C3_3
REMARK    2  A    between atoms: C2_2  and  O2_6
REMARK    3  A    between atoms: C3_3  and  O1_4
REMARK    4  A    between atoms: O2_6  and  C4_7
REMARK    5  A    between atoms: C4_7  and  C5_9
REMARK    6  A    between atoms: C5_9  and  O4_10
REMARK    7  A    between atoms: C10_16  and  O5_17
ROOT
HETATM    1  C5  UNL     1      12.693   8.983  25.917  1.00  0.00     0.195 C
HETATM    2  C6  UNL     1      13.805   9.352  26.873  1.00  0.00     0.061 C
HETATM    3  C7  UNL     1      14.439   8.086  27.361  1.00  0.00     0.008 C
HETATM    4  C8  UNL     1      14.068   7.747  28.781  1.00  0.00     0.037 C
HETATM    5  C9  UNL     1      12.779   8.352  29.194  1.00  0.00    -0.049 C
HETATM    6  C10 UNL     1      12.788   8.940  30.368  1.00  0.00     0.134 C
HETATM    7  C11 UNL     1      11.460   8.420  28.517  1.00  0.00     0.113 C
HETATM    8  S1  UNL     1      11.521   7.935  26.796  1.00  0.00    -0.117 SA
ENDROOT
BRANCH   1   9
HETATM    9  C4  UNL     1      12.044  10.165  25.321  1.00  0.00     0.304 C
HETATM   10  O3  UNL     1      12.415  10.527  24.179  1.00  0.00    -0.261 OA
BRANCH   9  11
HETATM   11  O2  UNL     1      11.060  10.903  25.921  1.00  0.00    -0.311 OA
BRANCH  11  12
HETATM   12  C2  UNL     1       9.889  11.351  25.356  1.00  0.00     0.151 C
HETATM   13  C1  UNL     1       9.255  12.543  26.005  1.00  0.00     0.042 C
BRANCH  12  14
HETATM   14  C3  UNL     1       8.845  10.231  25.382  1.00  0.00     0.196 C
BRANCH  14  15
HETATM   15  O1  UNL     1       8.380  10.115  24.069  1.00  0.00    -0.398 OA
ATOM     16  H1  UNL     1       7.732   9.421  24.086  1.00  0.00     0.209 HD
ENDBRANCH  14  15
ENDBRANCH  12  14
ENDBRANCH  11  12
ENDBRANCH   9  11
ENDBRANCH   1   9
BRANCH   1  17
HETATM   17  O4  UNL     1      13.258   8.240  24.876  1.00  0.00    -0.370 OA
ATOM     18  H4  UNL     1      12.863   8.536  24.064  1.00  0.00     0.212 HD
ENDBRANCH   1  17
BRANCH   6  19
HETATM   19  O5  UNL     1      11.671   9.550  30.895  1.00  0.00    -0.372 OA
ATOM     20  H5  UNL     1      11.684  10.443  31.218  1.00  0.00     0.216 HD
ENDBRANCH   6  19
TORSDOF 7
ENDMDL