MODEL 3
REMARK VINA RESULT: -6.588836777      1.679      6.647
REMARK  7 active torsions:
REMARK  status: ('A' for Active; 'I' for Inactive)
REMARK    1  A    between atoms: C2_2  and  O2_4
REMARK    2  A    between atoms: O2_4  and  C3_5
REMARK    3  A    between atoms: C3_5  and  C6_8
REMARK    4  A    between atoms: C6_8  and  O4_10
REMARK    5  A    between atoms: O4_10  and  C7_11
REMARK    6  A    between atoms: C11_15  and  O5_16
REMARK    7  A    between atoms: C12_18  and  O6_19
ROOT
HETATM    1  C7  UNL     1      12.764   8.452  25.893  1.00  0.00     0.163 C
HETATM    2  C8  UNL     1      11.882   8.916  27.033  1.00  0.00     0.035 C
HETATM    3  C9  UNL     1      10.542   9.304  26.478  1.00  0.00     0.005 C
HETATM    4  C10 UNL     1      10.726  10.075  25.196  1.00  0.00     0.034 C
HETATM    5  C11 UNL     1      12.095  10.711  25.097  1.00  0.00     0.149 C
HETATM    6  C12 UNL     1      13.210   9.701  25.139  1.00  0.00     0.176 C
ENDROOT
BRANCH   1   7
HETATM    7  O4  UNL     1      13.907   7.767  26.379  1.00  0.00    -0.311 OA
BRANCH   7   8
HETATM    8  C6  UNL     1      14.024   6.394  26.364  1.00  0.00     0.294 C
HETATM    9  O3  UNL     1      13.819   5.755  25.307  1.00  0.00    -0.262 OA
BRANCH   8  10
HETATM   10  C3  UNL     1      14.391   5.638  27.586  1.00  0.00     0.150 C
HETATM   11  C4  UNL     1      13.328   6.015  28.632  1.00  0.00     0.057 C
HETATM   12  C5  UNL     1      15.707   6.115  28.134  1.00  0.00     0.057 C
BRANCH  10  13
HETATM   13  O2  UNL     1      14.300   4.263  27.424  1.00  0.00    -0.301 OA
BRANCH  13  14
HETATM   14  C2  UNL     1      14.912   3.291  28.191  1.00  0.00     0.256 C
HETATM   15  C1  UNL     1      16.140   2.579  27.729  1.00  0.00     0.126 C
HETATM   16  O1  UNL     1      14.379   3.038  29.304  1.00  0.00    -0.266 OA
ENDBRANCH  13  14
ENDBRANCH  10  13
ENDBRANCH   8  10
ENDBRANCH   7   8
ENDBRANCH   1   7
BRANCH   6  17
HETATM   17  O6  UNL     1      13.640   9.370  23.854  1.00  0.00    -0.390 OA
ATOM     18  H6  UNL     1      14.085  10.107  23.451  1.00  0.00     0.210 HD
ENDBRANCH   6  17
BRANCH   5  19
HETATM   19  O5  UNL     1      12.152  11.370  23.872  1.00  0.00    -0.393 OA
ATOM     20  H5  UNL     1      13.002  11.179  23.492  1.00  0.00     0.210 HD
ENDBRANCH   5  19
TORSDOF 7
ENDMDL