MODEL 3
REMARK VINA RESULT: -5.850040024      3.588      5.863
REMARK  6 active torsions:
REMARK  status: ('A' for Active; 'I' for Inactive)
REMARK    1  A    between atoms: C2_2  and  O1_5
REMARK    2  A    between atoms: O1_5  and  C5_6
REMARK       I    between atoms: C5_6  and  N1_8
REMARK    3  A    between atoms: N1_8  and  S1_10
REMARK    4  A    between atoms: S1_10  and  C6_11
REMARK    5  A    between atoms: C6_11  and  C7_12
REMARK    6  A    between atoms: C10_17  and  O3_18
ROOT
HETATM    1  S1  UNL     1      16.346   2.776  27.680  1.00  0.00    -0.049 SA
ENDROOT
BRANCH   1   2
HETATM    2  N1  UNL     1      17.532   4.016  28.009  1.00  0.00    -0.276 N
HETATM    3  C5  UNL     1      18.804   3.942  27.395  1.00  0.00     0.371 C
HETATM    4  O2  UNL     1      19.168   3.039  26.611  1.00  0.00    -0.238 OA
ATOM      5  H1  UNL     1      17.308   4.786  28.639  1.00  0.00     0.179 HD
BRANCH   3   6
HETATM    6  O1  UNL     1      19.718   4.943  27.681  1.00  0.00    -0.293 OA
BRANCH   6   7
HETATM    7  C2  UNL     1      19.645   6.153  26.966  1.00  0.00     0.061 C
HETATM    8  C1  UNL     1      20.588   7.134  27.670  1.00  0.00     0.046 C
HETATM    9  C3  UNL     1      18.240   6.755  27.036  1.00  0.00     0.046 C
HETATM   10  C4  UNL     1      20.094   6.044  25.543  1.00  0.00     0.046 C
ENDBRANCH   6   7
ENDBRANCH   3   6
ENDBRANCH   1   2
BRANCH   1  11
HETATM   11  C6  UNL     1      14.718   3.314  28.253  1.00  0.00     0.131 C
BRANCH  11  12
HETATM   12  C7  UNL     1      14.807   4.808  28.510  1.00  0.00     0.153 C
HETATM   13  C8  UNL     1      14.956   5.138  29.954  1.00  0.00     0.146 C
HETATM   14  N2  UNL     1      14.405   6.384  30.374  1.00  0.00    -0.414 N
HETATM   15  C9  UNL     1      14.122   7.325  29.348  1.00  0.00     0.174 C
ATOM     16  H2  UNL     1      14.223   6.589  31.356  1.00  0.00     0.153 HD
HETATM   17  C10 UNL     1      13.795   6.742  28.018  1.00  0.00     0.274 C
HETATM   18  O4  UNL     1      13.595   5.353  28.062  1.00  0.00    -0.352 OA
BRANCH  17  19
HETATM   19  O3  UNL     1      14.826   6.942  27.087  1.00  0.00    -0.370 OA
ATOM     20  H3  UNL     1      15.600   6.433  27.297  1.00  0.00     0.212 HD
ENDBRANCH  17  19
ENDBRANCH  11  12
ENDBRANCH   1  11
TORSDOF 6
ENDMDL