MODEL 5
REMARK VINA RESULT: -6.179891152      2.491      5.267
REMARK  4 active torsions:
REMARK  status: ('A' for Active; 'I' for Inactive)
REMARK    1  A    between atoms: C2_2  and  O1_3
REMARK    2  A    between atoms: C2_2  and  C3_5
REMARK    3  A    between atoms: N1_7  and  O2_9
REMARK    4  A    between atoms: O2_9  and  C5_10
ROOT
HETATM    1  C5  UNL     1      13.146   8.655  25.967  1.00  0.00     0.169 C
HETATM    2  C6  UNL     1      13.236   9.976  25.269  1.00  0.00     0.065 C
HETATM    3  C7  UNL     1      12.745   7.600  24.933  1.00  0.00     0.065 C
HETATM    4  C8  UNL     1      12.054   8.678  26.952  1.00  0.00     0.099 C
HETATM    5  N2  UNL     1      11.188   8.694  27.732  1.00  0.00    -0.194 NA
ENDROOT
BRANCH   1   6
HETATM    6  O2  UNL     1      14.306   8.269  26.633  1.00  0.00    -0.255 OA
BRANCH   6   7
HETATM    7  N1  UNL     1      14.416   7.909  27.933  1.00  0.00    -0.268 N
HETATM    8  C4  UNL     1      14.409   6.674  28.249  1.00  0.00     0.067 C
HETATM    9  C3  UNL     1      14.521   6.144  29.627  1.00  0.00     0.096 C
HETATM   10  C9  UNL     1      14.295   5.469  27.390  1.00  0.00     0.271 C
HETATM   11  C12 UNL     1      14.322   4.639  29.410  1.00  0.00     0.143 C
HETATM   12  C11 UNL     1      15.616   3.897  29.325  1.00  0.00     0.108 C
HETATM   13  O3  UNL     1      13.618   4.561  28.215  1.00  0.00    -0.355 OA
HETATM   14  C10 UNL     1      16.388   4.397  28.153  1.00  0.00     0.075 C
HETATM   15  N3  UNL     1      15.647   5.031  27.127  1.00  0.00    -0.349 N
HETATM   16  N4  UNL     1      17.674   4.248  28.098  1.00  0.00    -0.389 N
ATOM     17  H3  UNL     1      16.065   5.177  26.208  1.00  0.00     0.163 HD
ATOM     18  H42 UNL     1      18.202   4.590  27.295  1.00  0.00     0.157 HD
ATOM     19  H41 UNL     1      18.208   3.792  28.837  1.00  0.00     0.157 HD
ATOM     20  H1  UNL     1      14.502   8.623  28.657  1.00  0.00     0.194 HD
BRANCH   9  21
HETATM   21  C2  UNL     1      13.367   6.592  30.502  1.00  0.00     0.126 C
HETATM   22  C1  UNL     1      13.591   7.920  31.145  1.00  0.00     0.040 C
BRANCH  21  23
HETATM   23  O1  UNL     1      12.200   6.532  29.742  1.00  0.00    -0.395 OA
ATOM     24  H1  UNL     1      11.830   7.384  29.546  1.00  0.00     0.210 HD
ENDBRANCH  21  23
ENDBRANCH   9  21
ENDBRANCH   6   7
ENDBRANCH   1   6
TORSDOF 4
ENDMDL