MODEL 4
REMARK VINA RESULT: -6.530233597      0.916      1.456
REMARK  5 active torsions:
REMARK  status: ('A' for Active; 'I' for Inactive)
REMARK    1  A    between atoms: C2_2  and  O1_3
REMARK    2  A    between atoms: C2_2  and  C11_18
REMARK    3  A    between atoms: O1_3  and  C3_4
REMARK    4  A    between atoms: C7_8  and  O2_9
REMARK    5  A    between atoms: C8_11  and  O3_12
ROOT
HETATM    1  C3  UNL     1      13.976   9.261  27.352  1.00  0.00     0.146 C
HETATM    2  C4  UNL     1      14.271   8.389  28.270  1.00  0.00    -0.046 C
HETATM    3  C5  UNL     1      14.355   8.879  29.693  1.00  0.00     0.039 C
HETATM    4  C6  UNL     1      13.565   8.000  30.599  1.00  0.00     0.041 C
HETATM    5  C7  UNL     1      13.864   6.512  30.357  1.00  0.00     0.184 C
HETATM    6  C8  UNL     1      13.492   6.241  28.959  1.00  0.00     0.231 C
HETATM    7  O4  UNL     1      13.657   4.992  28.462  1.00  0.00    -0.197 OA
HETATM    8  O5  UNL     1      13.967   5.011  27.208  1.00  0.00    -0.237 OA
HETATM    9  C9  UNL     1      14.122   6.346  26.798  1.00  0.00     0.225 C
HETATM   10  C10 UNL     1      14.538   6.975  28.089  1.00  0.00     0.111 C
ENDROOT
BRANCH   1  11
HETATM   11  O1  UNL     1      13.875   8.909  26.006  1.00  0.00    -0.316 OA
BRANCH  11  12
HETATM   12  C2  UNL     1      12.902   9.451  25.191  1.00  0.00     0.141 C
HETATM   13  C1  UNL     1      13.301  10.011  24.060  1.00  0.00     0.058 C
BRANCH  12  14
HETATM   14  C11 UNL     1      11.510   9.398  25.573  1.00  0.00     0.233 C
HETATM   15  O6  UNL     1      10.727  10.272  25.153  1.00  0.00    -0.642 OA
HETATM   16  O7  UNL     1      11.058   8.393  26.392  1.00  0.00    -0.642 OA
ENDBRANCH  12  14
ENDBRANCH  11  12
ENDBRANCH   1  11
BRANCH   6  17
HETATM   17  O3  UNL     1      12.218   6.697  28.629  1.00  0.00    -0.361 OA
ATOM     18  H3  UNL     1      11.588   5.997  28.506  1.00  0.00     0.213 HD
ENDBRANCH   6  17
BRANCH   5  19
HETATM   19  O2  UNL     1      12.992   5.818  31.202  1.00  0.00    -0.390 OA
ATOM     20  H2  UNL     1      12.590   6.483  31.749  1.00  0.00     0.210 HD
ENDBRANCH   5  19
TORSDOF 5
ENDMDL