MODEL 2
REMARK VINA RESULT: -7.532594420      1.074      1.626
REMARK  6 active torsions:
REMARK  status: ('A' for Active; 'I' for Inactive)
REMARK    1  A    between atoms: O1_1  and  N1_3
REMARK    2  A    between atoms: C1_5  and  O2_6
REMARK    3  A    between atoms: C1_5  and  C2_8
REMARK    4  A    between atoms: N2_10  and  C3_11
REMARK    5  A    between atoms: C3_11  and  C4_12
REMARK    6  A    between atoms: C12_21  and  O5_22
ROOT
HETATM    1  C2  UNL     1      15.743   6.247  28.056  1.00  0.00     0.253 C
HETATM    2  O3  UNL     1      15.426   7.377  27.346  1.00  0.00    -0.284 OA
HETATM    3  N2  UNL     1      14.111   7.752  27.493  1.00  0.00    -0.164 NA
HETATM    4  C10 UNL     1      13.299   6.640  27.393  1.00  0.00     0.253 C
HETATM    5  O4  UNL     1      13.495   5.855  28.565  1.00  0.00    -0.355 OA
HETATM    6  C11 UNL     1      14.579   5.289  27.945  1.00  0.00     0.195 C
HETATM    7  C12 UNL     1      13.918   5.481  26.626  1.00  0.00     0.195 C
ENDROOT
BRANCH   1   8
HETATM    8  C1  UNL     1      16.985   5.649  27.543  1.00  0.00     0.170 C
HETATM    9  N1  UNL     1      17.359   4.484  27.918  1.00  0.00    -0.249 N
ATOM     10  H1  UNL     1      16.771   3.982  28.582  1.00  0.00     0.196 HD
BRANCH   9  11
HETATM   11  O1  UNL     1      18.502   3.869  27.481  1.00  0.00    -0.288 OA
ATOM     12  H1  UNL     1      18.843   3.946  26.597  1.00  0.00     0.244 HD
ENDBRANCH   9  11
BRANCH   8  13
HETATM   13  O2  UNL     1      17.760   6.348  26.648  1.00  0.00    -0.346 OA
ATOM     14  H2  UNL     1      17.347   6.982  26.072  1.00  0.00     0.219 HD
ENDBRANCH   8  13
ENDBRANCH   1   8
BRANCH   3  15
HETATM   15  C3  UNL     1      13.934   8.958  26.853  1.00  0.00     0.128 C
BRANCH  15  16
HETATM   16  C4  UNL     1      12.790   9.229  25.960  1.00  0.00     0.001 C
HETATM   17  C5  UNL     1      13.078  10.219  24.907  1.00  0.00     0.006 C
HETATM   18  C6  UNL     1      11.923  11.002  24.388  1.00  0.00     0.000 C
HETATM   19  C7  UNL     1      10.567  10.663  24.845  1.00  0.00     0.000 C
HETATM   20  C8  UNL     1      10.420   9.520  25.789  1.00  0.00     0.000 C
HETATM   21  C9  UNL     1      11.553   9.629  26.789  1.00  0.00     0.006 C
ENDBRANCH  15  16
ENDBRANCH   3  15
BRANCH   7  22
HETATM   22  O5  UNL     1      14.687   5.950  25.593  1.00  0.00    -0.389 OA
ATOM     23  H5  UNL     1      14.769   6.896  25.645  1.00  0.00     0.210 HD
ENDBRANCH   7  22
TORSDOF 6
ENDMDL