MODEL 5
REMARK VINA RESULT: -5.483492217      2.433      7.926
REMARK  5 active torsions:
REMARK  status: ('A' for Active; 'I' for Inactive)
REMARK    1  A    between atoms: N1_1  and  C1_5
REMARK    2  A    between atoms: C1_5  and  C2_6
REMARK    3  A    between atoms: C2_6  and  N2_7
REMARK    4  A    between atoms: N2_7  and  C3_9
REMARK    5  A    between atoms: C6_12  and  C7_13
ROOT
HETATM    1  C3  UNL     1      14.052  -0.718  21.053  1.00  0.00     0.100 A
HETATM    2  C4  UNL     1      13.822  -2.014  21.422  1.00  0.00     0.049 A
HETATM    3  C5  UNL     1      12.801  -2.731  20.841  1.00  0.00     0.017 A
HETATM    4  C6  UNL     1      11.998  -2.154  19.882  1.00  0.00    -0.010 A
HETATM    5  C12 UNL     1      12.269  -0.855  19.548  1.00  0.00     0.102 A
HETATM    6  N4  UNL     1      13.259  -0.142  20.103  1.00  0.00    -0.352 N
ATOM      7  H4  UNL     1      13.418   0.823  19.818  1.00  0.00     0.166 HD
ENDROOT
BRANCH   1   8
HETATM    8  N2  UNL     1      15.011  -0.055  21.603  1.00  0.00    -0.375 N
ATOM      9  H2  UNL     1      15.750  -0.534  22.119  1.00  0.00     0.161 HD
BRANCH   8  10
HETATM   10  C2  UNL     1      15.015   1.384  21.471  1.00  0.00     0.148 C
BRANCH  10  11
HETATM   11  C1  UNL     1      15.781   1.920  22.686  1.00  0.00     0.249 C
BRANCH  11  12
HETATM   12  N1  UNL     1      15.402   3.315  22.824  1.00  0.00    -0.078 N
ATOM     13  H13 UNL     1      14.926   3.689  22.003  1.00  0.00     0.274 HD
ATOM     14  H12 UNL     1      14.643   3.464  23.489  1.00  0.00     0.274 HD
ATOM     15  H11 UNL     1      16.255   3.821  23.063  1.00  0.00     0.274 HD
ENDBRANCH  11  12
ENDBRANCH  10  11
ENDBRANCH   8  10
ENDBRANCH   1   8
BRANCH   4  16
HETATM   16  C7  UNL     1      10.898  -2.908  19.249  1.00  0.00    -0.022 A
HETATM   17  C8  UNL     1      11.024  -4.256  18.980  1.00  0.00     0.029 A
HETATM   18  C9  UNL     1       9.988  -4.947  18.389  1.00  0.00     0.088 A
HETATM   19  N3  UNL     1       8.855  -4.300  18.075  1.00  0.00    -0.375 N
HETATM   20  C10 UNL     1       8.663  -2.993  18.306  1.00  0.00     0.088 A
ATOM     21  H3  UNL     1       8.101  -4.829  17.638  1.00  0.00     0.164 HD
HETATM   22  C11 UNL     1       9.710  -2.298  18.904  1.00  0.00     0.029 A
ENDBRANCH   4  16
TORSDOF 5
ENDMDL