MODEL 1
REMARK VINA RESULT: -5.552484291      0.000      0.000
REMARK  3 active torsions:
REMARK  status: ('A' for Active; 'I' for Inactive)
REMARK    1  A    between atoms: O1_2  and  C2_3
REMARK    2  A    between atoms: C4_5  and  C5_6
REMARK    3  A    between atoms: C10_13  and  O2_14
ROOT
HETATM    1  C2  UNL     1      13.062  -0.579  20.909  1.00  0.00     0.120 A
HETATM    2  C3  UNL     1      13.820   0.578  20.989  1.00  0.00     0.054 A
HETATM    3  C4  UNL     1      14.809   0.722  21.980  1.00  0.00    -0.016 A
HETATM    4  C8  UNL     1      14.966  -0.325  22.836  1.00  0.00     0.104 A
HETATM    5  N2  UNL     1      14.236  -1.464  22.777  1.00  0.00    -0.339 N
HETATM    6  C9  UNL     1      14.457  -2.528  23.720  1.00  0.00     0.158 C
HETATM    7  C10 UNL     1      13.307  -1.583  21.832  1.00  0.00     0.177 A
ENDROOT
BRANCH   3   8
HETATM    8  C5  UNL     1      15.540   1.975  22.013  1.00  0.00     0.034 C
HETATM    9  C6  UNL     1      15.396   2.828  23.004  1.00  0.00     0.021 C
HETATM   10  C7  UNL     1      16.165   4.138  23.020  1.00  0.00     0.065 C
HETATM   11  N1  UNL     1      14.556   2.602  24.121  1.00  0.00    -0.107 NA
ENDBRANCH   3   8
BRANCH   1  12
HETATM   12  O1  UNL     1      12.083  -0.756  19.946  1.00  0.00    -0.352 OA
HETATM   13  C1  UNL     1      12.382  -0.512  18.592  1.00  0.00     0.210 C
ENDBRANCH   1  12
BRANCH   7  14
HETATM   14  O2  UNL     1      12.551  -2.731  21.752  1.00  0.00    -0.339 OA
HETATM   15  C11 UNL     1      12.908  -3.737  20.829  1.00  0.00     0.211 C
ENDBRANCH   7  14
TORSDOF 3
ENDMDL