MODEL 5
REMARK VINA RESULT: -6.260680317      2.046      3.229
REMARK  3 active torsions:
REMARK  status: ('A' for Active; 'I' for Inactive)
REMARK    1  A    between atoms: C1_1  and  C10_16
REMARK    2  A    between atoms: N1_2  and  N2_4
REMARK    3  A    between atoms: N2_4  and  C2_6
ROOT
HETATM    1  N2  UNL     1      12.021  -1.137  22.248  1.00  0.00    -0.303 N
ATOM      2  H2  UNL     1      11.857  -1.355  23.231  1.00  0.00     0.186 HD
ENDROOT
BRANCH   1   3
HETATM    3  N1  UNL     1      11.074  -1.530  21.341  1.00  0.00    -0.309 N
HETATM    4  C1  UNL     1      11.132  -2.550  20.568  1.00  0.00     0.136 C
ATOM      5  H1  UNL     1      10.237  -0.951  21.273  1.00  0.00     0.186 HD
BRANCH   4   6
HETATM    6  C10 UNL     1      10.023  -2.818  19.659  1.00  0.00     0.049 A
HETATM    7  C11 UNL     1       9.154  -3.886  19.706  1.00  0.00     0.032 A
HETATM    8  C12 UNL     1       8.256  -3.788  18.692  1.00  0.00     0.019 A
HETATM    9  C13 UNL     1       8.584  -2.637  18.011  1.00  0.00     0.088 A
HETATM   10  N4  UNL     1       9.644  -2.074  18.608  1.00  0.00    -0.365 N
ATOM     11  H4  UNL     1      10.095  -1.210  18.309  1.00  0.00     0.165 HD
ENDBRANCH   4   6
ENDBRANCH   1   3
BRANCH   1  12
HETATM   12  C2  UNL     1      13.235  -0.435  21.906  1.00  0.00     0.056 A
HETATM   13  C3  UNL     1      14.233  -0.212  22.742  1.00  0.00     0.016 A
HETATM   14  C4  UNL     1      14.396  -0.561  24.088  1.00  0.00     0.016 A
HETATM   15  C8  UNL     1      15.244   0.481  22.113  1.00  0.00     0.040 A
HETATM   16  C5  UNL     1      15.520  -0.240  24.808  1.00  0.00     0.001 A
HETATM   17  C6  UNL     1      16.515   0.449  24.169  1.00  0.00     0.002 A
HETATM   18  C7  UNL     1      16.385   0.807  22.846  1.00  0.00     0.030 A
HETATM   19  N3  UNL     1      14.931   0.716  20.889  1.00  0.00    -0.383 N
HETATM   20  C9  UNL     1      13.628   0.160  20.634  1.00  0.00     0.179 A
ATOM     21  H3  UNL     1      15.509   1.214  20.211  1.00  0.00     0.160 HD
ENDBRANCH   1  12
TORSDOF 3
ENDMDL