MODEL 2
REMARK VINA RESULT: -5.860201473      2.675      6.406
REMARK  4 active torsions:
REMARK  status: ('A' for Active; 'I' for Inactive)
REMARK    1  A    between atoms: O1_2  and  C2_3
REMARK    2  A    between atoms: N3_8  and  O2_9
REMARK    3  A    between atoms: C4_11  and  C5_12
REMARK    4  A    between atoms: C6_13  and  C7_14
ROOT
HETATM    1  C2  UNL     1      13.830   0.004  23.046  1.00  0.00     0.174 A
HETATM    2  N1  UNL     1      14.699   0.984  23.337  1.00  0.00    -0.307 N
ATOM      3  H1  UNL     1      14.928   1.310  24.275  1.00  0.00     0.170 HD
HETATM    4  C3  UNL     1      15.219   1.466  22.205  1.00  0.00     0.221 A
HETATM    5  N2  UNL     1      16.173   2.508  22.068  1.00  0.00    -0.061 NA
HETATM    6  N3  UNL     1      14.648   0.759  21.191  1.00  0.00    -0.191 N
HETATM    7  C4  UNL     1      13.785  -0.155  21.662  1.00  0.00     0.116 A
ENDROOT
BRANCH   7   8
HETATM    8  C5  UNL     1      12.950  -1.129  20.973  1.00  0.00     0.039 C
HETATM    9  C6  UNL     1      11.914  -0.805  20.219  1.00  0.00     0.032 C
BRANCH   9  10
HETATM   10  C7  UNL     1      11.145  -1.879  19.572  1.00  0.00     0.032 A
HETATM   11  C8  UNL     1      11.559  -3.198  19.508  1.00  0.00     0.031 A
HETATM   12  C9  UNL     1      10.555  -3.861  18.824  1.00  0.00     0.019 A
HETATM   13  C10 UNL     1       9.568  -2.959  18.487  1.00  0.00     0.088 A
HETATM   14  N4  UNL     1       9.955  -1.765  18.954  1.00  0.00    -0.366 N
ATOM     15  H4  UNL     1       9.426  -0.899  18.856  1.00  0.00     0.165 HD
ENDBRANCH   9  10
ENDBRANCH   7   8
BRANCH   1  16
HETATM   16  O1  UNL     1      13.081  -0.750  23.965  1.00  0.00    -0.339 OA
HETATM   17  C1  UNL     1      12.723  -0.166  25.194  1.00  0.00     0.211 C
ENDBRANCH   1  16
BRANCH   6  18
HETATM   18  O2  UNL     1      14.947   0.985  19.876  1.00  0.00    -0.280 OA
ATOM     19  H2  UNL     1      14.309   1.320  19.257  1.00  0.00     0.245 HD
ENDBRANCH   6  18
TORSDOF 4
ENDMDL