MODEL 5
REMARK VINA RESULT: -5.846315278      1.874      3.452
REMARK  5 active torsions:
REMARK  status: ('A' for Active; 'I' for Inactive)
REMARK    1  A    between atoms: N1_1  and  C1_5
REMARK    2  A    between atoms: C1_5  and  C2_6
REMARK    3  A    between atoms: C2_6  and  N2_7
REMARK    4  A    between atoms: N2_7  and  C3_9
REMARK    5  A    between atoms: C5_11  and  C6_12
ROOT
HETATM    1  C3  UNL     1      14.398  -1.967  21.813  1.00  0.00     0.103 A
HETATM    2  C4  UNL     1      14.907  -0.874  22.502  1.00  0.00     0.078 A
HETATM    3  C5  UNL     1      14.532   0.434  22.218  1.00  0.00     0.046 A
HETATM    4  N3  UNL     1      13.633   0.637  21.230  1.00  0.00    -0.352 N
ATOM      5  H3  UNL     1      13.330   1.582  20.993  1.00  0.00     0.166 HD
HETATM    6  C12 UNL     1      13.141  -0.422  20.563  1.00  0.00     0.182 A
HETATM    7  N4  UNL     1      13.510  -1.692  20.844  1.00  0.00    -0.339 N
ATOM      8  H4  UNL     1      13.104  -2.459  20.307  1.00  0.00     0.168 HD
ENDROOT
BRANCH   1   9
HETATM    9  N2  UNL     1      14.763  -3.167  22.096  1.00  0.00    -0.375 N
ATOM     10  H2  UNL     1      15.599  -3.284  22.670  1.00  0.00     0.161 HD
BRANCH   9  11
HETATM   11  C2  UNL     1      14.086  -4.347  21.668  1.00  0.00     0.148 C
BRANCH  11  12
HETATM   12  C1  UNL     1      14.672  -5.622  22.240  1.00  0.00     0.249 C
BRANCH  12  13
HETATM   13  N1  UNL     1      15.618  -6.225  21.335  1.00  0.00    -0.078 N
ATOM     14  H13 UNL     1      15.895  -5.575  20.599  1.00  0.00     0.274 HD
ATOM     15  H12 UNL     1      16.527  -6.357  21.780  1.00  0.00     0.274 HD
ATOM     16  H11 UNL     1      15.263  -7.099  20.946  1.00  0.00     0.274 HD
ENDBRANCH  12  13
ENDBRANCH  11  12
ENDBRANCH   9  11
ENDBRANCH   1   9
BRANCH   3  17
HETATM   17  C6  UNL     1      15.083   1.553  22.956  1.00  0.00    -0.009 A
HETATM   18  C7  UNL     1      15.454   2.730  22.370  1.00  0.00     0.013 A
HETATM   19  C8  UNL     1      15.984   3.798  23.106  1.00  0.00     0.001 A
HETATM   20  C9  UNL     1      16.147   3.688  24.462  1.00  0.00     0.000 A
HETATM   21  C10 UNL     1      15.786   2.527  25.076  1.00  0.00     0.001 A
HETATM   22  C11 UNL     1      15.256   1.467  24.319  1.00  0.00     0.013 A
ENDBRANCH   3  17
TORSDOF 5
ENDMDL