MODEL 1
REMARK VINA RESULT: -6.218711135      0.000      0.000
REMARK  4 active torsions:
REMARK  status: ('A' for Active; 'I' for Inactive)
REMARK    1  A    between atoms: N1_6  and  C5_8
REMARK    2  A    between atoms: C5_8  and  C6_9
REMARK    3  A    between atoms: C6_9  and  N2_10
REMARK    4  A    between atoms: N2_10  and  C7_12
ROOT
HETATM    1  C5  UNL     1      13.274  -0.500  21.515  1.00  0.00     0.143 C
ENDROOT
BRANCH   1   2
HETATM    2  N1  UNL     1      12.088  -0.363  20.714  1.00  0.00    -0.354 N
HETATM    3  C4  UNL     1      11.587  -1.336  20.018  1.00  0.00     0.224 A
HETATM    4  O1  UNL     1      10.508  -1.201  19.292  1.00  0.00    -0.290 OA
HETATM    5  N4  UNL     1      12.037  -2.604  19.902  1.00  0.00    -0.324 N
HETATM    6  C3  UNL     1      10.222  -2.334  18.694  1.00  0.00     0.170 A
HETATM    7  C2  UNL     1      11.192  -3.231  19.079  1.00  0.00     0.031 A
HETATM    8  C1  UNL     1      11.348  -4.664  18.696  1.00  0.00     0.070 C
ATOM      9  H4  UNL     1      12.860  -3.004  20.354  1.00  0.00     0.169 HD
ATOM     10  H1  UNL     1      11.618   0.542  20.692  1.00  0.00     0.163 HD
ENDBRANCH   1   2
BRANCH   1  11
HETATM   11  C6  UNL     1      14.397   0.374  21.002  1.00  0.00     0.141 C
BRANCH  11  12
HETATM   12  N2  UNL     1      15.531   0.344  21.907  1.00  0.00    -0.375 N
ATOM     13  H2  UNL     1      16.196  -0.428  21.892  1.00  0.00     0.161 HD
BRANCH  12  14
HETATM   14  C7  UNL     1      15.668   1.327  22.731  1.00  0.00     0.100 A
HETATM   15  C8  UNL     1      15.684   2.652  22.303  1.00  0.00     0.048 A
HETATM   16  C9  UNL     1      15.830   3.710  23.173  1.00  0.00     0.005 A
HETATM   17  C10 UNL     1      15.962   3.406  24.512  1.00  0.00     0.017 A
HETATM   18  C11 UNL     1      15.946   2.086  24.935  1.00  0.00     0.089 A
HETATM   19  N3  UNL     1      15.802   1.084  24.050  1.00  0.00    -0.353 N
ATOM     20  H3  UNL     1      15.793   0.121  24.384  1.00  0.00     0.166 HD
ENDBRANCH  12  14
ENDBRANCH  11  12
ENDBRANCH   1  11
TORSDOF 4
ENDMDL