MODEL 5
REMARK VINA RESULT: -6.083468580      2.326      3.460
REMARK  3 active torsions:
REMARK  status: ('A' for Active; 'I' for Inactive)
REMARK    1  A    between atoms: O1_3  and  C3_4
REMARK    2  A    between atoms: C7_8  and  C8_9
REMARK    3  A    between atoms: C8_9  and  C9_10
ROOT
HETATM    1  C1  UNL     1      15.580   2.376  22.477  1.00  0.00     0.045 C
HETATM    2  C2  UNL     1      15.155   1.724  21.555  1.00  0.00     0.049 C
HETATM    3  O1  UNL     1      14.669   0.972  20.527  1.00  0.00    -0.262 OA
ENDROOT
BRANCH   3   4
HETATM    4  C3  UNL     1      13.977  -0.214  20.720  1.00  0.00     0.087 A
HETATM    5  C4  UNL     1      14.496  -1.127  21.614  1.00  0.00     0.038 A
HETATM    6  C5  UNL     1      13.827  -2.338  21.839  1.00  0.00     0.003 A
HETATM    7  C6  UNL     1      12.660  -2.613  21.168  1.00  0.00     0.007 A
HETATM    8  C7  UNL     1      12.126  -1.716  20.271  1.00  0.00    -0.048 A
HETATM    9  C11 UNL     1      12.801  -0.526  20.065  1.00  0.00     0.045 A
BRANCH   8  10
HETATM   10  C8  UNL     1      10.863  -1.987  19.531  1.00  0.00     0.116 C
BRANCH  10  11
HETATM   11  C9  UNL     1       9.682  -1.874  20.421  1.00  0.00     0.104 A
HETATM   12  N1  UNL     1       8.683  -2.762  20.572  1.00  0.00    -0.295 N
HETATM   13  C10 UNL     1       7.805  -2.290  21.473  1.00  0.00     0.340 A
ATOM     14  H1  UNL     1       8.606  -3.653  20.081  1.00  0.00     0.172 HD
HETATM   15  O2  UNL     1       6.742  -2.780  21.911  1.00  0.00    -0.245 OA
HETATM   16  N2  UNL     1       8.270  -1.088  21.885  1.00  0.00    -0.250 N
HETATM   17  N3  UNL     1       9.402  -0.852  21.242  1.00  0.00    -0.285 N
ATOM     18  H2  UNL     1       7.827  -0.474  22.568  1.00  0.00     0.192 HD
ATOM     19  H3  UNL     1       9.977  -0.016  21.355  1.00  0.00     0.188 HD
ENDBRANCH  10  11
ENDBRANCH   8  10
ENDBRANCH   3   4
TORSDOF 3
ENDMDL