MODEL 5
REMARK VINA RESULT: -5.233950381      2.852      6.172
REMARK  4 active torsions:
REMARK  status: ('A' for Active; 'I' for Inactive)
REMARK    1  A    between atoms: N1_2  and  C3_4
REMARK    2  A    between atoms: C6_7  and  C7_8
REMARK    3  A    between atoms: N2_9  and  N3_11
REMARK    4  A    between atoms: N3_11  and  C8_13
ROOT
HETATM    1  C3  UNL     1      13.635  -1.391  21.124  1.00  0.00     0.029 A
HETATM    2  C4  UNL     1      14.752  -1.467  21.922  1.00  0.00     0.030 A
HETATM    3  C5  UNL     1      15.500  -0.366  22.231  1.00  0.00     0.015 A
HETATM    4  C6  UNL     1      15.160   0.905  21.741  1.00  0.00    -0.019 A
HETATM    5  C9  UNL     1      14.045   0.982  20.944  1.00  0.00     0.015 A
HETATM    6  C10 UNL     1      13.297  -0.152  20.644  1.00  0.00     0.030 A
ENDROOT
BRANCH   4   7
HETATM    7  C7  UNL     1      15.988   2.061  22.095  1.00  0.00     0.118 C
HETATM    8  N2  UNL     1      15.845   2.850  23.026  1.00  0.00    -0.309 N
ATOM      9  H2  UNL     1      16.577   3.560  23.029  1.00  0.00     0.186 HD
BRANCH   8  10
HETATM   10  N3  UNL     1      14.993   3.023  24.026  1.00  0.00    -0.279 N
ATOM     11  H3  UNL     1      14.407   3.858  24.038  1.00  0.00     0.189 HD
BRANCH  10  12
HETATM   12  C8  UNL     1      14.870   2.073  25.091  1.00  0.00     0.199 C
HETATM   13  N4  UNL     1      13.564   1.708  25.502  1.00  0.00    -0.068 NA
HETATM   14  S1  UNL     1      16.183   1.428  25.811  1.00  0.00    -0.043 SA
ENDBRANCH  10  12
ENDBRANCH   8  10
ENDBRANCH   4   7
BRANCH   1  15
HETATM   15  N1  UNL     1      12.873  -2.547  20.817  1.00  0.00    -0.390 N
HETATM   16  C1  UNL     1      13.307  -3.821  21.291  1.00  0.00     0.149 C
HETATM   17  C2  UNL     1      11.671  -2.393  20.027  1.00  0.00     0.149 C
ENDBRANCH   1  15
TORSDOF 4
ENDMDL