MODEL 5
REMARK VINA RESULT: -5.565148812      2.349      4.264
REMARK  4 active torsions:
REMARK  status: ('A' for Active; 'I' for Inactive)
REMARK    1  A    between atoms: N1_1  and  N2_4
REMARK    2  A    between atoms: C1_6  and  C2_7
REMARK    3  A    between atoms: N4_13  and  C6_14
REMARK    4  A    between atoms: C6_14  and  C7_15
ROOT
HETATM    1  C2  UNL     1      11.960  -2.768  20.485  1.00  0.00     0.067 A
HETATM    2  C3  UNL     1      12.099  -3.932  19.728  1.00  0.00     0.118 A
HETATM    3  N3  UNL     1      12.918  -4.906  20.227  1.00  0.00    -0.372 N
ATOM      4  H3  UNL     1      13.037  -5.767  19.693  1.00  0.00     0.164 HD
HETATM    5  C4  UNL     1      13.564  -4.774  21.381  1.00  0.00     0.104 A
HETATM    6  C5  UNL     1      13.403  -3.626  22.087  1.00  0.00     0.108 A
HETATM    7  N4  UNL     1      12.616  -2.642  21.644  1.00  0.00    -0.349 N
ENDROOT
BRANCH   7   8
HETATM    8  C6  UNL     1      12.549  -1.457  22.435  1.00  0.00     0.167 C
BRANCH   8   9
HETATM    9  C7  UNL     1      13.704  -0.559  22.360  1.00  0.00    -0.040 A
HETATM   10  C8  UNL     1      14.708  -0.635  23.329  1.00  0.00     0.009 A
HETATM   11  C9  UNL     1      15.819   0.201  23.306  1.00  0.00     0.001 A
HETATM   12  C10 UNL     1      15.970   1.146  22.314  1.00  0.00     0.000 A
HETATM   13  C11 UNL     1      14.993   1.236  21.352  1.00  0.00     0.001 A
HETATM   14  C12 UNL     1      13.881   0.385  21.392  1.00  0.00     0.009 A
ENDBRANCH   8   9
ENDBRANCH   7   8
BRANCH   1  15
HETATM   15  C1  UNL     1      11.065  -1.751  19.961  1.00  0.00     0.137 C
HETATM   16  N2  UNL     1      11.202  -0.958  19.038  1.00  0.00    -0.316 N
ATOM     17  H2  UNL     1      10.366  -0.380  18.944  1.00  0.00     0.185 HD
BRANCH  16  18
HETATM   18  N1  UNL     1      12.108  -0.617  18.115  1.00  0.00    -0.345 N
ATOM     19  H12 UNL     1      12.983  -1.098  18.322  1.00  0.00     0.176 HD
ATOM     20  H11 UNL     1      12.187  -0.031  17.283  1.00  0.00     0.176 HD
ENDBRANCH  16  18
ENDBRANCH   1  15
TORSDOF 4
ENDMDL