MODEL 1
REMARK VINA RESULT: -6.348263154      0.000      0.000
REMARK  4 active torsions:
REMARK  status: ('A' for Active; 'I' for Inactive)
REMARK    1  A    between atoms: C5_6  and  C6_7
REMARK    2  A    between atoms: C6_7  and  C7_8
REMARK    3  A    between atoms: C7_8  and  N2_9
REMARK    4  A    between atoms: N2_9  and  C8_11
ROOT
HETATM    1  N2  UNL     1      13.246  -0.027  21.734  1.00  0.00    -0.226 N
ATOM      2  H2  UNL     1      13.020   0.003  22.728  1.00  0.00     0.177 HD
ENDROOT
BRANCH   1   3
HETATM    3  C7  UNL     1      14.465   0.571  21.235  1.00  0.00     0.142 C
BRANCH   3   4
HETATM    4  C6  UNL     1      15.609   0.416  22.208  1.00  0.00     0.058 C
BRANCH   4   5
HETATM    5  C5  UNL     1      15.803   1.649  23.022  1.00  0.00    -0.055 A
HETATM    6  C4  UNL     1      15.842   2.870  22.384  1.00  0.00     0.007 A
HETATM    7  C3  UNL     1      16.021   3.981  23.181  1.00  0.00     0.002 A
HETATM    8  C2  UNL     1      16.155   3.874  24.548  1.00  0.00     0.026 A
HETATM    9  C1  UNL     1      16.115   2.645  25.192  1.00  0.00     0.046 A
HETATM   10  N1  UNL     1      16.259   2.602  26.593  1.00  0.00    -0.102 NA
HETATM   11  C12 UNL     1      15.936   1.526  24.408  1.00  0.00     0.033 A
ENDBRANCH   4   5
ENDBRANCH   3   4
ENDBRANCH   1   3
BRANCH   1  12
HETATM   12  C8  UNL     1      12.456  -0.596  20.900  1.00  0.00     0.677 A
HETATM   13  N3  UNL     1      12.685  -0.514  19.601  1.00  0.00    -0.202 N
HETATM   14  C9  UNL     1      11.921  -1.072  18.649  1.00  0.00     0.107 A
ATOM     15  H3  UNL     1      13.503   0.014  19.298  1.00  0.00     0.183 HD
HETATM   16  C10 UNL     1      10.817  -1.783  19.063  1.00  0.00     0.035 A
HETATM   17  C11 UNL     1      10.538  -1.896  20.417  1.00  0.00     0.107 A
HETATM   18  N4  UNL     1      11.371  -1.295  21.312  1.00  0.00    -0.202 N
ATOM     19  H4  UNL     1      11.174  -1.372  22.311  1.00  0.00     0.183 HD
ENDBRANCH   1  12
TORSDOF 4
ENDMDL