MODEL 4
REMARK VINA RESULT: -6.708372114      1.032      1.092
REMARK  7 active torsions:
REMARK  status: ('A' for Active; 'I' for Inactive)
REMARK    1  A    between atoms: N1_2  and  C2_4
REMARK    2  A    between atoms: C3_7  and  C4_8
REMARK    3  A    between atoms: C4_8  and  O1_10
REMARK    4  A    between atoms: C6_12  and  O2_13
REMARK    5  A    between atoms: C7_17  and  N4_18
REMARK    6  A    between atoms: C9_21  and  C10_22
REMARK    7  A    between atoms: N7_25  and  N8_26
ROOT
HETATM    1  C2  UNL     1      38.309   0.758  24.290  1.00  0.00     0.147 A
HETATM    2  N2  UNL     1      38.759  -0.507  24.253  1.00  0.00    -0.337 N
ATOM      3  H2  UNL     1      39.733  -0.707  24.482  1.00  0.00     0.167 HD
HETATM    4  C3  UNL     1      37.928  -1.509  23.916  1.00  0.00     0.091 A
HETATM    5  C6  UNL     1      36.603  -1.208  23.608  1.00  0.00     0.167 A
HETATM    6  N3  UNL     1      36.181   0.067  23.652  1.00  0.00    -0.318 N
ATOM      7  H3  UNL     1      35.207   0.266  23.422  1.00  0.00     0.169 HD
HETATM    8  C7  UNL     1      36.983   1.093  23.985  1.00  0.00     0.164 A
ENDROOT
BRANCH   8   9
HETATM    9  N4  UNL     1      36.547   2.441  24.036  1.00  0.00    -0.229 N
HETATM   10  C8  UNL     1      36.913   3.416  23.186  1.00  0.00     0.163 A
HETATM   11  N5  UNL     1      37.804   3.274  22.082  1.00  0.00    -0.079 NA
HETATM   12  C9  UNL     1      36.281   4.587  23.560  1.00  0.00     0.167 A
HETATM   13  N7  UNL     1      35.530   4.303  24.647  1.00  0.00    -0.203 N
HETATM   14  C11 UNL     1      35.704   2.978  24.927  1.00  0.00     0.355 A
HETATM   15  O4  UNL     1      35.119   2.426  25.899  1.00  0.00    -0.244 OA
BRANCH  12  16
HETATM   16  C10 UNL     1      36.407   5.873  22.905  1.00  0.00     0.287 C
HETATM   17  N6  UNL     1      35.255   6.630  22.495  1.00  0.00    -0.056 NA
HETATM   18  O3  UNL     1      37.524   6.373  22.671  1.00  0.00    -0.269 OA
ENDBRANCH  12  16
BRANCH  13  19
HETATM   19  N8  UNL     1      34.729   5.221  25.337  1.00  0.00    -0.334 N
ATOM     20  H82 UNL     1      34.960   6.184  25.581  1.00  0.00     0.177 HD
ATOM     21  H81 UNL     1      33.791   5.034  25.690  1.00  0.00     0.177 HD
ENDBRANCH  13  19
ENDBRANCH   8   9
BRANCH   1  22
HETATM   22  N1  UNL     1      39.100   1.727  24.618  1.00  0.00    -0.378 N
HETATM   23  C1  UNL     1      40.449   1.728  24.091  1.00  0.00     0.148 C
ATOM     24  H1  UNL     1      38.781   2.474  25.234  1.00  0.00     0.160 HD
ENDBRANCH   1  22
BRANCH   5  25
HETATM   25  O2  UNL     1      35.795  -2.282  23.267  1.00  0.00    -0.345 OA
ATOM     26  H2  UNL     1      34.858  -2.120  23.269  1.00  0.00     0.219 HD
ENDBRANCH   5  25
BRANCH   4  27
HETATM   27  C4  UNL     1      38.389  -2.942  23.866  1.00  0.00     0.168 C
HETATM   28  C5  UNL     1      38.348  -3.406  22.449  1.00  0.00     0.046 C
BRANCH  27  29
HETATM   29  O1  UNL     1      37.587  -3.710  24.686  1.00  0.00    -0.390 OA
ATOM     30  H1  UNL     1      38.107  -4.403  25.075  1.00  0.00     0.210 HD
ENDBRANCH  27  29
ENDBRANCH   4  27
TORSDOF 7
ENDMDL