MODEL 2
REMARK VINA RESULT: -7.556685469      1.024      1.549
REMARK  6 active torsions:
REMARK  status: ('A' for Active; 'I' for Inactive)
REMARK       I    between atoms: N1_2  and  C2_4
REMARK    1  A    between atoms: C2_4  and  C3_6
REMARK    2  A    between atoms: C3_6  and  O2_7
REMARK    3  A    between atoms: C4_9  and  N2_10
REMARK    4  A    between atoms: N2_10  and  S1_12
REMARK    5  A    between atoms: N5_18  and  N6_19
REMARK    6  A    between atoms: N7_21  and  C5_23
ROOT
HETATM    1  C3  UNL     1      37.496   1.386  23.667  1.00  0.00     0.286 C
HETATM    2  C4  UNL     1      36.854   0.040  23.997  1.00  0.00     0.275 C
HETATM    3  N3  UNL     1      36.455   0.255  25.370  1.00  0.00    -0.093 NA
HETATM    4  N4  UNL     1      36.102   1.595  25.495  1.00  0.00    -0.006 NA
HETATM    5  N5  UNL     1      36.702   2.281  24.446  1.00  0.00    -0.156 N
ENDROOT
BRANCH   5   6
HETATM    6  N6  UNL     1      36.544   3.640  24.203  1.00  0.00    -0.223 N
HETATM    7  N7  UNL     1      35.856   4.109  23.252  1.00  0.00    -0.268 N
ATOM      8  H7  UNL     1      35.371   3.493  22.600  1.00  0.00     0.190 HD
ATOM      9  H6  UNL     1      37.011   4.297  24.829  1.00  0.00     0.210 HD
BRANCH   7  10
HETATM   10  C5  UNL     1      35.778   5.523  23.120  1.00  0.00     0.151 A
HETATM   11  C6  UNL     1      34.619   6.259  23.041  1.00  0.00     0.155 A
HETATM   12  N8  UNL     1      34.977   7.558  22.924  1.00  0.00    -0.292 N
HETATM   13  N9  UNL     1      36.302   7.644  22.929  1.00  0.00    -0.021 NA
ATOM     14  H8  UNL     1      34.332   8.345  22.844  1.00  0.00     0.183 HD
HETATM   15  N10 UNL     1      36.788   6.415  23.048  1.00  0.00    -0.267 N
ATOM     16  H10 UNL     1      37.780   6.180  23.079  1.00  0.00     0.186 HD
ENDBRANCH   7  10
ENDBRANCH   5   6
BRANCH   1  17
HETATM   17  C2  UNL     1      38.929   1.397  24.050  1.00  0.00     0.280 C
HETATM   18  N1  UNL     1      39.320   1.591  25.398  1.00  0.00    -0.361 N
HETATM   19  C1  UNL     1      40.695   1.604  25.778  1.00  0.00     0.149 C
ATOM     20  H1  UNL     1      38.603   1.725  26.111  1.00  0.00     0.162 HD
HETATM   21  O1  UNL     1      39.828   1.234  23.188  1.00  0.00    -0.268 OA
ENDBRANCH   1  17
BRANCH   1  22
HETATM   22  O2  UNL     1      37.389   1.572  22.307  1.00  0.00    -0.358 OA
ATOM     23  H2  UNL     1      36.487   1.436  22.044  1.00  0.00     0.213 HD
ENDBRANCH   1  22
BRANCH   2  24
HETATM   24  N2  UNL     1      37.773  -1.038  23.821  1.00  0.00    -0.275 N
ATOM     25  H2  UNL     1      38.790  -0.965  23.845  1.00  0.00     0.176 HD
BRANCH  24  26
HETATM   26  S1  UNL     1      36.861  -2.497  23.558  1.00  0.00     0.206 S
HETATM   27  O3  UNL     1      35.510  -2.172  22.978  1.00  0.00    -0.578 OA
HETATM   28  O4  UNL     1      36.749  -3.278  24.835  1.00  0.00    -0.578 OA
HETATM   29  O5  UNL     1      37.704  -3.402  22.404  1.00  0.00    -0.578 OA
ENDBRANCH  24  26
ENDBRANCH   2  24
TORSDOF 6
ENDMDL