MODEL 4
REMARK VINA RESULT: -6.470130118      2.327      6.374
REMARK  5 active torsions:
REMARK  status: ('A' for Active; 'I' for Inactive)
REMARK    1  A    between atoms: C3_4  and  S1_5
REMARK    2  A    between atoms: S1_5  and  N2_6
REMARK    3  A    between atoms: C4_11  and  N3_12
REMARK       I    between atoms: N3_12  and  C5_14
REMARK    4  A    between atoms: C5_14  and  C6_16
REMARK    5  A    between atoms: C8_24  and  N8_25
ROOT
HETATM    1  N1  UNL     1      39.008  -2.850  22.807  1.00  0.00    -0.100 NA
HETATM    2  C1  UNL     1      38.347  -1.613  23.007  1.00  0.00     0.081 A
HETATM    3  C2  UNL     1      38.907  -0.418  22.671  1.00  0.00     0.056 A
HETATM    4  C3  UNL     1      38.287   0.800  22.854  1.00  0.00     0.107 A
HETATM    5  C4  UNL     1      37.004   0.845  23.416  1.00  0.00     0.061 A
HETATM    6  C7  UNL     1      36.430  -0.349  23.756  1.00  0.00     0.069 A
HETATM    7  C8  UNL     1      37.093  -1.563  23.555  1.00  0.00     0.129 A
ENDROOT
BRANCH   5   8
HETATM    8  N3  UNL     1      36.400   2.102  23.570  1.00  0.00    -0.319 N
HETATM    9  C5  UNL     1      35.807   2.652  24.699  1.00  0.00     0.292 C
HETATM   10  O3  UNL     1      35.748   2.034  25.776  1.00  0.00    -0.264 OA
ATOM     11  H3  UNL     1      36.394   2.692  22.738  1.00  0.00     0.169 HD
BRANCH   9  12
HETATM   12  C6  UNL     1      35.229   4.023  24.603  1.00  0.00     0.200 C
HETATM   13  N4  UNL     1      34.964   4.836  25.566  1.00  0.00    -0.266 N
HETATM   14  N5  UNL     1      34.432   6.025  25.070  1.00  0.00    -0.007 NA
ATOM     15  H4  UNL     1      35.123   4.637  26.554  1.00  0.00     0.185 HD
HETATM   16  N6  UNL     1      34.145   5.857  23.712  1.00  0.00    -0.007 NA
HETATM   17  N7  UNL     1      34.859   4.694  23.407  1.00  0.00    -0.266 N
ATOM     18  H7  UNL     1      35.081   4.374  22.464  1.00  0.00     0.185 HD
ENDBRANCH   9  12
ENDBRANCH   5   8
BRANCH   4  19
HETATM   19  S1  UNL     1      39.097   2.264  22.409  1.00  0.00     0.259 S
HETATM   20  O1  UNL     1      39.220   3.203  23.564  1.00  0.00    -0.201 OA
HETATM   21  O2  UNL     1      38.228   2.978  21.378  1.00  0.00    -0.201 OA
BRANCH  19  22
HETATM   22  N2  UNL     1      40.607   2.000  21.614  1.00  0.00    -0.324 N
ATOM     23  H22 UNL     1      41.499   2.046  22.106  1.00  0.00     0.169 HD
ATOM     24  H21 UNL     1      40.512   1.797  20.618  1.00  0.00     0.169 HD
ENDBRANCH  19  22
ENDBRANCH   4  19
BRANCH   7  25
HETATM   25  N8  UNL     1      36.422  -2.746  23.938  1.00  0.00    -0.114 N
HETATM   26  O4  UNL     1      36.676  -3.290  25.014  1.00  0.00    -0.532 OA
HETATM   27  O5  UNL     1      35.485  -3.267  23.081  1.00  0.00    -0.532 OA
ENDBRANCH   7  25
TORSDOF 5
ENDMDL