MODEL 5
REMARK VINA RESULT: -6.470655970      1.998      2.666
REMARK  8 active torsions:
REMARK  status: ('A' for Active; 'I' for Inactive)
REMARK    1  A    between atoms: C2_2  and  O1_3
REMARK    2  A    between atoms: C2_2  and  C3_5
REMARK    3  A    between atoms: C3_5  and  N1_6
REMARK    4  A    between atoms: N1_6  and  C4_8
REMARK    5  A    between atoms: N4_14  and  C6_16
REMARK    6  A    between atoms: C7_17  and  N5_18
REMARK    7  A    between atoms: N5_18  and  N6_20
REMARK    8  A    between atoms: C9_29  and  O4_31
ROOT
HETATM    1  C6  UNL     1      38.969  -1.752  22.950  1.00  0.00     0.126 A
HETATM    2  C7  UNL     1      38.525  -3.079  23.349  1.00  0.00     0.155 A
HETATM    3  N7  UNL     1      39.166  -4.139  23.071  1.00  0.00    -0.314 N
ATOM      4  H7  UNL     1      38.780  -5.029  23.388  1.00  0.00     0.170 HD
HETATM    5  C8  UNL     1      40.379  -4.162  22.351  1.00  0.00     0.192 A
HETATM    6  N8  UNL     1      41.071  -5.385  22.052  1.00  0.00    -0.063 NA
HETATM    7  N9  UNL     1      40.819  -3.021  21.982  1.00  0.00    -0.328 N
ATOM      8  H9  UNL     1      41.695  -3.033  21.460  1.00  0.00     0.165 HD
HETATM    9  C9  UNL     1      40.249  -1.738  22.203  1.00  0.00     0.178 A
HETATM   10  C10 UNL     1      41.256  -0.791  22.873  1.00  0.00     0.078 C
ENDROOT
BRANCH   1  11
HETATM   11  N4  UNL     1      38.833  -0.736  23.929  1.00  0.00    -0.185 N
HETATM   12  C5  UNL     1      37.846   0.055  24.096  1.00  0.00     0.712 A
HETATM   13  N3  UNL     1      36.691   0.174  23.441  1.00  0.00    -0.117 N
HETATM   14  N10 UNL     1      37.784   1.026  25.071  1.00  0.00    -0.020 N
HETATM   15  N2  UNL     1      35.925   1.155  23.953  1.00  0.00    -0.117 N
ATOM     16  H3  UNL     1      36.420  -0.408  22.648  1.00  0.00     0.206 HD
HETATM   17  C4  UNL     1      36.614   1.681  24.968  1.00  0.00     0.707 A
ATOM     18  H2  UNL     1      35.001   1.440  23.629  1.00  0.00     0.206 HD
ATOM     19  H10 UNL     1      38.510   1.218  25.761  1.00  0.00     0.203 HD
ATOM     20  H4  UNL     1      39.613  -0.625  24.575  1.00  0.00     0.184 HD
BRANCH  17  21
HETATM   21  N1  UNL     1      36.204   2.658  25.721  1.00  0.00    -0.222 N
ATOM     22  H1  UNL     1      36.771   2.913  26.529  1.00  0.00     0.177 HD
BRANCH  21  23
HETATM   23  C3  UNL     1      34.998   3.399  25.481  1.00  0.00     0.169 C
BRANCH  23  24
HETATM   24  C2  UNL     1      35.360   4.717  24.812  1.00  0.00     0.132 C
HETATM   25  C1  UNL     1      35.086   4.656  23.328  1.00  0.00     0.041 C
BRANCH  24  26
HETATM   26  O1  UNL     1      34.628   5.737  25.391  1.00  0.00    -0.394 OA
ATOM     27  H1  UNL     1      35.181   6.250  25.968  1.00  0.00     0.210 HD
ENDBRANCH  24  26
ENDBRANCH  23  24
ENDBRANCH  21  23
ENDBRANCH  17  21
ENDBRANCH   1  11
BRANCH   2  28
HETATM   28  N5  UNL     1      37.307  -3.279  24.101  1.00  0.00    -0.223 N
ATOM     29  H5  UNL     1      37.371  -3.370  25.114  1.00  0.00     0.195 HD
BRANCH  28  30
HETATM   30  N6  UNL     1      36.052  -3.352  23.507  1.00  0.00    -0.037 N
HETATM   31  O2  UNL     1      35.574  -2.367  22.877  1.00  0.00    -0.516 OA
HETATM   32  O3  UNL     1      35.257  -4.471  23.558  1.00  0.00    -0.516 OA
ENDBRANCH  28  30
ENDBRANCH   2  28
BRANCH   9  33
HETATM   33  O4  UNL     1      40.061  -1.198  20.891  1.00  0.00    -0.365 OA
ATOM     34  H4  UNL     1      40.813  -0.678  20.632  1.00  0.00     0.213 HD
ENDBRANCH   9  33
TORSDOF 8
ENDMDL