MODEL 3
REMARK VINA RESULT: -6.238586900      2.131      2.794
REMARK  11 active torsions:
REMARK  status: ('A' for Active; 'I' for Inactive)
REMARK    1  A    between atoms: O1_2  and  C2_3
REMARK    2  A    between atoms: C3_8  and  N3_9
REMARK    3  A    between atoms: N3_9  and  C4_11
REMARK    4  A    between atoms: C4_11  and  O2_12
REMARK    5  A    between atoms: C4_11  and  C5_14
REMARK    6  A    between atoms: C5_14  and  N4_15
REMARK    7  A    between atoms: C5_14  and  O3_19
REMARK    8  A    between atoms: C7_22  and  C8_23
REMARK    9  A    between atoms: C8_23  and  O4_24
REMARK   10  A    between atoms: C8_23  and  N5_26
REMARK   11  A    between atoms: N5_26  and  C9_28
ROOT
HETATM    1  C2  UNL     1      36.520   1.207  24.741  1.00  0.00     0.167 A
HETATM    2  N1  UNL     1      35.477   1.467  25.546  1.00  0.00    -0.278 N
ATOM      3  H1  UNL     1      35.080   0.700  26.088  1.00  0.00     0.189 HD
HETATM    4  N2  UNL     1      34.943   2.659  25.673  1.00  0.00    -0.284 N
ATOM      5  H2  UNL     1      34.151   2.817  26.295  1.00  0.00     0.188 HD
HETATM    6  C3  UNL     1      35.484   3.682  24.943  1.00  0.00     0.118 A
HETATM    7  C6  UNL     1      36.551   3.478  24.100  1.00  0.00     0.065 A
HETATM    8  C7  UNL     1      37.100   2.199  23.984  1.00  0.00     0.046 A
ENDROOT
BRANCH   6   9
HETATM    9  N3  UNL     1      34.953   4.816  25.083  1.00  0.00    -0.345 N
ATOM     10  H3  UNL     1      34.549   5.007  25.999  1.00  0.00     0.163 HD
BRANCH   9  11
HETATM   11  C4  UNL     1      34.847   5.856  24.134  1.00  0.00     0.275 C
BRANCH  11  12
HETATM   12  O2  UNL     1      35.811   6.836  24.291  1.00  0.00    -0.372 OA
ATOM     13  H2  UNL     1      35.683   7.580  23.715  1.00  0.00     0.212 HD
ENDBRANCH  11  12
BRANCH  11  14
HETATM   14  C5  UNL     1      33.433   6.414  24.022  1.00  0.00     0.365 C
BRANCH  14  15
HETATM   15  N4  UNL     1      33.043   6.835  25.359  1.00  0.00    -0.049 N
ATOM     16  H43 UNL     1      32.699   6.068  25.938  1.00  0.00     0.277 HD
ATOM     17  H42 UNL     1      33.836   7.094  25.947  1.00  0.00     0.277 HD
ATOM     18  H41 UNL     1      32.365   7.588  25.243  1.00  0.00     0.277 HD
ENDBRANCH  14  15
BRANCH  14  19
HETATM   19  O3  UNL     1      33.509   7.524  23.171  1.00  0.00    -0.367 OA
ATOM     20  H3  UNL     1      32.881   8.158  23.497  1.00  0.00     0.212 HD
ENDBRANCH  14  19
ENDBRANCH  11  14
ENDBRANCH   9  11
ENDBRANCH   6   9
BRANCH   8  21
HETATM   21  C8  UNL     1      38.240   1.923  23.100  1.00  0.00     0.257 C
BRANCH  21  22
HETATM   22  O4  UNL     1      37.861   1.196  21.960  1.00  0.00    -0.372 OA
ATOM     23  H4  UNL     1      37.242   1.674  21.422  1.00  0.00     0.212 HD
ENDBRANCH  21  22
BRANCH  21  24
HETATM   24  N5  UNL     1      39.324   1.249  23.767  1.00  0.00    -0.352 N
ATOM     25  H5  UNL     1      39.380   0.231  23.808  1.00  0.00     0.163 HD
BRANCH  24  26
HETATM   26  C9  UNL     1      40.236   2.013  24.321  1.00  0.00     0.107 A
HETATM   27  C10 UNL     1      40.787   3.175  23.851  1.00  0.00     0.146 A
HETATM   28  N6  UNL     1      41.683   3.756  24.593  1.00  0.00    -0.303 N
HETATM   29  N7  UNL     1      42.022   3.230  25.730  1.00  0.00    -0.268 N
ATOM     30  H6  UNL     1      42.119   4.624  24.281  1.00  0.00     0.186 HD
HETATM   31  S1  UNL     1      41.065   1.849  25.814  1.00  0.00     0.021 SA
ATOM     32  H7  UNL     1      42.704   3.572  26.408  1.00  0.00     0.195 HD
ENDBRANCH  24  26
ENDBRANCH  21  24
ENDBRANCH   8  21
BRANCH   1  33
HETATM   33  O1  UNL     1      37.072  -0.082  24.623  1.00  0.00    -0.339 OA
HETATM   34  C1  UNL     1      36.373  -1.074  23.904  1.00  0.00     0.211 C
ENDBRANCH   1  33
TORSDOF 11
ENDMDL