MODEL 4
REMARK VINA RESULT: -4.842953218      8.389     10.235
REMARK  8 active torsions:
REMARK  status: ('A' for Active; 'I' for Inactive)
REMARK    1  A    between atoms: C5_5  and  N1_6
REMARK    2  A    between atoms: C5_5  and  O1_10
REMARK    3  A    between atoms: C6_15  and  O2_16
REMARK    4  A    between atoms: N7_27  and  C10_28
REMARK    5  A    between atoms: C10_28  and  C11_29
REMARK    6  A    between atoms: C11_29  and  C12_30
REMARK    7  A    between atoms: C12_30  and  C13_31
REMARK    8  A    between atoms: C13_31  and  N8_32
ROOT
HETATM    1  C1  UNL     1      42.675  -4.029  30.143  1.00  0.00     0.043 C
HETATM    2  C2  UNL     1      42.531  -5.196  29.185  1.00  0.00    -0.074 C
HETATM    3  C3  UNL     1      43.601  -5.354  28.175  1.00  0.00     0.043 C
HETATM    4  C4  UNL     1      41.495  -6.000  29.284  1.00  0.00     0.066 C
HETATM    5  C5  UNL     1      40.438  -5.811  30.312  1.00  0.00     0.421 C
HETATM    6  N2  UNL     1      39.282  -6.480  29.742  1.00  0.00     0.019 N
ATOM      7  H21 UNL     1      38.719  -5.888  29.132  1.00  0.00     0.286 HD
ATOM      8  H22 UNL     1      38.545  -6.682  30.418  1.00  0.00     0.286 HD
HETATM    9  C6  UNL     1      39.814  -7.639  29.098  1.00  0.00     0.379 C
HETATM   10  C7  UNL     1      41.170  -7.206  28.496  1.00  0.00     0.195 A
HETATM   11  N3  UNL     1      42.117  -8.258  28.749  1.00  0.00    -0.330 N
ATOM     12  H3  UNL     1      42.267  -8.509  29.726  1.00  0.00     0.165 HD
HETATM   13  C8  UNL     1      42.776  -8.899  27.898  1.00  0.00     0.192 A
HETATM   14  N4  UNL     1      43.677  -9.920  28.399  1.00  0.00    -0.063 NA
HETATM   15  N5  UNL     1      42.655  -8.669  26.504  1.00  0.00    -0.305 N
ATOM     16  H5  UNL     1      43.195  -9.189  25.811  1.00  0.00     0.171 HD
HETATM   17  C9  UNL     1      41.808  -7.748  26.178  1.00  0.00     0.195 A
HETATM   18  N6  UNL     1      41.641  -7.460  24.768  1.00  0.00    -0.063 NA
HETATM   19  N7  UNL     1      40.991  -7.018  27.080  1.00  0.00    -0.321 N
ENDROOT
BRANCH   9  20
HETATM   20  O2  UNL     1      40.100  -8.676  29.977  1.00  0.00    -0.366 OA
ATOM     21  H2  UNL     1      39.717  -9.506  29.718  1.00  0.00     0.212 HD
ENDBRANCH   9  20
BRANCH  19  22
HETATM   22  C10 UNL     1      39.992  -6.165  26.471  1.00  0.00     0.129 C
BRANCH  22  23
HETATM   23  C11 UNL     1      40.274  -4.718  26.387  1.00  0.00     0.022 C
BRANCH  23  24
HETATM   24  C12 UNL     1      39.496  -4.100  25.196  1.00  0.00     0.029 C
BRANCH  24  25
HETATM   25  C13 UNL     1      38.913  -5.258  24.423  1.00  0.00     0.229 C
BRANCH  25  26
HETATM   26  N8  UNL     1      39.575  -5.433  23.149  1.00  0.00    -0.079 N
ATOM     27  H83 UNL     1      40.576  -5.253  23.220  1.00  0.00     0.274 HD
ATOM     28  H82 UNL     1      39.609  -6.416  22.879  1.00  0.00     0.274 HD
ATOM     29  H81 UNL     1      39.145  -4.862  22.422  1.00  0.00     0.274 HD
ENDBRANCH  25  26
ENDBRANCH  24  25
ENDBRANCH  23  24
ENDBRANCH  22  23
ENDBRANCH  19  22
BRANCH   5  30
HETATM   30  N1  UNL     1      40.748  -6.532  31.543  1.00  0.00    -0.016 N
ATOM     31  H13 UNL     1      40.700  -7.541  31.405  1.00  0.00     0.280 HD
ATOM     32  H12 UNL     1      41.735  -6.451  31.783  1.00  0.00     0.280 HD
ATOM     33  H11 UNL     1      40.151  -6.233  32.315  1.00  0.00     0.280 HD
ENDBRANCH   5  30
BRANCH   5  34
HETATM   34  O1  UNL     1      40.183  -4.511  30.662  1.00  0.00    -0.340 OA
ATOM     35  H1  UNL     1      40.549  -4.234  31.493  1.00  0.00     0.214 HD
ENDBRANCH   5  34
TORSDOF 8
ENDMDL