MODEL 2
REMARK VINA RESULT: -6.135602149      1.866      7.175
REMARK  6 active torsions:
REMARK  status: ('A' for Active; 'I' for Inactive)
REMARK    1  A    between atoms: C2_2  and  C3_3
REMARK    2  A    between atoms: C2_2  and  C11_30
REMARK    3  A    between atoms: C3_3  and  N1_4
REMARK    4  A    between atoms: N3_10  and  N4_11
REMARK    5  A    between atoms: N5_15  and  N6_17
REMARK    6  A    between atoms: C8_20  and  N7_21
REMARK       I    between atoms: N7_21  and  C9_23
ROOT
HETATM    1  N1  UNL     1      37.845   1.278  24.145  1.00  0.00    -0.320 N
HETATM    2  C4  UNL     1      39.183   1.135  23.850  1.00  0.00     0.186 A
HETATM    3  N2  UNL     1      39.672   2.320  23.487  1.00  0.00    -0.335 N
ATOM      4  H2  UNL     1      40.636   2.513  23.213  1.00  0.00     0.168 HD
HETATM    5  C5  UNL     1      38.675   3.215  23.543  1.00  0.00     0.154 A
HETATM    6  C6  UNL     1      37.510   2.557  23.962  1.00  0.00     0.176 A
HETATM    7  N3  UNL     1      36.230   3.132  24.168  1.00  0.00    -0.222 N
HETATM    8  C7  UNL     1      35.888   4.551  24.130  1.00  0.00     0.173 C
HETATM    9  N5  UNL     1      35.047   4.887  24.949  1.00  0.00    -0.289 N
ATOM     10  H5  UNL     1      34.786   4.051  25.473  1.00  0.00     0.188 HD
HETATM   11  C8  UNL     1      36.496   5.582  23.192  1.00  0.00     0.125 C
HETATM   12  C10 UNL     1      37.762   5.543  22.860  1.00  0.00     0.148 C
HETATM   13  N9  UNL     1      38.263   6.521  21.998  1.00  0.00    -0.080 NA
HETATM   14  N10 UNL     1      38.775   4.585  23.232  1.00  0.00    -0.326 N
ATOM     15  H10 UNL     1      39.722   4.964  23.278  1.00  0.00     0.168 HD
ENDROOT
BRANCH   1  16
HETATM   16  C3  UNL     1      37.042   0.179  24.557  1.00  0.00     0.176 C
BRANCH  16  17
HETATM   17  C2  UNL     1      37.292  -0.980  23.619  1.00  0.00     0.027 C
HETATM   18  C1  UNL     1      38.251  -0.947  22.713  1.00  0.00     0.027 C
BRANCH  17  19
HETATM   19  C11 UNL     1      36.460  -2.172  23.707  1.00  0.00     0.206 C
HETATM   20  O2  UNL     1      35.574  -2.375  22.864  1.00  0.00    -0.644 OA
HETATM   21  O3  UNL     1      36.666  -3.065  24.728  1.00  0.00    -0.644 OA
ENDBRANCH  17  19
ENDBRANCH  16  17
ENDBRANCH   1  16
BRANCH   7  22
HETATM   22  N4  UNL     1      35.202   2.265  24.446  1.00  0.00    -0.335 N
ATOM     23  H42 UNL     1      35.352   1.619  25.222  1.00  0.00     0.177 HD
ATOM     24  H41 UNL     1      34.376   2.329  23.852  1.00  0.00     0.177 HD
ENDBRANCH   7  22
BRANCH   9  25
HETATM   25  N6  UNL     1      34.332   5.897  25.438  1.00  0.00    -0.344 N
ATOM     26  H62 UNL     1      33.832   5.512  26.239  1.00  0.00     0.176 HD
ATOM     27  H61 UNL     1      34.087   6.882  25.336  1.00  0.00     0.176 HD
ENDBRANCH   9  25
BRANCH  11  28
HETATM   28  N7  UNL     1      35.583   6.525  22.749  1.00  0.00    -0.305 N
HETATM   29  C9  UNL     1      35.304   7.864  22.801  1.00  0.00     0.333 C
HETATM   30  N8  UNL     1      34.092   8.314  22.070  1.00  0.00    -0.040 NA
HETATM   31  O1  UNL     1      35.868   8.795  23.344  1.00  0.00    -0.251 OA
ATOM     32  H7  UNL     1      34.870   6.059  22.189  1.00  0.00     0.170 HD
ENDBRANCH  11  28
TORSDOF 6
ENDMDL