MODEL 1
REMARK VINA RESULT: -7.204127862      0.000      0.000
REMARK  7 active torsions:
REMARK  status: ('A' for Active; 'I' for Inactive)
REMARK       I    between atoms: N1_1  and  C1_5
REMARK       I    between atoms: C1_5  and  N2_6
REMARK       I    between atoms: C1_5  and  N3_10
REMARK    1  A    between atoms: N3_10  and  C2_12
REMARK    2  A    between atoms: C4_18  and  C5_19
REMARK    3  A    between atoms: C5_19  and  N6_20
REMARK    4  A    between atoms: N6_20  and  N7_22
REMARK    5  A    between atoms: N7_22  and  O1_23
REMARK    6  A    between atoms: N7_22  and  C6_25
REMARK    7  A    between atoms: C11_35  and  O2_36
ROOT
HETATM    1  C2  UNL     1      35.094   4.838  23.996  1.00  0.00     0.153 A
HETATM    2  N4  UNL     1      35.827   5.167  22.871  1.00  0.00    -0.284 N
ATOM      3  H4  UNL     1      35.650   6.064  22.419  1.00  0.00     0.188 HD
HETATM    4  N5  UNL     1      36.742   4.378  22.359  1.00  0.00    -0.310 N
ATOM      5  H5  UNL     1      37.249   4.679  21.526  1.00  0.00     0.186 HD
HETATM    6  C3  UNL     1      37.033   3.169  22.910  1.00  0.00     0.119 A
HETATM    7  C4  UNL     1      36.354   2.759  24.028  1.00  0.00     0.015 A
HETATM    8  C11 UNL     1      35.392   3.618  24.544  1.00  0.00     0.120 A
ENDROOT
BRANCH   7   9
HETATM    9  C5  UNL     1      36.603   1.457  24.700  1.00  0.00     0.184 C
BRANCH   9  10
HETATM   10  N6  UNL     1      35.905   0.374  24.119  1.00  0.00    -0.309 N
ATOM     11  H6  UNL     1      34.926   0.496  23.860  1.00  0.00     0.182 HD
BRANCH  10  12
HETATM   12  N7  UNL     1      36.482  -0.786  23.901  1.00  0.00    -0.181 N
BRANCH  12  13
HETATM   13  O1  UNL     1      36.032  -1.442  22.826  1.00  0.00    -0.271 OA
ATOM     14  H1  UNL     1      35.337  -2.064  23.002  1.00  0.00     0.246 HD
ENDBRANCH  12  13
BRANCH  12  15
HETATM   15  C6  UNL     1      37.854  -1.013  24.073  1.00  0.00     0.241 C
HETATM   16  C7  UNL     1      38.382  -2.378  23.681  1.00  0.00     0.128 C
HETATM   17  C8  UNL     1      39.518  -1.590  23.147  1.00  0.00     0.099 C
HETATM   18  N8  UNL     1      40.742  -1.368  22.822  1.00  0.00    -0.293 N
HETATM   19  N10 UNL     1      38.593  -0.535  22.911  1.00  0.00    -0.343 N
HETATM   20  N9  UNL     1      41.147  -0.147  22.260  1.00  0.00    -0.334 N
ATOM     21  H8  UNL     1      41.437  -2.099  22.976  1.00  0.00     0.188 HD
HETATM   22  C9  UNL     1      40.225   0.915  21.946  1.00  0.00     0.159 C
ATOM     23  H9  UNL     1      42.138  -0.005  22.064  1.00  0.00     0.180 HD
HETATM   24  C10 UNL     1      38.817   0.355  21.795  1.00  0.00     0.147 C
ENDBRANCH  12  15
ENDBRANCH  10  12
ENDBRANCH   9  10
ENDBRANCH   7   9
BRANCH   8  25
HETATM   25  O2  UNL     1      34.725   3.190  25.662  1.00  0.00    -0.356 OA
ATOM     26  H2  UNL     1      35.189   3.108  26.487  1.00  0.00     0.218 HD
ENDBRANCH   8  25
BRANCH   1  27
HETATM   27  N3  UNL     1      34.279   5.644  24.374  1.00  0.00    -0.324 N
HETATM   28  C1  UNL     1      33.827   6.854  24.772  1.00  0.00     0.481 C
HETATM   29  N1  UNL     1      33.575   7.695  23.579  1.00  0.00    -0.033 N
HETATM   30  N2  UNL     1      32.521   6.852  25.451  1.00  0.00    -0.033 N
ATOM     31  H13 UNL     1      32.793   7.392  22.999  1.00  0.00     0.278 HD
ATOM     32  H12 UNL     1      33.197   8.621  23.781  1.00  0.00     0.278 HD
ATOM     33  H11 UNL     1      34.481   7.697  23.109  1.00  0.00     0.278 HD
ATOM     34  H23 UNL     1      32.143   7.778  25.653  1.00  0.00     0.278 HD
ATOM     35  H22 UNL     1      31.738   6.548  24.871  1.00  0.00     0.278 HD
ATOM     36  H21 UNL     1      32.694   6.273  26.272  1.00  0.00     0.278 HD
ATOM     37  H3  UNL     1      33.431   5.078  24.420  1.00  0.00     0.165 HD
ENDBRANCH   1  27
TORSDOF 7
ENDMDL