MODEL 5
REMARK VINA RESULT: -6.365674588      2.616      6.324
REMARK  8 active torsions:
REMARK  status: ('A' for Active; 'I' for Inactive)
REMARK    1  A    between atoms: N1_1  and  C1_5
REMARK    2  A    between atoms: C1_5  and  N2_6
REMARK    3  A    between atoms: C1_5  and  C2_10
REMARK    4  A    between atoms: C2_10  and  C3_11
REMARK    5  A    between atoms: C3_11  and  N3_12
REMARK    6  A    between atoms: C4_13  and  N4_14
REMARK    7  A    between atoms: N4_14  and  C5_16
REMARK    8  A    between atoms: C9_33  and  O2_34
ROOT
HETATM    1  N3  UNL     1      37.606   4.416  22.934  1.00  0.00    -0.145 N
HETATM    2  C4  UNL     1      36.674   4.408  23.926  1.00  0.00     0.702 A
HETATM    3  N9  UNL     1      36.139   3.280  24.408  1.00  0.00    -0.192 N
ATOM      4  H9  UNL     1      35.442   3.302  25.152  1.00  0.00     0.184 HD
HETATM    5  C6  UNL     1      36.558   2.104  23.873  1.00  0.00     0.063 A
HETATM    6  C7  UNL     1      37.503   2.098  22.865  1.00  0.00     0.137 A
HETATM    7  C8  UNL     1      38.046   3.270  22.377  1.00  0.00     0.291 A
HETATM    8  O1  UNL     1      38.909   3.256  21.457  1.00  0.00    -0.265 OA
HETATM    9  N10 UNL     1      37.937   0.866  22.309  1.00  0.00    -0.295 N
ATOM     10  H10 UNL     1      38.542   0.892  21.489  1.00  0.00     0.182 HD
HETATM   11  N11 UNL     1      37.582  -0.369  22.823  1.00  0.00    -0.108 NA
HETATM   12  C9  UNL     1      37.036  -0.299  24.154  1.00  0.00     0.236 C
HETATM   13  C10 UNL     1      36.034   0.799  24.330  1.00  0.00     0.111 C
ENDROOT
BRANCH   1  14
HETATM   14  C3  UNL     1      38.138   5.652  22.461  1.00  0.00     0.155 C
BRANCH  14  15
HETATM   15  C2  UNL     1      39.352   6.127  23.225  1.00  0.00     0.083 C
BRANCH  15  16
HETATM   16  C1  UNL     1      40.496   6.193  22.204  1.00  0.00     0.379 C
BRANCH  16  17
HETATM   17  N1  UNL     1      41.300   5.019  22.392  1.00  0.00    -0.050 N
ATOM     18  H13 UNL     1      41.181   4.338  21.642  1.00  0.00     0.276 HD
ATOM     19  H12 UNL     1      42.296   5.201  22.258  1.00  0.00     0.276 HD
ATOM     20  H11 UNL     1      41.095   4.628  23.312  1.00  0.00     0.276 HD
ENDBRANCH  16  17
BRANCH  16  21
HETATM   21  N2  UNL     1      39.897   6.136  20.881  1.00  0.00    -0.050 N
ATOM     22  H23 UNL     1      40.546   5.791  20.172  1.00  0.00     0.276 HD
ATOM     23  H22 UNL     1      39.196   5.399  20.800  1.00  0.00     0.276 HD
ATOM     24  H21 UNL     1      39.524   7.057  20.653  1.00  0.00     0.276 HD
ENDBRANCH  16  21
ENDBRANCH  15  16
ENDBRANCH  14  15
ENDBRANCH   1  14
BRANCH   2  25
HETATM   25  N4  UNL     1      36.253   5.655  24.470  1.00  0.00    -0.019 N
ATOM     26  H4  UNL     1      36.948   6.250  24.922  1.00  0.00     0.203 HD
BRANCH  25  27
HETATM   27  C5  UNL     1      35.049   6.060  24.418  1.00  0.00     0.725 A
HETATM   28  N5  UNL     1      34.247   6.133  25.506  1.00  0.00    -0.117 N
HETATM   29  N6  UNL     1      33.078   6.584  25.121  1.00  0.00    -0.212 N
ATOM     30  H5  UNL     1      34.506   5.880  26.459  1.00  0.00     0.207 HD
HETATM   31  N7  UNL     1      33.131   6.797  23.814  1.00  0.00     0.009 NA
ATOM     32  H6  UNL     1      32.270   6.744  25.722  1.00  0.00     0.206 HD
HETATM   33  N8  UNL     1      34.336   6.479  23.367  1.00  0.00    -0.113 N
ATOM     34  H8  UNL     1      34.660   6.542  22.402  1.00  0.00     0.203 HD
ENDBRANCH  25  27
ENDBRANCH   2  25
BRANCH  12  35
HETATM   35  O2  UNL     1      36.418  -1.527  24.414  1.00  0.00    -0.378 OA
ATOM     36  H2  UNL     1      36.164  -1.526  25.330  1.00  0.00     0.211 HD
ENDBRANCH  12  35
TORSDOF 8
ENDMDL