MODEL 3
REMARK VINA RESULT: -7.419525561      2.047      9.201
REMARK  6 active torsions:
REMARK  status: ('A' for Active; 'I' for Inactive)
REMARK    1  A    between atoms: C2_3  and  N7_17
REMARK    2  A    between atoms: N2_4  and  N3_6
REMARK    3  A    between atoms: N3_6  and  C3_8
REMARK    4  A    between atoms: N7_17  and  N8_19
REMARK    5  A    between atoms: C5_21  and  C6_22
REMARK    6  A    between atoms: C7_23  and  O2_24
ROOT
HETATM    1  N1  UNL     1      34.996   2.052  25.883  1.00  0.00    -0.188 NA
HETATM    2  C1  UNL     1      35.623   2.450  24.999  1.00  0.00     0.139 C
HETATM    3  C2  UNL     1      36.421   2.927  23.865  1.00  0.00     0.218 C
HETATM    4  N2  UNL     1      36.770   4.089  23.671  1.00  0.00    -0.261 N
ATOM      5  H2  UNL     1      37.327   4.195  22.823  1.00  0.00     0.190 HD
ENDROOT
BRANCH   3   6
HETATM    6  N7  UNL     1      36.825   1.928  22.908  1.00  0.00    -0.276 N
ATOM      7  H7  UNL     1      36.998   2.171  21.932  1.00  0.00     0.189 HD
BRANCH   6   8
HETATM    8  N8  UNL     1      36.970   0.626  23.360  1.00  0.00    -0.309 N
HETATM    9  C5  UNL     1      37.890  -0.160  22.906  1.00  0.00     0.128 C
ATOM     10  H8  UNL     1      36.331   0.277  24.074  1.00  0.00     0.186 HD
BRANCH   9  11
HETATM   11  C6  UNL     1      37.999  -1.513  23.415  1.00  0.00     0.100 A
HETATM   12  C7  UNL     1      36.942  -2.389  23.452  1.00  0.00     0.161 A
HETATM   13  N9  UNL     1      37.072  -3.625  23.932  1.00  0.00    -0.288 N
HETATM   14  C8  UNL     1      38.277  -4.028  24.397  1.00  0.00     0.329 A
ATOM     15  H9  UNL     1      36.273  -4.259  23.950  1.00  0.00     0.172 HD
HETATM   16  O3  UNL     1      38.394  -5.183  24.845  1.00  0.00    -0.247 OA
HETATM   17  N10 UNL     1      39.353  -3.235  24.393  1.00  0.00    -0.275 N
HETATM   18  C9  UNL     1      39.215  -1.993  23.909  1.00  0.00     0.265 A
ATOM     19  H10 UNL     1      40.251  -3.565  24.748  1.00  0.00     0.173 HD
HETATM   20  O4  UNL     1      40.210  -1.221  23.892  1.00  0.00    -0.267 OA
BRANCH  12  21
HETATM   21  O2  UNL     1      35.727  -1.893  22.951  1.00  0.00    -0.345 OA
ATOM     22  H2  UNL     1      34.957  -2.405  23.168  1.00  0.00     0.219 HD
ENDBRANCH  12  21
ENDBRANCH   9  11
ENDBRANCH   6   8
ENDBRANCH   3   6
BRANCH   4  23
HETATM   23  N3  UNL     1      36.591   5.248  24.314  1.00  0.00    -0.128 N
ATOM     24  H3  UNL     1      37.335   5.611  24.909  1.00  0.00     0.205 HD
BRANCH  23  25
HETATM   25  C3  UNL     1      35.363   5.992  24.179  1.00  0.00     0.715 A
HETATM   26  N4  UNL     1      34.203   5.720  24.793  1.00  0.00    -0.127 N
HETATM   27  N5  UNL     1      33.299   6.602  24.405  1.00  0.00    -0.237 N
ATOM     28  H4  UNL     1      34.044   4.957  25.450  1.00  0.00     0.206 HD
HETATM   29  C4  UNL     1      33.876   7.460  23.529  1.00  0.00     0.353 A
ATOM     30  H5  UNL     1      32.328   6.634  24.715  1.00  0.00     0.192 HD
HETATM   31  O1  UNL     1      33.300   8.444  22.949  1.00  0.00    -0.245 OA
HETATM   32  N6  UNL     1      35.147   7.064  23.405  1.00  0.00    -0.137 N
ATOM     33  H6  UNL     1      35.846   7.511  22.811  1.00  0.00     0.189 HD
ENDBRANCH  23  25
ENDBRANCH   4  23
TORSDOF 6
ENDMDL