MODEL 3
REMARK VINA RESULT: -3.128219277      4.497      4.822
REMARK  1 active torsions:
REMARK  status: ('A' for Active; 'I' for Inactive)
REMARK    1  A    between atoms: O1_1  and  C1_3
ROOT
HETATM    1  C1  UNL     1      -3.696 -36.662  -0.285  1.00  0.00     0.285 C
HETATM    2  N1  UNL     1      -3.969 -36.789   1.091  1.00  0.00    -0.137 NA
HETATM    3  S1  UNL     1      -5.491 -37.559   1.360  1.00  0.00    -0.052 SA
HETATM    4  C2  UNL     1      -6.124 -38.009  -0.292  1.00  0.00     0.170 C
HETATM    5  S2  UNL     1      -5.209 -36.728  -1.233  1.00  0.00    -0.109 SA
ENDROOT
BRANCH   1   6
HETATM    6  O1  UNL     1      -3.040 -35.456  -0.617  1.00  0.00    -0.370 OA
ATOM      7  H1  UNL     1      -2.943 -35.324  -1.553  1.00  0.00     0.212 HD
ENDBRANCH   1   6
TORSDOF 1
ENDMDL