MODEL 5
REMARK VINA RESULT: -4.612290127      2.511      4.022
REMARK  2 active torsions:
REMARK  status: ('A' for Active; 'I' for Inactive)
REMARK    1  A    between atoms: C2_2  and  O1_3
REMARK    2  A    between atoms: N1_7  and  O2_9
ROOT
HETATM    1  C1  UNL     1      -6.073 -36.625  -2.350  1.00  0.00     0.079 C
HETATM    2  C2  UNL     1      -6.147 -37.644  -1.236  1.00  0.00     0.163 C
HETATM    3  C3  UNL     1      -5.032 -37.331  -0.251  1.00  0.00     0.124 C
HETATM    4  C4  UNL     1      -5.639 -37.775   1.027  1.00  0.00     0.038 C
HETATM    5  N1  UNL     1      -5.198 -37.768   2.218  1.00  0.00    -0.275 N
ATOM      6  H1  UNL     1      -5.825 -38.136   2.934  1.00  0.00     0.193 HD
HETATM    7  C5  UNL     1      -6.983 -38.279   0.649  1.00  0.00     0.226 C
HETATM    8  O3  UNL     1      -7.297 -37.499  -0.463  1.00  0.00    -0.350 OA
ENDROOT
BRANCH   5   9
HETATM    9  O2  UNL     1      -4.001 -37.331   2.645  1.00  0.00    -0.290 OA
ATOM     10  H2  UNL     1      -3.803 -36.501   3.062  1.00  0.00     0.244 HD
ENDBRANCH   5   9
BRANCH   2  11
HETATM   11  O1  UNL     1      -6.106 -38.947  -1.687  1.00  0.00    -0.365 OA
ATOM     12  H1  UNL     1      -5.893 -39.573  -1.005  1.00  0.00     0.213 HD
ENDBRANCH   2  11
TORSDOF 2
ENDMDL