MODEL 1
REMARK VINA RESULT: -4.554653830      0.000      0.000
REMARK  1 active torsions:
REMARK  status: ('A' for Active; 'I' for Inactive)
REMARK    1  A    between atoms: O1_1  and  N1_3
ROOT
HETATM    1  N1  UNL     1      -8.863 -42.944  -0.411  1.00  0.00    -0.275 N
ATOM      2  H1  UNL     1      -7.866 -42.919  -0.197  1.00  0.00     0.193 HD
HETATM    3  C1  UNL     1      -9.498 -41.839  -0.421  1.00  0.00     0.043 C
HETATM    4  C2  UNL     1     -10.951 -41.642  -0.706  1.00  0.00     0.327 C
HETATM    5  N2  UNL     1     -11.163 -40.195  -0.610  1.00  0.00     0.094 N
HETATM    6  C3  UNL     1     -11.028 -39.837   0.790  1.00  0.00     0.273 C
HETATM    7  C4  UNL     1      -9.564 -40.037   1.161  1.00  0.00     0.042 C
HETATM    8  C5  UNL     1      -8.984 -40.487  -0.162  1.00  0.00     0.065 C
HETATM    9  C6  UNL     1      -9.877 -39.677  -1.114  1.00  0.00     0.283 C
ENDROOT
BRANCH   1  10
HETATM   10  O1  UNL     1      -9.430 -44.156  -0.665  1.00  0.00    -0.290 OA
ATOM     11  H1  UNL     1     -10.090 -44.308  -1.331  1.00  0.00     0.244 HD
ENDBRANCH   1  10
TORSDOF 1
ENDMDL