MODEL 1
REMARK VINA RESULT: -4.279413493      0.000      0.000
REMARK  2 active torsions:
REMARK  status: ('A' for Active; 'I' for Inactive)
REMARK    1  A    between atoms: O1_1  and  N1_3
REMARK    2  A    between atoms: N2_8  and  O2_9
ROOT
HETATM    1  N1  UNL     1      -6.465 -38.043  -2.450  1.00  0.00    -0.093 NA
HETATM    2  C1  UNL     1      -5.965 -37.965  -1.135  1.00  0.00     0.144 C
HETATM    3  C2  UNL     1      -6.960 -37.743  -0.057  1.00  0.00     0.030 C
HETATM    4  C3  UNL     1      -7.745 -39.049   0.121  1.00  0.00     0.096 C
HETATM    5  S1  UNL     1      -8.571 -39.297  -1.500  1.00  0.00    -0.034 SA
HETATM    6  N2  UNL     1      -7.812 -38.171  -2.607  1.00  0.00    -0.039 NA
ENDROOT
BRANCH   1   7
HETATM    7  O1  UNL     1      -6.045 -36.973  -3.179  1.00  0.00    -0.295 OA
ATOM      8  H1  UNL     1      -6.751 -36.652  -3.729  1.00  0.00     0.238 HD
ENDBRANCH   1   7
BRANCH   6   9
HETATM    9  O2  UNL     1      -8.053 -38.616  -3.879  1.00  0.00    -0.286 OA
ATOM     10  H2  UNL     1      -8.725 -39.285  -3.836  1.00  0.00     0.239 HD
ENDBRANCH   6   9
TORSDOF 2
ENDMDL