MODEL 2
REMARK VINA RESULT: -4.325568337      1.350      2.535
REMARK  2 active torsions:
REMARK  status: ('A' for Active; 'I' for Inactive)
REMARK    1  A    between atoms: N1_4  and  O1_5
REMARK    2  A    between atoms: N2_9  and  O3_10
ROOT
HETATM    1  C1  UNL     1      -8.075 -38.192   0.701  1.00  0.00     0.068 C
HETATM    2  C2  UNL     1      -8.163 -38.854  -0.646  1.00  0.00     0.159 C
HETATM    3  C3  UNL     1      -8.735 -40.256  -0.594  1.00  0.00     0.068 C
HETATM    4  N1  UNL     1      -8.874 -38.094  -1.657  1.00  0.00    -0.176 N
HETATM    5  C4  UNL     1      -7.870 -38.497  -2.582  1.00  0.00     0.372 C
HETATM    6  O2  UNL     1      -7.842 -38.599  -3.840  1.00  0.00    -0.242 OA
HETATM    7  N2  UNL     1      -7.002 -38.706  -1.486  1.00  0.00    -0.176 N
ENDROOT
BRANCH   4   8
HETATM    8  O1  UNL     1      -9.998 -37.328  -1.728  1.00  0.00    -0.281 OA
ATOM      9  H1  UNL     1     -10.420 -36.764  -2.365  1.00  0.00     0.245 HD
ENDBRANCH   4   8
BRANCH   7  10
HETATM   10  O3  UNL     1      -5.668 -38.734  -1.380  1.00  0.00    -0.281 OA
ATOM     11  H3  UNL     1      -4.938 -39.279  -1.652  1.00  0.00     0.245 HD
ENDBRANCH   7  10
TORSDOF 2
ENDMDL