MODEL 2
REMARK VINA RESULT: -4.890855118      1.993      3.414
REMARK  3 active torsions:
REMARK  status: ('A' for Active; 'I' for Inactive)
REMARK    1  A    between atoms: N1_2  and  C2_4
REMARK    2  A    between atoms: C2_4  and  O1_8
REMARK    3  A    between atoms: O1_8  and  N3_9
ROOT
HETATM    1  N3  UNL     1      -4.799 -37.591  -0.665  1.00  0.00    -0.252 N
ATOM      2  H3  UNL     1      -3.807 -37.366  -0.737  1.00  0.00     0.195 HD
HETATM    3  C3  UNL     1      -5.301 -37.755   0.502  1.00  0.00     0.108 C
HETATM    4  C4  UNL     1      -4.408 -37.608   1.677  1.00  0.00     0.083 C
HETATM    5  C5  UNL     1      -6.684 -38.072   0.697  1.00  0.00     0.114 C
HETATM    6  N4  UNL     1      -7.805 -38.344   0.868  1.00  0.00    -0.190 NA
ENDROOT
BRANCH   1   7
HETATM    7  O1  UNL     1      -5.528 -37.701  -1.826  1.00  0.00    -0.201 OA
BRANCH   7   8
HETATM    8  C2  UNL     1      -5.953 -36.566  -2.511  1.00  0.00     0.236 C
HETATM    9  N2  UNL     1      -5.163 -35.533  -2.455  1.00  0.00    -0.364 N
ATOM     10  H22 UNL     1      -5.474 -34.701  -2.957  1.00  0.00     0.159 HD
ATOM     11  H21 UNL     1      -4.287 -35.575  -1.935  1.00  0.00     0.159 HD
BRANCH   8  12
HETATM   12  N1  UNL     1      -7.173 -36.507  -3.235  1.00  0.00    -0.359 N
HETATM   13  C1  UNL     1      -8.250 -37.355  -2.815  1.00  0.00     0.150 C
ATOM     14  H1  UNL     1      -7.280 -35.879  -4.032  1.00  0.00     0.162 HD
ENDBRANCH   8  12
ENDBRANCH   7   8
ENDBRANCH   1   7
TORSDOF 3
ENDMDL