MODEL 5
REMARK VINA RESULT: -4.309633738      2.147      3.891
REMARK  1 active torsions:
REMARK  status: ('A' for Active; 'I' for Inactive)
REMARK    1  A    between atoms: N2_10  and  O2_11
ROOT
HETATM    1  C1  UNL     1      -6.823 -38.144   0.790  1.00  0.00     0.037 C
HETATM    2  C2  UNL     1      -6.861 -38.453  -0.687  1.00  0.00     0.136 C
HETATM    3  C3  UNL     1      -8.218 -38.233  -1.299  1.00  0.00     0.195 C
HETATM    4  O1  UNL     1      -8.415 -36.961  -1.779  1.00  0.00    -0.382 OA
HETATM    5  C4  UNL     1      -7.570 -36.616  -2.819  1.00  0.00     0.245 C
HETATM    6  C5  UNL     1      -6.191 -36.605  -2.271  1.00  0.00     0.122 C
HETATM    7  N1  UNL     1      -5.275 -35.757  -2.575  1.00  0.00    -0.386 N
ATOM      8  H11 UNL     1      -4.328 -35.750  -2.198  1.00  0.00     0.157 HD
ATOM      9  H12 UNL     1      -5.508 -35.027  -3.250  1.00  0.00     0.157 HD
HETATM   10  N2  UNL     1      -5.868 -37.618  -1.335  1.00  0.00    -0.240 N
ENDROOT
BRANCH  10  11
HETATM   11  O2  UNL     1      -4.570 -37.824  -1.023  1.00  0.00    -0.286 OA
ATOM     12  H2  UNL     1      -3.925 -37.231  -1.391  1.00  0.00     0.244 HD
ENDBRANCH  10  11
TORSDOF 1
ENDMDL