MODEL 3
REMARK VINA RESULT: -4.336652837      1.777      3.104
REMARK  2 active torsions:
REMARK  status: ('A' for Active; 'I' for Inactive)
REMARK    1  A    between atoms: O1_1  and  C1_3
REMARK    2  A    between atoms: N1_7  and  O2_8
ROOT
HETATM    1  C1  UNL     1      -5.705 -38.195  -1.065  1.00  0.00     0.264 C
HETATM    2  C2  UNL     1      -6.462 -37.635   0.125  1.00  0.00     0.062 C
HETATM    3  C3  UNL     1      -5.702 -37.977   1.377  1.00  0.00     0.027 C
HETATM    4  C4  UNL     1      -4.308 -37.438   1.381  1.00  0.00     0.157 C
HETATM    5  N1  UNL     1      -4.029 -36.455   0.408  1.00  0.00    -0.250 N
HETATM    6  C5  UNL     1      -3.797 -36.897  -0.910  1.00  0.00     0.254 C
HETATM    7  O3  UNL     1      -4.931 -37.216  -1.637  1.00  0.00    -0.314 OA
ENDROOT
BRANCH   1   8
HETATM    8  O1  UNL     1      -6.684 -38.563  -2.007  1.00  0.00    -0.371 OA
ATOM      9  H1  UNL     1      -6.484 -38.073  -2.796  1.00  0.00     0.212 HD
ENDBRANCH   1   8
BRANCH   5  10
HETATM   10  O2  UNL     1      -4.565 -35.269   0.568  1.00  0.00    -0.286 OA
ATOM     11  H2  UNL     1      -4.182 -34.542   0.089  1.00  0.00     0.244 HD
ENDBRANCH   5  10
TORSDOF 2
ENDMDL