MODEL 2
REMARK VINA RESULT: -4.637323955      1.952      2.477
REMARK  2 active torsions:
REMARK  status: ('A' for Active; 'I' for Inactive)
REMARK    1  A    between atoms: C4_5  and  O1_6
REMARK    2  A    between atoms: C6_9  and  O2_10
ROOT
HETATM    1  N1  UNL     1      -8.052 -39.202   0.660  1.00  0.00    -0.197 NA
HETATM    2  C1  UNL     1      -7.529 -38.865  -0.338  1.00  0.00     0.066 C
HETATM    3  C2  UNL     1      -6.869 -38.435  -1.559  1.00  0.00     0.124 C
HETATM    4  C3  UNL     1      -5.917 -37.283  -1.262  1.00  0.00     0.053 C
HETATM    5  C4  UNL     1      -5.959 -36.526  -2.567  1.00  0.00     0.122 C
HETATM    6  C5  UNL     1      -7.473 -36.447  -2.795  1.00  0.00     0.065 C
HETATM    7  C6  UNL     1      -7.854 -37.905  -2.571  1.00  0.00     0.138 C
ENDROOT
BRANCH   7   8
HETATM    8  O2  UNL     1      -7.876 -38.624  -3.746  1.00  0.00    -0.394 OA
ATOM      9  H2  UNL     1      -8.122 -38.105  -4.503  1.00  0.00     0.210 HD
ENDBRANCH   7   8
BRANCH   5  10
HETATM   10  O1  UNL     1      -5.373 -35.287  -2.510  1.00  0.00    -0.395 OA
ATOM     11  H1  UNL     1      -5.415 -34.804  -3.326  1.00  0.00     0.210 HD
ENDBRANCH   5  10
TORSDOF 2
ENDMDL