MODEL 1
REMARK VINA RESULT: -4.303135922      0.000      0.000
REMARK  1 active torsions:
REMARK  status: ('A' for Active; 'I' for Inactive)
REMARK    1  A    between atoms: N1_7  and  O2_8
ROOT
HETATM    1  O1  UNL     1      -6.619 -38.939  -1.586  1.00  0.00    -0.271 OA
HETATM    2  C1  UNL     1      -6.105 -37.878  -1.154  1.00  0.00     0.244 C
HETATM    3  C2  UNL     1      -5.940 -37.697   0.293  1.00  0.00     0.115 C
HETATM    4  C3  UNL     1      -4.540 -37.326   0.711  1.00  0.00     0.085 C
HETATM    5  S1  UNL     1      -3.651 -36.361  -0.510  1.00  0.00    -0.146 SA
HETATM    6  C4  UNL     1      -4.795 -35.818  -1.780  1.00  0.00     0.232 C
HETATM    7  N1  UNL     1      -5.706 -36.902  -2.088  1.00  0.00    -0.219 N
ENDROOT
BRANCH   7   8
HETATM    8  O2  UNL     1      -6.180 -36.942  -3.361  1.00  0.00    -0.284 OA
ATOM      9  H2  UNL     1      -5.586 -37.094  -4.087  1.00  0.00     0.245 HD
ENDBRANCH   7   8
TORSDOF 1
ENDMDL