MODEL 2
REMARK VINA RESULT: -6.355828755      2.075      2.960
REMARK  8 active torsions:
REMARK  status: ('A' for Active; 'I' for Inactive)
REMARK    1  A    between atoms: N1_1  and  N2_4
REMARK       I    between atoms: N2_4  and  C1_6
REMARK       I    between atoms: C1_6  and  N3_8
REMARK    2  A    between atoms: C5_22  and  N8_23
REMARK    3  A    between atoms: N8_23  and  N9_25
REMARK    4  A    between atoms: C6_27  and  O4_28
REMARK    5  A    between atoms: C6_27  and  C7_30
REMARK    6  A    between atoms: C7_30  and  O5_31
REMARK    7  A    between atoms: C7_30  and  C8_33
REMARK    8  A    between atoms: C8_33  and  O6_34
ROOT
HETATM    1  N2  UNL     1      40.666 -18.743 110.619  1.00  0.00    -0.256 N
ATOM      2  H2  UNL     1      41.330 -18.693 109.846  1.00  0.00     0.191 HD
HETATM    3  C1  UNL     1      41.128 -18.623 111.955  1.00  0.00     0.361 C
HETATM    4  O1  UNL     1      40.282 -18.694 112.824  1.00  0.00    -0.243 OA
HETATM    5  N3  UNL     1      42.517 -18.437 112.135  1.00  0.00    -0.183 N
HETATM    6  N4  UNL     1      43.390 -18.255 111.098  1.00  0.00    -0.231 N
ATOM      7  H4  UNL     1      43.117 -18.239 110.115  1.00  0.00     0.209 HD
HETATM    8  N5  UNL     1      44.614 -18.106 111.522  1.00  0.00    -0.278 N
ATOM      9  H5  UNL     1      45.426 -17.958 110.922  1.00  0.00     0.189 HD
HETATM   10  C2  UNL     1      44.651 -18.173 112.854  1.00  0.00     0.150 A
HETATM   11  C3  UNL     1      45.743 -18.044 113.696  1.00  0.00     0.280 C
HETATM   12  O2  UNL     1      46.850 -18.216 113.146  1.00  0.00    -0.265 OA
HETATM   13  N6  UNL     1      45.742 -17.757 115.020  1.00  0.00    -0.273 N
ATOM     14  H6  UNL     1      46.650 -17.671 115.476  1.00  0.00     0.173 HD
HETATM   15  C4  UNL     1      44.632 -17.570 115.801  1.00  0.00     0.328 C
HETATM   16  O3  UNL     1      44.898 -16.902 116.831  1.00  0.00    -0.247 OA
HETATM   17  N7  UNL     1      43.375 -17.994 115.602  1.00  0.00    -0.291 N
ATOM     18  H7  UNL     1      42.728 -17.860 116.379  1.00  0.00     0.172 HD
HETATM   19  C5  UNL     1      42.858 -18.582 114.487  1.00  0.00     0.156 C
HETATM   20  C9  UNL     1      43.304 -18.388 113.206  1.00  0.00     0.142 A
ENDROOT
BRANCH  19  21
HETATM   21  N8  UNL     1      41.902 -19.417 114.604  1.00  0.00    -0.282 N
ATOM     22  H8  UNL     1      41.837 -20.250 114.018  1.00  0.00     0.188 HD
BRANCH  21  23
HETATM   23  N9  UNL     1      40.937 -19.120 115.594  1.00  0.00    -0.280 N
HETATM   24  C6  UNL     1      40.479 -19.989 116.397  1.00  0.00     0.162 C
ATOM     25  H9  UNL     1      40.593 -18.162 115.665  1.00  0.00     0.189 HD
BRANCH  24  26
HETATM   26  O4  UNL     1      40.887 -21.312 116.377  1.00  0.00    -0.346 OA
ATOM     27  H4  UNL     1      41.163 -21.774 117.159  1.00  0.00     0.219 HD
ENDBRANCH  24  26
BRANCH  24  28
HETATM   28  C7  UNL     1      39.469 -19.585 117.401  1.00  0.00     0.217 C
BRANCH  28  29
HETATM   29  O5  UNL     1      39.324 -18.226 117.525  1.00  0.00    -0.385 OA
ATOM     30  H5  UNL     1      38.544 -17.884 117.104  1.00  0.00     0.210 HD
ENDBRANCH  28  29
BRANCH  28  31
HETATM   31  C8  UNL     1      38.121 -20.221 117.121  1.00  0.00     0.204 C
BRANCH  31  32
HETATM   32  O6  UNL     1      37.924 -20.465 115.766  1.00  0.00    -0.398 OA
ATOM     33  H6  UNL     1      37.141 -20.978 115.602  1.00  0.00     0.209 HD
ENDBRANCH  31  32
ENDBRANCH  28  31
ENDBRANCH  24  28
ENDBRANCH  21  23
ENDBRANCH  19  21
BRANCH   1  34
HETATM   34  N1  UNL     1      39.319 -18.929 110.357  1.00  0.00    -0.341 N
ATOM     35  H12 UNL     1      38.940 -19.875 110.380  1.00  0.00     0.177 HD
ATOM     36  H11 UNL     1      38.720 -18.131 110.145  1.00  0.00     0.177 HD
ENDBRANCH   1  34
TORSDOF 8
ENDMDL