MODEL 2
REMARK VINA RESULT: -5.751772360      1.226      1.432
REMARK  9 active torsions:
REMARK  status: ('A' for Active; 'I' for Inactive)
REMARK    1  A    between atoms: N1_1  and  C1_4
REMARK    2  A    between atoms: C4_10  and  O2_11
REMARK    3  A    between atoms: N3_13  and  C5_14
REMARK    4  A    between atoms: C5_14  and  C6_15
REMARK    5  A    between atoms: C6_15  and  C7_16
REMARK    6  A    between atoms: C6_15  and  O4_19
REMARK    7  A    between atoms: C7_16  and  O3_17
REMARK    8  A    between atoms: O4_19  and  N4_20
REMARK    9  A    between atoms: N5_24  and  N6_25
ROOT
HETATM    1  C1  UNL     1      38.485 -22.750 116.471  1.00  0.00     0.680 A
HETATM    2  N2  UNL     1      37.940 -21.545 116.384  1.00  0.00    -0.155 N
ATOM      3  H2  UNL     1      37.012 -21.431 115.977  1.00  0.00     0.187 HD
HETATM    4  C2  UNL     1      38.610 -20.484 116.831  1.00  0.00     0.278 A
HETATM    5  O1  UNL     1      38.124 -19.317 116.765  1.00  0.00    -0.266 OA
HETATM    6  C3  UNL     1      39.861 -20.593 117.385  1.00  0.00     0.130 A
HETATM    7  C4  UNL     1      40.805 -19.764 117.926  1.00  0.00     0.177 A
HETATM    8  N3  UNL     1      41.883 -20.462 118.324  1.00  0.00    -0.266 N
HETATM    9  N8  UNL     1      41.602 -21.722 118.028  1.00  0.00    -0.280 N
ATOM     10  H8  UNL     1      42.235 -22.499 118.213  1.00  0.00     0.189 HD
HETATM   11  C10 UNL     1      40.411 -21.866 117.466  1.00  0.00     0.155 A
HETATM   12  N9  UNL     1      39.706 -22.921 117.003  1.00  0.00    -0.174 N
ATOM     13  H9  UNL     1      40.105 -23.858 117.060  1.00  0.00     0.186 HD
ENDROOT
BRANCH   8  14
HETATM   14  C5  UNL     1      43.100 -20.049 118.932  1.00  0.00     0.187 C
BRANCH  14  15
HETATM   15  C6  UNL     1      44.176 -19.619 117.995  1.00  0.00     0.190 C
BRANCH  15  16
HETATM   16  C7  UNL     1      45.425 -19.144 118.693  1.00  0.00     0.199 C
BRANCH  16  17
HETATM   17  O3  UNL     1      45.563 -17.783 118.467  1.00  0.00    -0.398 OA
ATOM     18  H3  UNL     1      46.489 -17.572 118.457  1.00  0.00     0.209 HD
ENDBRANCH  16  17
ENDBRANCH  15  16
BRANCH  15  19
HETATM   19  O4  UNL     1      43.682 -18.511 117.297  1.00  0.00    -0.276 OA
BRANCH  19  20
HETATM   20  N4  UNL     1      43.947 -18.535 115.996  1.00  0.00    -0.077 NA
HETATM   21  C8  UNL     1      42.805 -18.724 115.161  1.00  0.00     0.250 C
HETATM   22  C9  UNL     1      42.780 -17.504 114.279  1.00  0.00     0.272 C
HETATM   23  O5  UNL     1      42.049 -17.304 113.275  1.00  0.00    -0.269 OA
HETATM   24  N5  UNL     1      43.749 -16.636 114.822  1.00  0.00    -0.153 N
HETATM   25  N7  UNL     1      44.650 -17.429 115.540  1.00  0.00     0.004 NA
BRANCH  24  26
HETATM   26  N6  UNL     1      43.792 -15.242 114.666  1.00  0.00    -0.323 N
ATOM     27  H62 UNL     1      44.217 -14.725 113.896  1.00  0.00     0.178 HD
ATOM     28  H61 UNL     1      43.402 -14.552 115.309  1.00  0.00     0.178 HD
ENDBRANCH  24  26
ENDBRANCH  19  20
ENDBRANCH  15  19
ENDBRANCH  14  15
ENDBRANCH   8  14
BRANCH   7  29
HETATM   29  O2  UNL     1      40.684 -18.406 118.052  1.00  0.00    -0.344 OA
ATOM     30  H2  UNL     1      40.263 -17.832 117.424  1.00  0.00     0.219 HD
ENDBRANCH   7  29
BRANCH   1  31
HETATM   31  N1  UNL     1      37.817 -23.768 116.030  1.00  0.00    -0.234 N
ATOM     32  H12 UNL     1      38.242 -24.414 115.366  1.00  0.00     0.174 HD
ATOM     33  H11 UNL     1      36.862 -23.907 116.360  1.00  0.00     0.174 HD
ENDBRANCH   1  31
TORSDOF 9
ENDMDL