MODEL 5
REMARK VINA RESULT: -5.592190386      2.727      7.243
REMARK  10 active torsions:
REMARK  status: ('A' for Active; 'I' for Inactive)
REMARK    1  A    between atoms: O1_2  and  C2_3
REMARK    2  A    between atoms: C2_3  and  C3_5
REMARK    3  A    between atoms: C3_5  and  N1_6
REMARK    4  A    between atoms: C3_5  and  C9_26
REMARK       I    between atoms: N1_6  and  C4_8
REMARK    5  A    between atoms: C4_8  and  C5_10
REMARK    6  A    between atoms: C5_10  and  O4_11
REMARK    7  A    between atoms: N3_18  and  O5_19
REMARK    8  A    between atoms: N4_22  and  O6_24
REMARK       I    between atoms: C9_26  and  N5_28
REMARK    9  A    between atoms: N5_28  and  N6_30
REMARK   10  A    between atoms: N6_30  and  N7_31
ROOT
HETATM    1  N1  UNL     1      42.199 -20.232 118.357  1.00  0.00    -0.337 N
ATOM      2  H1  UNL     1      42.615 -21.002 117.833  1.00  0.00     0.164 HD
HETATM    3  C4  UNL     1      41.695 -19.139 117.621  1.00  0.00     0.261 C
HETATM    4  O3  UNL     1      41.168 -18.189 118.241  1.00  0.00    -0.270 OA
ENDROOT
BRANCH   3   5
HETATM    5  C5  UNL     1      41.768 -19.083 116.166  1.00  0.00     0.207 C
HETATM    6  C6  UNL     1      42.546 -20.219 115.533  1.00  0.00     0.134 C
HETATM    7  C7  UNL     1      42.116 -20.087 114.113  1.00  0.00     0.109 C
HETATM    8  N2  UNL     1      42.824 -20.311 113.052  1.00  0.00    -0.387 N
HETATM    9  N3  UNL     1      40.760 -19.665 114.169  1.00  0.00    -0.195 N
ATOM     10  H22 UNL     1      43.798 -20.614 113.013  1.00  0.00     0.157 HD
ATOM     11  H21 UNL     1      42.530 -20.221 112.080  1.00  0.00     0.157 HD
HETATM   12  C8  UNL     1      40.442 -19.275 115.527  1.00  0.00     0.175 C
HETATM   13  N4  UNL     1      39.245 -19.149 115.959  1.00  0.00    -0.252 N
ATOM     14  H4  UNL     1      38.509 -19.353 115.283  1.00  0.00     0.195 HD
BRANCH   5  15
HETATM   15  O4  UNL     1      42.382 -17.906 115.720  1.00  0.00    -0.372 OA
ATOM     16  H4  UNL     1      42.866 -18.043 114.913  1.00  0.00     0.211 HD
ENDBRANCH   5  15
BRANCH   9  17
HETATM   17  O5  UNL     1      39.849 -19.608 113.143  1.00  0.00    -0.280 OA
ATOM     18  H5  UNL     1      38.992 -19.197 113.144  1.00  0.00     0.245 HD
ENDBRANCH   9  17
BRANCH  13  19
HETATM   19  O6  UNL     1      38.823 -18.781 117.193  1.00  0.00    -0.288 OA
ATOM     20  H6  UNL     1      38.678 -19.324 117.958  1.00  0.00     0.244 HD
ENDBRANCH  13  19
ENDBRANCH   3   5
BRANCH   1  21
HETATM   21  C3  UNL     1      42.169 -20.340 119.793  1.00  0.00     0.278 C
BRANCH  21  22
HETATM   22  C2  UNL     1      42.030 -21.771 120.209  1.00  0.00     0.290 C
HETATM   23  O2  UNL     1      41.960 -22.651 119.299  1.00  0.00    -0.262 OA
BRANCH  22  24
HETATM   24  O1  UNL     1      41.973 -22.211 121.507  1.00  0.00    -0.324 OA
HETATM   25  C1  UNL     1      42.731 -23.356 121.914  1.00  0.00     0.213 C
ENDBRANCH  22  24
ENDBRANCH  21  22
BRANCH  21  26
HETATM   26  C9  UNL     1      43.365 -19.804 120.447  1.00  0.00     0.267 C
HETATM   27  O7  UNL     1      44.309 -19.406 119.686  1.00  0.00    -0.269 OA
HETATM   28  N5  UNL     1      43.515 -19.711 121.851  1.00  0.00    -0.252 N
ATOM     29  H5  UNL     1      42.766 -20.022 122.470  1.00  0.00     0.187 HD
BRANCH  28  30
HETATM   30  N6  UNL     1      44.704 -19.186 122.382  1.00  0.00    -0.027 NA
BRANCH  30  31
HETATM   31  N7  UNL     1      44.791 -17.812 122.292  1.00  0.00    -0.329 N
ATOM     32  H72 UNL     1      44.834 -17.213 123.116  1.00  0.00     0.174 HD
ATOM     33  H71 UNL     1      44.808 -17.465 121.333  1.00  0.00     0.174 HD
ENDBRANCH  30  31
ENDBRANCH  28  30
ENDBRANCH  21  26
ENDBRANCH   1  21
TORSDOF 10
ENDMDL