MODEL 3
REMARK VINA RESULT: -6.056840828      3.134      5.191
REMARK  7 active torsions:
REMARK  status: ('A' for Active; 'I' for Inactive)
REMARK       I    between atoms: C1_2  and  N5_21
REMARK    1  A    between atoms: N2_3  and  C2_5
REMARK    2  A    between atoms: C2_5  and  O1_6
REMARK    3  A    between atoms: C2_5  and  C3_8
REMARK    4  A    between atoms: N3_12  and  O3_13
REMARK    5  A    between atoms: N5_21  and  C8_23
REMARK    6  A    between atoms: C8_23  and  C9_24
REMARK    7  A    between atoms: C10_27  and  O6_28
ROOT
HETATM    1  C2  UNL     1      43.898 -16.894 115.056  1.00  0.00     0.271 C
ENDROOT
BRANCH   1   2
HETATM    2  N2  UNL     1      45.104 -17.627 115.378  1.00  0.00    -0.333 N
HETATM    3  C1  UNL     1      45.191 -18.463 116.342  1.00  0.00     0.186 C
HETATM    4  N1  UNL     1      46.419 -19.121 116.565  1.00  0.00    -0.064 NA
HETATM    5  N5  UNL     1      44.083 -18.717 117.162  1.00  0.00    -0.361 N
ATOM      6  H5  UNL     1      44.016 -18.194 118.036  1.00  0.00     0.162 HD
ATOM      7  H2  UNL     1      45.931 -17.468 114.804  1.00  0.00     0.165 HD
BRANCH   5   8
HETATM    8  C8  UNL     1      43.034 -19.657 116.872  1.00  0.00     0.173 C
BRANCH   8   9
HETATM    9  C9  UNL     1      41.685 -19.058 117.210  1.00  0.00     0.252 C
HETATM   10  N6  UNL     1      41.018 -20.000 118.091  1.00  0.00    -0.110 NA
HETATM   11  N7  UNL     1      39.937 -20.458 117.311  1.00  0.00    -0.086 NA
HETATM   12  C10 UNL     1      39.619 -19.225 116.572  1.00  0.00     0.375 C
HETATM   13  O7  UNL     1      40.888 -18.879 116.108  1.00  0.00    -0.322 OA
BRANCH  12  14
HETATM   14  O6  UNL     1      39.125 -18.328 117.497  1.00  0.00    -0.357 OA
ATOM     15  H6  UNL     1      38.970 -17.514 117.031  1.00  0.00     0.214 HD
ENDBRANCH  12  14
ENDBRANCH   8   9
ENDBRANCH   5   8
ENDBRANCH   1   2
BRANCH   1  16
HETATM   16  O1  UNL     1      44.153 -15.568 114.751  1.00  0.00    -0.371 OA
ATOM     17  H1  UNL     1      44.032 -14.995 115.499  1.00  0.00     0.212 HD
ENDBRANCH   1  16
BRANCH   1  18
HETATM   18  C3  UNL     1      43.264 -17.530 113.862  1.00  0.00     0.066 C
HETATM   19  C4  UNL     1      44.067 -18.387 113.129  1.00  0.00     0.106 C
HETATM   20  C5  UNL     1      43.800 -19.127 111.996  1.00  0.00     0.276 C
HETATM   21  O2  UNL     1      44.709 -19.874 111.552  1.00  0.00    -0.266 OA
HETATM   22  N3  UNL     1      42.657 -19.152 111.286  1.00  0.00    -0.145 N
HETATM   23  C6  UNL     1      41.442 -18.685 111.686  1.00  0.00     0.342 C
HETATM   24  O4  UNL     1      40.489 -19.070 110.978  1.00  0.00    -0.259 OA
HETATM   25  C7  UNL     1      41.156 -17.858 112.754  1.00  0.00     0.316 C
HETATM   26  O5  UNL     1      39.929 -17.647 112.994  1.00  0.00    -0.262 OA
HETATM   27  N4  UNL     1      41.980 -17.222 113.604  1.00  0.00    -0.318 N
ATOM     28  H4  UNL     1      41.592 -16.423 114.105  1.00  0.00     0.169 HD
BRANCH  22  29
HETATM   29  O3  UNL     1      42.771 -19.706 110.049  1.00  0.00    -0.277 OA
ATOM     30  H3  UNL     1      42.976 -19.089 109.356  1.00  0.00     0.245 HD
ENDBRANCH  22  29
ENDBRANCH   1  18
TORSDOF 7
ENDMDL