MODEL 5
REMARK VINA RESULT: -6.246747211      2.498      3.280
REMARK  10 active torsions:
REMARK  status: ('A' for Active; 'I' for Inactive)
REMARK       I    between atoms: C1_2  and  N7_29
REMARK    1  A    between atoms: N2_3  and  N3_5
REMARK    2  A    between atoms: N4_9  and  O1_10
REMARK    3  A    between atoms: C4_12  and  C5_13
REMARK    4  A    between atoms: C5_13  and  C6_14
REMARK    5  A    between atoms: N6_20  and  O3_21
REMARK    6  A    between atoms: C9_23  and  O4_24
REMARK    7  A    between atoms: C10_26  and  O5_27
REMARK    8  A    between atoms: N7_29  and  N8_31
REMARK    9  A    between atoms: N8_31  and  N9_32
REMARK   10  A    between atoms: N8_31  and  O6_35
ROOT
HETATM    1  N3  UNL     1      43.372 -19.977 120.762  1.00  0.00    -0.303 N
ATOM      2  H3  UNL     1      42.690 -19.664 121.453  1.00  0.00     0.186 HD
HETATM    3  C2  UNL     1      44.599 -19.651 120.934  1.00  0.00     0.050 C
HETATM    4  C3  UNL     1      45.599 -20.078 119.972  1.00  0.00     0.177 C
HETATM    5  N4  UNL     1      46.661 -19.155 119.732  1.00  0.00    -0.187 NA
HETATM    6  C4  UNL     1      46.914 -18.219 120.774  1.00  0.00     0.123 C
HETATM    7  C9  UNL     1      46.522 -18.814 122.121  1.00  0.00     0.173 C
HETATM    8  C10 UNL     1      44.987 -18.843 122.110  1.00  0.00     0.196 C
ENDROOT
BRANCH   1   9
HETATM    9  N2  UNL     1      42.916 -20.734 119.686  1.00  0.00    -0.273 N
HETATM   10  C1  UNL     1      41.968 -20.340 118.904  1.00  0.00     0.221 C
HETATM   11  N1  UNL     1      41.507 -21.120 117.806  1.00  0.00    -0.061 NA
HETATM   12  N7  UNL     1      41.341 -19.089 119.118  1.00  0.00    -0.250 N
ATOM     13  H7  UNL     1      41.099 -18.797 120.064  1.00  0.00     0.187 HD
ATOM     14  H2  UNL     1      43.350 -21.640 119.509  1.00  0.00     0.189 HD
BRANCH  12  15
HETATM   15  N8  UNL     1      41.056 -18.260 118.047  1.00  0.00    -0.009 NA
BRANCH  15  16
HETATM   16  N9  UNL     1      39.835 -18.594 117.500  1.00  0.00    -0.322 NA
ATOM     17  H92 UNL     1      39.916 -19.499 117.037  1.00  0.00     0.175 HD
ATOM     18  H91 UNL     1      39.111 -18.576 118.218  1.00  0.00     0.175 HD
ENDBRANCH  15  16
BRANCH  15  19
HETATM   19  O6  UNL     1      41.999 -18.305 117.076  1.00  0.00    -0.276 OA
ATOM     20  H6  UNL     1      41.924 -17.592 116.452  1.00  0.00     0.241 HD
ENDBRANCH  15  19
ENDBRANCH  12  15
ENDBRANCH   1   9
BRANCH   8  21
HETATM   21  O5  UNL     1      44.602 -17.495 121.948  1.00  0.00    -0.387 OA
ATOM     22  H5  UNL     1      45.207 -16.912 122.391  1.00  0.00     0.210 HD
ENDBRANCH   8  21
BRANCH   5  23
HETATM   23  O1  UNL     1      47.751 -19.881 119.388  1.00  0.00    -0.312 OA
ATOM     24  H1  UNL     1      48.368 -19.284 118.979  1.00  0.00     0.237 HD
ENDBRANCH   5  23
BRANCH   7  25
HETATM   25  O4  UNL     1      47.014 -18.090 123.183  1.00  0.00    -0.391 OA
ATOM     26  H4  UNL     1      47.211 -18.634 123.936  1.00  0.00     0.210 HD
ENDBRANCH   7  25
BRANCH   6  27
HETATM   27  C5  UNL     1      48.361 -17.875 120.838  1.00  0.00     0.086 C
BRANCH  27  28
HETATM   28  C6  UNL     1      48.672 -16.550 120.246  1.00  0.00     0.062 A
HETATM   29  C7  UNL     1      48.907 -15.348 120.824  1.00  0.00     0.120 A
HETATM   30  N5  UNL     1      49.139 -14.462 119.850  1.00  0.00    -0.315 N
HETATM   31  C8  UNL     1      49.054 -15.086 118.641  1.00  0.00     0.350 A
ATOM     32  H5  UNL     1      49.347 -13.474 119.989  1.00  0.00     0.170 HD
HETATM   33  O2  UNL     1      49.217 -14.550 117.505  1.00  0.00    -0.244 OA
HETATM   34  N6  UNL     1      48.765 -16.371 118.914  1.00  0.00    -0.176 N
BRANCH  34  35
HETATM   35  O3  UNL     1      48.602 -17.319 117.912  1.00  0.00    -0.279 OA
ATOM     36  H3  UNL     1      49.228 -17.578 117.245  1.00  0.00     0.245 HD
ENDBRANCH  34  35
ENDBRANCH  27  28
ENDBRANCH   6  27
TORSDOF 10
ENDMDL