MODEL 2
REMARK VINA RESULT: -5.762213886      1.909      5.058
REMARK  8 active torsions:
REMARK  status: ('A' for Active; 'I' for Inactive)
REMARK    1  A    between atoms: C2_2  and  O1_3
REMARK    2  A    between atoms: C2_2  and  C3_5
REMARK    3  A    between atoms: C3_5  and  C4_6
REMARK    4  A    between atoms: C6_14  and  O4_15
REMARK    5  A    between atoms: C6_14  and  C7_17
REMARK    6  A    between atoms: C7_17  and  O5_18
REMARK    7  A    between atoms: C8_21  and  C9_22
REMARK    8  A    between atoms: N4_26  and  O8_27
ROOT
HETATM    1  C3  UNL     1      40.057 -20.437 116.699  1.00  0.00     0.259 C
HETATM    2  N1  UNL     1      40.234 -19.857 115.396  1.00  0.00    -0.186 N
ATOM      3  H1  UNL     1      39.598 -19.925 114.601  1.00  0.00     0.180 HD
HETATM    4  C5  UNL     1      41.479 -19.169 115.442  1.00  0.00     0.695 C
HETATM    5  N2  UNL     1      42.032 -18.422 114.566  1.00  0.00    -0.181 N
ATOM      6  H2  UNL     1      41.505 -18.298 113.701  1.00  0.00     0.182 HD
HETATM    7  C6  UNL     1      43.272 -17.744 114.627  1.00  0.00     0.222 C
HETATM    8  S1  UNL     1      44.109 -17.921 116.223  1.00  0.00    -0.068 SA
HETATM    9  C8  UNL     1      43.494 -19.534 116.879  1.00  0.00     0.290 C
HETATM   10  N3  UNL     1      42.053 -19.478 116.726  1.00  0.00    -0.092 N
HETATM   11  N4  UNL     1      40.951 -19.656 117.563  1.00  0.00    -0.044 NA
ENDROOT
BRANCH   1  12
HETATM   12  C2  UNL     1      38.614 -20.311 117.088  1.00  0.00     0.173 C
HETATM   13  C1  UNL     1      37.879 -21.528 116.601  1.00  0.00     0.044 C
BRANCH  12  14
HETATM   14  O1  UNL     1      38.004 -19.198 116.519  1.00  0.00    -0.391 OA
ATOM     15  H1  UNL     1      38.042 -18.495 117.156  1.00  0.00     0.210 HD
ENDBRANCH  12  14
ENDBRANCH   1  12
BRANCH   1  16
HETATM   16  C4  UNL     1      40.542 -21.833 116.772  1.00  0.00     0.226 C
HETATM   17  O2  UNL     1      40.818 -22.423 117.846  1.00  0.00    -0.645 OA
HETATM   18  O3  UNL     1      40.699 -22.520 115.578  1.00  0.00    -0.645 OA
ENDBRANCH   1  16
BRANCH  11  19
HETATM   19  O8  UNL     1      40.393 -18.428 117.801  1.00  0.00    -0.290 OA
ATOM     20  H8  UNL     1      39.935 -18.446 118.632  1.00  0.00     0.239 HD
ENDBRANCH  11  19
BRANCH   9  21
HETATM   21  C9  UNL     1      43.927 -19.721 118.248  1.00  0.00     0.209 C
HETATM   22  O6  UNL     1      44.365 -18.894 119.068  1.00  0.00    -0.646 OA
HETATM   23  O7  UNL     1      43.854 -21.043 118.777  1.00  0.00    -0.646 OA
ENDBRANCH   9  21
BRANCH   7  24
HETATM   24  O4  UNL     1      44.124 -18.342 113.671  1.00  0.00    -0.360 OA
ATOM     25  H4  UNL     1      45.017 -18.119 113.910  1.00  0.00     0.213 HD
ENDBRANCH   7  24
BRANCH   7  26
HETATM   26  C7  UNL     1      43.117 -16.283 114.248  1.00  0.00     0.238 C
BRANCH  26  27
HETATM   27  O5  UNL     1      44.035 -15.494 114.910  1.00  0.00    -0.395 OA
ATOM     28  H5  UNL     1      44.022 -14.602 114.583  1.00  0.00     0.209 HD
ENDBRANCH  26  27
ENDBRANCH   7  26
TORSDOF 8
ENDMDL