MODEL 1
REMARK VINA RESULT: -5.877460957      0.000      0.000
REMARK  9 active torsions:
REMARK  status: ('A' for Active; 'I' for Inactive)
REMARK    1  A    between atoms: N1_1  and  N2_4
REMARK    2  A    between atoms: N2_4  and  C1_6
REMARK    3  A    between atoms: C1_6  and  N3_7
REMARK    4  A    between atoms: C1_6  and  C2_11
REMARK       I    between atoms: C2_11  and  N4_13
REMARK    5  A    between atoms: N4_13  and  N5_15
REMARK    6  A    between atoms: C3_16  and  O2_17
REMARK    7  A    between atoms: C6_21  and  O3_22
REMARK    8  A    between atoms: C7_24  and  C8_25
REMARK    9  A    between atoms: C7_24  and  C9_28
ROOT
HETATM    1  N5  UNL     1      42.286 -20.131 119.168  1.00  0.00    -0.207 N
HETATM    2  C3  UNL     1      42.572 -21.280 118.490  1.00  0.00     0.181 A
HETATM    3  C4  UNL     1      41.917 -21.283 117.287  1.00  0.00     0.106 A
HETATM    4  C5  UNL     1      41.207 -20.123 117.201  1.00  0.00     0.070 A
HETATM    5  C6  UNL     1      41.466 -19.425 118.406  1.00  0.00     0.175 A
HETATM    6  C7  UNL     1      40.499 -20.112 115.918  1.00  0.00     0.268 A
HETATM    7  O7  UNL     1      40.837 -21.305 115.272  1.00  0.00    -0.280 OA
HETATM    8  C10 UNL     1      41.680 -22.033 116.058  1.00  0.00     0.300 A
HETATM    9  O8  UNL     1      42.202 -23.165 115.829  1.00  0.00    -0.259 OA
ENDROOT
BRANCH   1  10
HETATM   10  N4  UNL     1      42.800 -19.837 120.415  1.00  0.00    -0.256 N
HETATM   11  C2  UNL     1      44.112 -19.696 120.846  1.00  0.00     0.288 C
HETATM   12  O1  UNL     1      45.112 -19.819 120.141  1.00  0.00    -0.267 OA
ATOM     13  H4  UNL     1      42.098 -19.701 121.142  1.00  0.00     0.191 HD
BRANCH  11  14
HETATM   14  C1  UNL     1      44.382 -19.364 122.298  1.00  0.00     0.389 C
BRANCH  14  15
HETATM   15  N2  UNL     1      44.584 -17.967 122.474  1.00  0.00    -0.305 N
ATOM     16  H2  UNL     1      43.993 -17.417 123.097  1.00  0.00     0.182 HD
BRANCH  15  17
HETATM   17  N1  UNL     1      45.609 -17.395 121.768  1.00  0.00    -0.347 N
ATOM     18  H12 UNL     1      46.580 -17.594 122.009  1.00  0.00     0.176 HD
ATOM     19  H11 UNL     1      45.352 -16.770 121.004  1.00  0.00     0.176 HD
ENDBRANCH  15  17
ENDBRANCH  14  15
BRANCH  14  20
HETATM   20  N3  UNL     1      43.388 -19.963 123.135  1.00  0.00    -0.048 N
ATOM     21  H33 UNL     1      42.747 -19.248 123.477  1.00  0.00     0.277 HD
ATOM     22  H32 UNL     1      42.752 -20.524 122.569  1.00  0.00     0.277 HD
ATOM     23  H31 UNL     1      43.738 -20.518 123.916  1.00  0.00     0.277 HD
ENDBRANCH  14  20
ENDBRANCH  11  14
ENDBRANCH   1  10
BRANCH   2  24
HETATM   24  O2  UNL     1      43.392 -22.285 118.939  1.00  0.00    -0.344 OA
ATOM     25  H2  UNL     1      44.342 -22.263 118.937  1.00  0.00     0.219 HD
ENDBRANCH   2  24
BRANCH   5  26
HETATM   26  O3  UNL     1      40.867 -18.189 118.603  1.00  0.00    -0.344 OA
ATOM     27  H3  UNL     1      39.988 -17.954 118.876  1.00  0.00     0.219 HD
ENDBRANCH   5  26
BRANCH   6  28
HETATM   28  C8  UNL     1      40.967 -18.924 115.149  1.00  0.00     0.282 C
HETATM   29  N6  UNL     1      40.331 -18.592 113.943  1.00  0.00    -0.058 NA
HETATM   30  O4  UNL     1      41.913 -18.262 115.605  1.00  0.00    -0.272 OA
ENDBRANCH   6  28
BRANCH   6  31
HETATM   31  C9  UNL     1      39.018 -20.078 116.089  1.00  0.00     0.225 C
HETATM   32  O5  UNL     1      38.528 -19.231 116.869  1.00  0.00    -0.645 OA
HETATM   33  O6  UNL     1      38.198 -20.956 115.405  1.00  0.00    -0.645 OA
ENDBRANCH   6  31
TORSDOF 9
ENDMDL