MODEL 2
REMARK VINA RESULT: -5.928179563      0.749      1.026
REMARK  9 active torsions:
REMARK  status: ('A' for Active; 'I' for Inactive)
REMARK    1  A    between atoms: N1_1  and  N2_4
REMARK       I    between atoms: N2_4  and  C1_6
REMARK    2  A    between atoms: C1_6  and  C2_8
REMARK    3  A    between atoms: C2_8  and  C3_9
REMARK    4  A    between atoms: C2_8  and  N3_13
REMARK    5  A    between atoms: C3_9  and  C4_10
REMARK    6  A    between atoms: C4_10  and  O2_11
REMARK    7  A    between atoms: C9_25  and  C10_26
REMARK    8  A    between atoms: C10_26  and  O6_27
REMARK    9  A    between atoms: C10_26  and  O7_29
ROOT
HETATM    1  N3  UNL     1      42.774 -19.093 114.415  1.00  0.00    -0.270 N
HETATM    2  C5  UNL     1      44.077 -18.928 114.663  1.00  0.00     0.331 A
HETATM    3  O3  UNL     1      44.890 -18.793 113.712  1.00  0.00    -0.246 OA
HETATM    4  N4  UNL     1      44.615 -18.890 115.893  1.00  0.00    -0.274 N
ATOM      5  H4  UNL     1      45.620 -18.762 116.013  1.00  0.00     0.173 HD
HETATM    6  C6  UNL     1      43.819 -19.024 116.958  1.00  0.00     0.269 A
HETATM    7  O4  UNL     1      44.331 -18.988 118.118  1.00  0.00    -0.267 OA
HETATM    8  C7  UNL     1      42.480 -19.195 116.783  1.00  0.00     0.144 A
HETATM    9  C8  UNL     1      41.677 -19.324 117.905  1.00  0.00     0.266 A
HETATM   10  O5  UNL     1      42.213 -19.286 119.051  1.00  0.00    -0.267 OA
HETATM   11  N5  UNL     1      40.357 -19.484 117.717  1.00  0.00    -0.308 N
ATOM     12  H5  UNL     1      39.738 -19.581 118.521  1.00  0.00     0.170 HD
HETATM   13  C9  UNL     1      39.851 -19.518 116.473  1.00  0.00     0.141 A
HETATM   14  N6  UNL     1      40.636 -19.391 115.368  1.00  0.00    -0.327 N
ATOM     15  H6  UNL     1      40.216 -19.419 114.439  1.00  0.00     0.169 HD
HETATM   16  C11 UNL     1      41.962 -19.229 115.497  1.00  0.00     0.135 A
ENDROOT
BRANCH   1  17
HETATM   17  C2  UNL     1      42.248 -19.137 113.045  1.00  0.00     0.192 C
BRANCH  17  18
HETATM   18  C1  UNL     1      42.905 -20.209 112.267  1.00  0.00     0.259 C
HETATM   19  N2  UNL     1      43.692 -19.860 111.153  1.00  0.00    -0.275 N
ATOM     20  H2  UNL     1      43.789 -18.874 110.912  1.00  0.00     0.189 HD
HETATM   21  O1  UNL     1      42.774 -21.394 112.576  1.00  0.00    -0.269 OA
BRANCH  19  22
HETATM   22  N1  UNL     1      44.353 -20.820 110.357  1.00  0.00    -0.343 N
ATOM     23  H12 UNL     1      43.894 -21.721 110.224  1.00  0.00     0.176 HD
ATOM     24  H11 UNL     1      45.258 -20.645 109.920  1.00  0.00     0.176 HD
ENDBRANCH  19  22
ENDBRANCH  17  18
BRANCH  17  25
HETATM   25  C3  UNL     1      42.275 -17.790 112.411  1.00  0.00     0.061 C
BRANCH  25  26
HETATM   26  C4  UNL     1      41.182 -16.858 112.697  1.00  0.00     0.166 C
BRANCH  26  27
HETATM   27  O2  UNL     1      40.004 -17.544 113.087  1.00  0.00    -0.401 OA
ATOM     28  H2  UNL     1      39.535 -17.882 112.333  1.00  0.00     0.209 HD
ENDBRANCH  26  27
ENDBRANCH  25  26
ENDBRANCH  17  25
ENDBRANCH   1  17
BRANCH  13  29
HETATM   29  C10 UNL     1      38.395 -19.696 116.322  1.00  0.00     0.323 C
BRANCH  29  30
HETATM   30  O6  UNL     1      37.750 -19.664 117.570  1.00  0.00    -0.365 OA
ATOM     31  H6  UNL     1      37.477 -20.535 117.835  1.00  0.00     0.213 HD
ENDBRANCH  29  30
BRANCH  29  32
HETATM   32  O7  UNL     1      38.066 -20.860 115.633  1.00  0.00    -0.365 OA
ATOM     33  H7  UNL     1      38.084 -21.630 116.188  1.00  0.00     0.213 HD
ENDBRANCH  29  32
ENDBRANCH  13  29
TORSDOF 9
ENDMDL