MODEL 3
REMARK VINA RESULT: -6.149024691      6.196      9.255
REMARK  7 active torsions:
REMARK  status: ('A' for Active; 'I' for Inactive)
REMARK    1  A    between atoms: N1_1  and  N2_4
REMARK       I    between atoms: N2_4  and  C1_6
REMARK    2  A    between atoms: C1_6  and  C2_8
REMARK    3  A    between atoms: N4_11  and  C4_12
REMARK    4  A    between atoms: C5_14  and  O3_15
REMARK    5  A    between atoms: C6_17  and  C7_18
REMARK    6  A    between atoms: C7_18  and  O4_19
REMARK    7  A    between atoms: C7_18  and  C8_21
ROOT
HETATM    1  C2  UNL     1      46.210 -18.591 115.004  1.00  0.00     0.143 A
HETATM    2  C3  UNL     1      44.996 -18.279 115.636  1.00  0.00     0.147 A
HETATM    3  N3  UNL     1      44.561 -16.919 115.666  1.00  0.00    -0.081 NA
HETATM    4  N4  UNL     1      44.296 -19.269 116.185  1.00  0.00    -0.235 N
HETATM    5  C9  UNL     1      44.736 -20.536 116.138  1.00  0.00     0.334 A
HETATM    6  O7  UNL     1      44.025 -21.446 116.680  1.00  0.00    -0.246 OA
HETATM    7  N6  UNL     1      45.875 -20.893 115.555  1.00  0.00    -0.274 N
ATOM      8  H6  UNL     1      46.182 -21.866 115.536  1.00  0.00     0.173 HD
HETATM    9  C10 UNL     1      46.614 -19.901 114.983  1.00  0.00     0.268 A
HETATM   10  O8  UNL     1      47.677 -20.291 114.447  1.00  0.00    -0.267 OA
ENDROOT
BRANCH   4  11
HETATM   11  C4  UNL     1      43.037 -18.967 116.844  1.00  0.00     0.385 C
HETATM   12  O2  UNL     1      42.228 -18.130 116.116  1.00  0.00    -0.310 OA
HETATM   13  C5  UNL     1      41.462 -19.009 115.368  1.00  0.00     0.293 C
HETATM   14  C6  UNL     1      41.170 -20.102 116.368  1.00  0.00     0.219 C
HETATM   15  O6  UNL     1      42.365 -20.135 117.098  1.00  0.00    -0.330 OA
BRANCH  13  16
HETATM   16  O3  UNL     1      40.327 -18.444 114.842  1.00  0.00    -0.368 OA
ATOM     17  H3  UNL     1      39.657 -18.256 115.488  1.00  0.00     0.212 HD
ENDBRANCH  13  16
BRANCH  14  18
HETATM   18  C7  UNL     1      40.087 -19.714 117.346  1.00  0.00     0.241 C
BRANCH  18  19
HETATM   19  O4  UNL     1      39.972 -18.363 117.537  1.00  0.00    -0.384 OA
ATOM     20  H4  UNL     1      39.234 -18.113 118.082  1.00  0.00     0.210 HD
ENDBRANCH  18  19
BRANCH  18  21
HETATM   21  C8  UNL     1      38.810 -20.309 116.809  1.00  0.00     0.262 C
HETATM   22  N5  UNL     1      38.576 -21.711 116.810  1.00  0.00    -0.060 NA
HETATM   23  O5  UNL     1      37.911 -19.562 116.342  1.00  0.00    -0.274 OA
ENDBRANCH  18  21
ENDBRANCH  14  18
ENDBRANCH   4  11
BRANCH   1  24
HETATM   24  C1  UNL     1      46.974 -17.515 114.405  1.00  0.00     0.278 C
HETATM   25  N2  UNL     1      46.803 -16.938 113.141  1.00  0.00    -0.272 N
ATOM     26  H2  UNL     1      46.065 -17.280 112.526  1.00  0.00     0.189 HD
HETATM   27  O1  UNL     1      47.937 -17.008 115.099  1.00  0.00    -0.266 OA
BRANCH  25  28
HETATM   28  N1  UNL     1      47.648 -15.881 112.706  1.00  0.00    -0.342 N
ATOM     29  H12 UNL     1      48.285 -15.455 113.380  1.00  0.00     0.176 HD
ATOM     30  H11 UNL     1      47.617 -15.555 111.740  1.00  0.00     0.176 HD
ENDBRANCH  25  28
ENDBRANCH   1  24
TORSDOF 7
ENDMDL