MODEL 3
REMARK VINA RESULT: -5.849857210      3.710      5.089
REMARK  10 active torsions:
REMARK  status: ('A' for Active; 'I' for Inactive)
REMARK    1  A    between atoms: C1_4  and  O1_6
REMARK    2  A    between atoms: O1_6  and  C2_7
REMARK    3  A    between atoms: C3_8  and  C4_9
REMARK    4  A    between atoms: C4_9  and  O2_10
REMARK    5  A    between atoms: C4_9  and  O3_12
REMARK    6  A    between atoms: C5_15  and  O5_16
REMARK    7  A    between atoms: O5_16  and  S1_17
REMARK    8  A    between atoms: S1_17  and  N3_18
REMARK    9  A    between atoms: C7_24  and  O8_25
REMARK   10  A    between atoms: C7_24  and  C8_27
ROOT
HETATM    1  C2  UNL     1      41.385 -19.419 116.031  1.00  0.00     0.210 C
HETATM    2  C3  UNL     1      40.499 -19.499 117.195  1.00  0.00     0.212 C
HETATM    3  O4  UNL     1      41.029 -20.377 118.151  1.00  0.00    -0.347 OA
HETATM    4  C5  UNL     1      42.216 -20.020 118.704  1.00  0.00     0.284 C
HETATM    5  C6  UNL     1      43.286 -19.762 117.665  1.00  0.00     0.114 C
HETATM    6  C7  UNL     1      42.790 -19.035 116.484  1.00  0.00     0.179 C
ENDROOT
BRANCH   4   7
HETATM    7  O5  UNL     1      42.660 -21.087 119.484  1.00  0.00    -0.227 OA
BRANCH   7   8
HETATM    8  S1  UNL     1      42.342 -20.902 121.098  1.00  0.00     0.358 S
HETATM    9  O6  UNL     1      41.788 -22.203 121.624  1.00  0.00    -0.176 OA
HETATM   10  O7  UNL     1      43.595 -20.620 121.897  1.00  0.00    -0.176 OA
BRANCH   8  11
HETATM   11  N3  UNL     1      41.172 -19.668 121.350  1.00  0.00    -0.306 N
ATOM     12  H32 UNL     1      40.612 -19.256 120.605  1.00  0.00     0.171 HD
ATOM     13  H31 UNL     1      41.122 -19.414 122.337  1.00  0.00     0.171 HD
ENDBRANCH   8  11
ENDBRANCH   7   8
ENDBRANCH   4   7
BRANCH   2  14
HETATM   14  C4  UNL     1      39.086 -19.975 117.003  1.00  0.00     0.285 C
BRANCH  14  15
HETATM   15  O2  UNL     1      38.342 -18.939 116.400  1.00  0.00    -0.369 OA
ATOM     16  H2  UNL     1      37.772 -19.320 115.743  1.00  0.00     0.212 HD
ENDBRANCH  14  15
BRANCH  14  17
HETATM   17  O3  UNL     1      39.191 -20.936 115.942  1.00  0.00    -0.369 OA
ATOM     18  H3  UNL     1      38.289 -21.178 115.767  1.00  0.00     0.212 HD
ENDBRANCH  14  17
ENDBRANCH   2  14
BRANCH   6  19
HETATM   19  O8  UNL     1      42.730 -17.656 116.768  1.00  0.00    -0.376 OA
ATOM     20  H8  UNL     1      43.155 -17.228 116.035  1.00  0.00     0.211 HD
ENDBRANCH   6  19
BRANCH   6  21
HETATM   21  C8  UNL     1      43.761 -19.220 115.375  1.00  0.00     0.212 C
HETATM   22  O9  UNL     1      44.658 -18.374 115.146  1.00  0.00    -0.646 OA
HETATM   23  O10 UNL     1      43.719 -20.331 114.546  1.00  0.00    -0.646 OA
ENDBRANCH   6  21
BRANCH   1  24
HETATM   24  O1  UNL     1      40.998 -18.455 115.093  1.00  0.00    -0.313 OA
BRANCH  24  25
HETATM   25  C1  UNL     1      40.634 -18.690 113.794  1.00  0.00     0.225 C
HETATM   26  N1  UNL     1      40.702 -19.947 113.416  1.00  0.00    -0.368 N
ATOM     27  H12 UNL     1      40.431 -20.122 112.449  1.00  0.00     0.159 HD
ATOM     28  H11 UNL     1      41.001 -20.687 114.052  1.00  0.00     0.159 HD
HETATM   29  N2  UNL     1      40.219 -17.666 112.914  1.00  0.00    -0.057 NA
ENDBRANCH  24  25
ENDBRANCH   1  24
TORSDOF 10
ENDMDL