MODEL 3
REMARK VINA RESULT: -6.805755839      2.163      9.229
REMARK  10 active torsions:
REMARK  status: ('A' for Active; 'I' for Inactive)
REMARK    1  A    between atoms: N1_2  and  C2_4
REMARK    2  A    between atoms: C2_4  and  O1_5
REMARK    3  A    between atoms: C3_7  and  N2_8
REMARK    4  A    between atoms: C7_12  and  C8_13
REMARK    5  A    between atoms: C8_13  and  N3_14
REMARK       I    between atoms: N3_14  and  C9_16
REMARK       I    between atoms: C9_16  and  N4_18
REMARK    6  A    between atoms: N4_18  and  C11_20
REMARK    7  A    between atoms: C11_20  and  C12_21
REMARK    8  A    between atoms: C12_21  and  N5_22
REMARK    9  A    between atoms: C16_29  and  C17_30
REMARK       I    between atoms: C17_30  and  N6_32
REMARK   10  A    between atoms: N6_32  and  C18_34
ROOT
HETATM    1  C11 UNL     1       1.018  20.661  19.588  1.00  0.00     0.114 C
ENDROOT
BRANCH   1   2
HETATM    2  N4  UNL     1       2.401  20.811  19.468  1.00  0.00    -0.315 N
HETATM    3  C9  UNL     1       3.007  21.862  18.747  1.00  0.00     0.321 C
HETATM    4  N3  UNL     1       4.431  21.999  18.657  1.00  0.00    -0.342 N
HETATM    5  O2  UNL     1       2.312  22.709  18.165  1.00  0.00    -0.247 OA
ATOM      6  H3  UNL     1       4.996  21.297  19.135  1.00  0.00     0.164 HD
HETATM    7  C10 UNL     1       3.303  19.864  20.135  1.00  0.00     0.160 C
BRANCH   4   8
HETATM    8  C8  UNL     1       5.122  23.022  17.962  1.00  0.00     0.129 C
BRANCH   8   9
HETATM    9  C7  UNL     1       5.302  22.838  16.495  1.00  0.00     0.007 C
HETATM   10  C6  UNL     1       6.436  21.963  16.100  1.00  0.00     0.034 C
HETATM   11  C5  UNL     1       6.537  21.838  14.628  1.00  0.00     0.243 C
HETATM   12  N2  UNL     1       6.208  22.905  13.778  1.00  0.00    -0.047 N
HETATM   13  C4  UNL     1       7.422  23.373  13.051  1.00  0.00     0.278 C
HETATM   14  C26 UNL     1       5.579  24.072  14.384  1.00  0.00     0.243 C
HETATM   15  C25 UNL     1       5.656  24.197  15.846  1.00  0.00     0.034 C
BRANCH  12  16
HETATM   16  C3  UNL     1       5.277  22.495  12.761  1.00  0.00     0.257 C
HETATM   17  C2  UNL     1       3.995  21.945  13.062  1.00  0.00     0.159 C
BRANCH  17  18
HETATM   18  N1  UNL     1       3.388  21.689  14.280  1.00  0.00    -0.374 N
HETATM   19  C1  UNL     1       2.130  22.402  14.620  1.00  0.00     0.148 C
ATOM     20  H1  UNL     1       3.798  21.022  14.933  1.00  0.00     0.161 HD
ENDBRANCH  17  18
BRANCH  17  21
HETATM   21  O1  UNL     1       3.282  21.633  12.009  1.00  0.00    -0.345 OA
ATOM     22  H1  UNL     1       2.345  21.585  12.156  1.00  0.00     0.219 HD
ENDBRANCH  17  21
ENDBRANCH  12  16
ENDBRANCH   8   9
ENDBRANCH   4   8
ENDBRANCH   1   2
BRANCH   1  23
HETATM   23  C12 UNL     1       0.252  19.995  18.476  1.00  0.00     0.216 C
HETATM   24  C13 UNL     1      -1.083  20.710  18.340  1.00  0.00     0.058 C
HETATM   25  C14 UNL     1      -1.909  20.089  17.280  1.00  0.00     0.003 A
HETATM   26  C15 UNL     1      -2.196  18.672  17.541  1.00  0.00     0.019 A
HETATM   27  C22 UNL     1      -3.294  19.620  17.574  1.00  0.00    -0.038 A
HETATM   28  C16 UNL     1      -1.454  18.135  18.749  1.00  0.00     0.155 C
HETATM   29  C21 UNL     1      -0.015  18.569  18.665  1.00  0.00     0.181 C
HETATM   30  O4  UNL     1       0.862  17.756  18.751  1.00  0.00    -0.294 OA
HETATM   31  C23 UNL     1      -3.939  20.145  18.829  1.00  0.00     0.015 C
HETATM   32  C24 UNL     1      -4.228  19.598  16.366  1.00  0.00     0.015 C
BRANCH  23  33
HETATM   33  N5  UNL     1       0.904  20.147  17.172  1.00  0.00    -0.059 N
ATOM     34  H53 UNL     1       0.282  20.601  16.502  1.00  0.00     0.276 HD
ATOM     35  H52 UNL     1       1.644  20.847  17.212  1.00  0.00     0.276 HD
ATOM     36  H51 UNL     1       1.255  19.263  16.803  1.00  0.00     0.276 HD
ENDBRANCH  23  33
BRANCH  28  37
HETATM   37  C17 UNL     1      -1.565  16.660  18.735  1.00  0.00     0.229 C
HETATM   38  O3  UNL     1      -1.765  16.066  19.825  1.00  0.00    -0.273 OA
HETATM   39  N6  UNL     1      -1.461  15.864  17.581  1.00  0.00    -0.356 N
ATOM     40  H6  UNL     1      -1.297  16.333  16.691  1.00  0.00     0.162 HD
BRANCH  39  41
HETATM   41  C18 UNL     1      -1.570  14.429  17.574  1.00  0.00     0.076 C
HETATM   42  C19 UNL     1      -0.273  13.838  18.048  1.00  0.00     0.032 C
HETATM   43  C20 UNL     1      -1.812  13.914  16.150  1.00  0.00     0.032 C
ENDBRANCH  39  41
ENDBRANCH  28  37
ENDBRANCH   1  23
TORSDOF 10
ENDMDL