MODEL 3
REMARK VINA RESULT: -7.527879475      2.836      7.446
REMARK  10 active torsions:
REMARK  status: ('A' for Active; 'I' for Inactive)
REMARK    1  A    between atoms: C6_6  and  C7_7
REMARK    2  A    between atoms: C7_7  and  C8_8
REMARK    3  A    between atoms: C10_13  and  C11_14
REMARK    4  A    between atoms: C11_14  and  C12_15
REMARK    5  A    between atoms: N2_20  and  C17_21
REMARK    6  A    between atoms: C17_21  and  C18_22
REMARK    7  A    between atoms: C18_22  and  C19_23
REMARK    8  A    between atoms: C19_23  and  N3_24
REMARK    9  A    between atoms: C23_28  and  C24_29
REMARK       I    between atoms: C24_29  and  N4_31
REMARK   10  A    between atoms: N4_31  and  C25_33
ROOT
HETATM    1  C12 UNL     1       0.560  20.444  20.462  1.00  0.00     0.006 A
HETATM    2  C13 UNL     1       1.792  21.009  20.849  1.00  0.00    -0.027 A
HETATM    3  C14 UNL     1       2.088  21.556  22.196  1.00  0.00     0.051 C
HETATM    4  C15 UNL     1       2.656  20.974  19.806  1.00  0.00     0.015 A
HETATM    5  C16 UNL     1       4.075  21.463  19.759  1.00  0.00     0.069 C
HETATM    6  N2  UNL     1       1.979  20.397  18.782  1.00  0.00    -0.345 N
HETATM    7  C23 UNL     1       0.711  20.070  19.164  1.00  0.00     0.114 A
ENDROOT
BRANCH   1   8
HETATM    8  C11 UNL     1      -0.573  20.364  21.372  1.00  0.00     0.050 C
BRANCH   8   9
HETATM    9  C10 UNL     1      -0.617  19.466  22.343  1.00  0.00     0.103 A
HETATM   10  C9  UNL     1      -0.979  18.141  22.280  1.00  0.00     0.273 A
HETATM   11  N1  UNL     1      -0.880  17.589  23.505  1.00  0.00    -0.308 N
HETATM   12  O1  UNL     1      -1.345  17.546  21.235  1.00  0.00    -0.266 OA
HETATM   13  C8  UNL     1      -0.458  18.554  24.343  1.00  0.00     0.110 A
ATOM     14  H1  UNL     1      -1.087  16.620  23.751  1.00  0.00     0.170 HD
HETATM   15  N6  UNL     1      -0.297  19.684  23.651  1.00  0.00    -0.338 N
ATOM     16  H6  UNL     1       0.018  20.573  24.041  1.00  0.00     0.167 HD
BRANCH  13  17
HETATM   17  C7  UNL     1      -0.237  18.400  25.653  1.00  0.00     0.078 C
BRANCH  17  18
HETATM   18  C6  UNL     1      -1.256  18.750  26.624  1.00  0.00     0.042 A
HETATM   19  C4  UNL     1      -1.090  19.614  27.684  1.00  0.00    -0.033 A
HETATM   20  C3  UNL     1      -2.271  19.703  28.391  1.00  0.00     0.033 A
HETATM   21  C5  UNL     1       0.139  20.368  28.070  1.00  0.00     0.050 C
HETATM   22  C2  UNL     1      -3.157  18.885  27.750  1.00  0.00     0.006 A
HETATM   23  C1  UNL     1      -4.577  18.683  28.191  1.00  0.00     0.068 C
HETATM   24  N7  UNL     1      -2.537  18.324  26.700  1.00  0.00    -0.359 N
ATOM     25  H7  UNL     1      -2.972  17.669  26.051  1.00  0.00     0.166 HD
ENDBRANCH  17  18
ENDBRANCH  13  17
ENDBRANCH   8   9
ENDBRANCH   1   8
BRANCH   7  26
HETATM   26  C24 UNL     1      -0.281  19.404  18.342  1.00  0.00     0.270 C
HETATM   27  O2  UNL     1      -1.157  20.092  17.698  1.00  0.00    -0.266 OA
HETATM   28  N4  UNL     1      -0.346  17.999  18.196  1.00  0.00    -0.341 N
ATOM     29  H4  UNL     1       0.327  17.403  18.679  1.00  0.00     0.163 HD
BRANCH  28  30
HETATM   30  C25 UNL     1      -1.387  17.397  17.345  1.00  0.00     0.190 C
HETATM   31  C26 UNL     1      -2.655  17.098  18.074  1.00  0.00     0.224 C
HETATM   32  O3  UNL     1      -3.793  17.559  18.076  1.00  0.00    -0.277 OA
HETATM   33  N5  UNL     1      -1.892  16.060  18.725  1.00  0.00    -0.242 NA
HETATM   34  C27 UNL     1      -0.806  15.087  18.443  1.00  0.00     0.121 A
HETATM   35  C28 UNL     1      -1.273  15.886  17.366  1.00  0.00     0.111 A
ENDBRANCH  28  30
ENDBRANCH   7  26
BRANCH   6  36
HETATM   36  C17 UNL     1       2.547  20.159  17.483  1.00  0.00     0.131 C
BRANCH  36  37
HETATM   37  C18 UNL     1       2.333  21.273  16.529  1.00  0.00     0.048 C
BRANCH  37  38
HETATM   38  C19 UNL     1       2.653  20.915  15.112  1.00  0.00     0.237 C
BRANCH  38  39
HETATM   39  N3  UNL     1       3.766  21.580  14.504  1.00  0.00    -0.079 N
HETATM   40  C20 UNL     1       5.032  20.927  14.757  1.00  0.00     0.271 C
HETATM   41  C21 UNL     1       3.574  21.918  13.101  1.00  0.00     0.271 C
HETATM   42  C22 UNL     1       3.865  22.886  15.215  1.00  0.00     0.271 C
ENDBRANCH  38  39
ENDBRANCH  37  38
ENDBRANCH  36  37
ENDBRANCH   6  36
TORSDOF 10
ENDMDL