MODEL 5
REMARK VINA RESULT: -6.804807148      3.342      7.023
REMARK  10 active torsions:
REMARK  status: ('A' for Active; 'I' for Inactive)
REMARK    1  A    between atoms: C2_2  and  C4_4
REMARK    2  A    between atoms: C4_4  and  C5_5
REMARK    3  A    between atoms: C9_12  and  O2_13
REMARK    4  A    between atoms: C10_17  and  C11_18
REMARK    5  A    between atoms: C11_18  and  C12_19
REMARK    6  A    between atoms: C12_19  and  C13_20
REMARK    7  A    between atoms: C13_20  and  N3_21
REMARK    8  A    between atoms: C18_29  and  C19_30
REMARK    9  A    between atoms: C19_30  and  C20_31
REMARK   10  A    between atoms: C25_39  and  O4_40
ROOT
HETATM    1  C5  UNL     1       2.248  21.790  14.606  1.00  0.00     0.178 C
HETATM    2  C6  UNL     1       1.097  21.412  13.739  1.00  0.00     0.245 C
HETATM    3  O1  UNL     1       1.387  20.628  12.805  1.00  0.00    -0.271 OA
HETATM    4  N1  UNL     1      -0.282  21.826  13.848  1.00  0.00    -0.325 N
ATOM      5  H1  UNL     1      -0.455  22.469  13.076  1.00  0.00     0.168 HD
HETATM    6  C7  UNL     1      -1.470  21.725  14.550  1.00  0.00     0.059 C
HETATM    7  C8  UNL     1      -2.055  23.167  14.682  1.00  0.00     0.072 C
HETATM    8  C9  UNL     1      -1.894  20.975  15.699  1.00  0.00     0.159 C
HETATM    9  N2  UNL     1      -2.018  21.077  17.096  1.00  0.00    -0.356 N
ATOM     10  H2  UNL     1      -2.999  21.206  17.347  1.00  0.00     0.162 HD
HETATM   11  C10 UNL     1      -1.217  21.060  18.273  1.00  0.00     0.175 C
HETATM   12  C17 UNL     1      -0.658  22.297  18.840  1.00  0.00     0.241 C
HETATM   13  O3  UNL     1      -1.520  23.248  18.939  1.00  0.00    -0.271 OA
HETATM   14  N4  UNL     1       0.654  22.611  19.289  1.00  0.00    -0.347 N
ATOM     15  H4  UNL     1       0.719  23.003  20.228  1.00  0.00     0.163 HD
HETATM   16  C18 UNL     1       1.936  22.442  18.572  1.00  0.00     0.159 C
HETATM   17  C25 UNL     1       1.650  22.139  17.137  1.00  0.00     0.137 C
HETATM   18  N6  UNL     1       1.871  21.454  16.010  1.00  0.00    -0.355 N
HETATM   19  C26 UNL     1       1.714  20.022  15.926  1.00  0.00     0.152 C
ENDROOT
BRANCH  16  20
HETATM   20  C19 UNL     1       2.906  21.584  19.248  1.00  0.00     0.038 C
BRANCH  20  21
HETATM   21  C20 UNL     1       4.035  22.026  20.016  1.00  0.00    -0.009 C
HETATM   22  C21 UNL     1       3.919  21.966  21.517  1.00  0.00     0.032 C
HETATM   23  C22 UNL     1       5.306  21.758  22.123  1.00  0.00     0.232 C
HETATM   24  N5  UNL     1       6.243  22.496  21.337  1.00  0.00    -0.075 N
HETATM   25  C23 UNL     1       5.639  23.677  20.799  1.00  0.00     0.232 C
ATOM     26  H52 UNL     1       7.089  22.712  21.864  1.00  0.00     0.277 HD
ATOM     27  H51 UNL     1       6.660  21.919  20.607  1.00  0.00     0.277 HD
HETATM   28  C24 UNL     1       4.675  23.357  19.650  1.00  0.00     0.032 C
ENDBRANCH  20  21
ENDBRANCH  16  20
BRANCH  17  29
HETATM   29  O4  UNL     1       0.707  23.031  17.013  1.00  0.00    -0.348 OA
ATOM     30  H4  UNL     1       0.251  22.577  16.315  1.00  0.00     0.219 HD
ENDBRANCH  17  29
BRANCH  11  31
HETATM   31  C11 UNL     1      -1.975  20.449  19.472  1.00  0.00     0.036 C
BRANCH  31  32
HETATM   32  C12 UNL     1      -1.695  19.003  19.643  1.00  0.00     0.030 C
BRANCH  32  33
HETATM   33  C13 UNL     1      -2.503  18.088  18.786  1.00  0.00     0.236 C
BRANCH  33  34
HETATM   34  N3  UNL     1      -1.839  16.971  18.219  1.00  0.00    -0.079 N
HETATM   35  C14 UNL     1      -1.433  15.967  19.181  1.00  0.00     0.271 C
HETATM   36  C15 UNL     1      -2.526  16.329  17.135  1.00  0.00     0.271 C
HETATM   37  C16 UNL     1      -0.579  17.501  17.658  1.00  0.00     0.271 C
ENDBRANCH  33  34
ENDBRANCH  32  33
ENDBRANCH  31  32
ENDBRANCH  11  31
BRANCH   1  38
HETATM   38  C4  UNL     1       3.548  21.134  14.339  1.00  0.00     0.039 C
BRANCH  38  39
HETATM   39  C2  UNL     1       4.848  21.625  14.740  1.00  0.00    -0.020 C
HETATM   40  C1  UNL     1       5.246  22.111  16.070  1.00  0.00     0.009 C
HETATM   41  C3  UNL     1       5.964  20.581  14.367  1.00  0.00     0.009 C
ENDBRANCH  38  39
ENDBRANCH   1  38
BRANCH   8  42
HETATM   42  O2  UNL     1      -2.315  19.768  15.294  1.00  0.00    -0.345 OA
ATOM     43  H2  UNL     1      -2.961  19.446  15.912  1.00  0.00     0.219 HD
ENDBRANCH   8  42
TORSDOF 10
ENDMDL