MODEL 5
REMARK VINA RESULT: -5.755722365      1.577      2.131
REMARK  8 active torsions:
REMARK  status: ('A' for Active; 'I' for Inactive)
REMARK    1  A    between atoms: C2_2  and  C3_3
REMARK    2  A    between atoms: C3_3  and  C4_4
REMARK    3  A    between atoms: C4_4  and  C5_5
REMARK    4  A    between atoms: C5_5  and  N1_7
REMARK       I    between atoms: N1_7  and  C7_9
REMARK       I    between atoms: C7_9  and  N2_11
REMARK    5  A    between atoms: C13_20  and  C14_21
REMARK    6  A    between atoms: C22_30  and  C23_31
REMARK    7  A    between atoms: C23_31  and  N6_32
REMARK    8  A    between atoms: C28_39  and  O2_40
ROOT
HETATM    1  N1  UNL     1       0.347  21.308  15.604  1.00  0.00    -0.337 N
ATOM      2  H1  UNL     1       1.304  20.971  15.697  1.00  0.00     0.164 HD
HETATM    3  C7  UNL     1      -0.649  20.817  16.437  1.00  0.00     0.338 C
HETATM    4  O1  UNL     1      -1.831  21.233  16.326  1.00  0.00    -0.245 OA
HETATM    5  N2  UNL     1      -0.436  19.829  17.469  1.00  0.00    -0.231 N
HETATM    6  N3  UNL     1       0.850  19.449  17.508  1.00  0.00    -0.297 N
ATOM      7  H3  UNL     1       1.312  19.207  16.631  1.00  0.00     0.187 HD
HETATM    8  C8  UNL     1       1.586  19.370  18.692  1.00  0.00     0.045 C
HETATM    9  C9  UNL     1       2.327  20.639  18.947  1.00  0.00    -0.002 A
HETATM   10  C10 UNL     1       3.374  20.946  18.058  1.00  0.00     0.031 A
HETATM   11  C11 UNL     1       4.150  22.076  18.138  1.00  0.00     0.091 A
HETATM   12  N4  UNL     1       3.914  22.940  19.105  1.00  0.00    -0.364 N
HETATM   13  C12 UNL     1       4.721  24.132  19.207  1.00  0.00     0.155 C
HETATM   14  C13 UNL     1       2.906  22.683  19.994  1.00  0.00     0.017 A
HETATM   15  C16 UNL     1       2.102  21.562  19.950  1.00  0.00    -0.021 A
HETATM   16  C17 UNL     1       1.005  21.390  20.984  1.00  0.00     0.069 C
HETATM   17  C18 UNL     1      -0.352  21.373  20.375  1.00  0.00     0.243 C
HETATM   18  N5  UNL     1      -1.309  20.447  20.629  1.00  0.00    -0.052 N
HETATM   19  C19 UNL     1      -2.172  20.810  21.789  1.00  0.00     0.274 C
HETATM   20  C20 UNL     1      -1.897  19.800  19.525  1.00  0.00     0.253 A
HETATM   21  C21 UNL     1      -1.597  19.424  18.206  1.00  0.00     0.176 C
HETATM   22  C22 UNL     1      -1.573  17.897  18.146  1.00  0.00    -0.031 C
HETATM   23  C25 UNL     1      -0.680  17.173  18.810  1.00  0.00    -0.011 C
HETATM   24  C26 UNL     1       0.436  17.384  19.699  1.00  0.00     0.059 A
HETATM   25  C27 UNL     1       1.188  18.596  19.854  1.00  0.00     0.086 A
HETATM   26  C28 UNL     1       0.074  18.565  20.672  1.00  0.00     0.106 A
HETATM   27  C29 UNL     1      -1.247  19.065  20.514  1.00  0.00     0.259 A
ENDROOT
BRANCH   1  28
HETATM   28  C5  UNL     1       0.016  22.315  14.588  1.00  0.00     0.082 C
HETATM   29  C6  UNL     1      -0.050  21.693  13.224  1.00  0.00     0.032 C
BRANCH  28  30
HETATM   30  C4  UNL     1       0.971  23.435  14.738  1.00  0.00     0.025 C
BRANCH  30  31
HETATM   31  C3  UNL     1       2.332  23.198  15.234  1.00  0.00     0.002 C
BRANCH  31  32
HETATM   32  C2  UNL     1       3.395  22.859  14.250  1.00  0.00    -0.004 C
HETATM   33  C1  UNL     1       3.793  21.375  14.378  1.00  0.00     0.005 C
ENDBRANCH  31  32
ENDBRANCH  30  31
ENDBRANCH  28  30
ENDBRANCH   1  28
BRANCH  22  34
HETATM   34  C23 UNL     1      -2.598  17.254  17.301  1.00  0.00     0.267 C
BRANCH  34  35
HETATM   35  N6  UNL     1      -2.045  16.533  16.200  1.00  0.00    -0.075 N
HETATM   36  C24 UNL     1      -2.345  15.100  16.388  1.00  0.00     0.267 C
ATOM     37  H62 UNL     1      -2.365  16.886  15.299  1.00  0.00     0.277 HD
ATOM     38  H61 UNL     1      -1.049  16.712  16.073  1.00  0.00     0.277 HD
ENDBRANCH  34  35
ENDBRANCH  22  34
BRANCH  26  39
HETATM   39  O2  UNL     1       0.260  18.048  22.003  1.00  0.00    -0.386 OA
ATOM     40  H2  UNL     1      -0.562  17.634  22.238  1.00  0.00     0.210 HD
ENDBRANCH  26  39
BRANCH  14  41
HETATM   41  C14 UNL     1       2.733  23.730  21.056  1.00  0.00     0.053 C
HETATM   42  C15 UNL     1       3.466  23.399  22.321  1.00  0.00     0.011 C
ENDBRANCH  14  41
TORSDOF 8
ENDMDL