MODEL 4
REMARK VINA RESULT: -6.886998174      0.934      1.065
REMARK  10 active torsions:
REMARK  status: ('A' for Active; 'I' for Inactive)
REMARK    1  A    between atoms: C2_2  and  C3_3
REMARK    2  A    between atoms: C3_3  and  C4_4
REMARK    3  A    between atoms: C4_4  and  N1_5
REMARK       I    between atoms: N1_5  and  C5_7
REMARK    4  A    between atoms: C5_7  and  C6_9
REMARK    5  A    between atoms: N2_14  and  C11_15
REMARK    6  A    between atoms: C11_15  and  C12_16
REMARK    7  A    between atoms: C12_16  and  O2_17
REMARK    8  A    between atoms: C12_16  and  C13_19
REMARK    9  A    between atoms: C13_19  and  N3_20
REMARK       I    between atoms: N3_20  and  C14_22
REMARK   10  A    between atoms: C17_29  and  C18_30
ROOT
HETATM    1  C4  UNL     1       0.331  20.578  17.800  1.00  0.00     0.131 C
HETATM    2  C10 UNL     1      -0.679  19.700  18.502  1.00  0.00     0.113 C
HETATM    3  N2  UNL     1      -0.136  18.599  19.183  1.00  0.00    -0.288 N
HETATM    4  C16 UNL     1       0.662  18.793  20.286  1.00  0.00     0.326 C
HETATM    5  O4  UNL     1       0.646  17.916  21.225  1.00  0.00    -0.246 OA
HETATM    6  N4  UNL     1       1.560  19.845  20.614  1.00  0.00    -0.330 N
ATOM      7  H4  UNL     1       1.765  19.982  21.603  1.00  0.00     0.165 HD
HETATM    8  C17 UNL     1       2.214  20.742  19.681  1.00  0.00     0.167 C
HETATM    9  C28 UNL     1       1.160  21.301  18.851  1.00  0.00     0.183 C
HETATM   10  O5  UNL     1       0.824  22.441  18.916  1.00  0.00    -0.292 OA
ENDROOT
BRANCH   1  11
HETATM   11  C3  UNL     1       1.320  19.779  17.040  1.00  0.00     0.071 C
BRANCH  11  12
HETATM   12  C2  UNL     1       2.018  20.375  15.918  1.00  0.00    -0.034 C
HETATM   13  C1  UNL     1       3.290  20.687  15.784  1.00  0.00     0.007 C
ENDBRANCH  11  12
ENDBRANCH   1  11
BRANCH   1  14
HETATM   14  N1  UNL     1      -0.397  21.537  17.036  1.00  0.00    -0.339 N
HETATM   15  C5  UNL     1      -1.481  21.320  16.193  1.00  0.00     0.226 C
HETATM   16  O1  UNL     1      -1.942  20.170  16.033  1.00  0.00    -0.273 OA
ATOM     17  H1  UNL     1      -0.082  22.504  17.117  1.00  0.00     0.164 HD
BRANCH  15  18
HETATM   18  C6  UNL     1      -2.123  22.429  15.462  1.00  0.00     0.030 C
HETATM   19  C7  UNL     1      -1.426  23.762  15.732  1.00  0.00     0.024 C
HETATM   20  C8  UNL     1      -3.569  22.617  15.833  1.00  0.00     0.024 C
HETATM   21  C9  UNL     1      -2.068  22.225  13.960  1.00  0.00     0.024 C
ENDBRANCH  15  18
ENDBRANCH   1  14
BRANCH   3  22
HETATM   22  C11 UNL     1      -0.656  17.320  18.943  1.00  0.00     0.107 C
BRANCH  22  23
HETATM   23  C12 UNL     1      -1.578  17.219  17.754  1.00  0.00     0.175 C
BRANCH  23  24
HETATM   24  O2  UNL     1      -0.893  17.366  16.549  1.00  0.00    -0.389 OA
ATOM     25  H2  UNL     1      -1.434  17.767  15.879  1.00  0.00     0.210 HD
ENDBRANCH  23  24
BRANCH  23  26
HETATM   26  C13 UNL     1      -2.229  15.856  17.711  1.00  0.00     0.159 C
BRANCH  26  27
HETATM   27  N3  UNL     1      -2.115  15.188  16.455  1.00  0.00    -0.359 N
HETATM   28  C14 UNL     1      -1.677  13.863  16.364  1.00  0.00     0.213 C
HETATM   29  C15 UNL     1      -1.574  13.214  15.014  1.00  0.00     0.117 C
HETATM   30  O3  UNL     1      -1.359  13.173  17.365  1.00  0.00    -0.274 OA
ATOM     31  H3  UNL     1      -2.361  15.690  15.603  1.00  0.00     0.162 HD
ENDBRANCH  26  27
ENDBRANCH  23  26
ENDBRANCH  22  23
ENDBRANCH   3  22
BRANCH   8  32
HETATM   32  C18 UNL     1       3.134  21.668  20.366  1.00  0.00    -0.012 C
HETATM   33  C19 UNL     1       4.277  22.155  19.500  1.00  0.00     0.016 C
HETATM   34  C20 UNL     1       5.334  22.885  20.300  1.00  0.00    -0.013 C
HETATM   35  C21 UNL     1       4.663  24.176  20.773  1.00  0.00     0.009 C
HETATM   36  C25 UNL     1       5.870  22.083  21.445  1.00  0.00     0.009 C
HETATM   37  C22 UNL     1       3.527  23.787  21.637  1.00  0.00    -0.013 C
HETATM   38  C23 UNL     1       4.072  23.025  22.839  1.00  0.00     0.009 C
HETATM   39  C27 UNL     1       2.502  22.889  20.986  1.00  0.00     0.016 C
HETATM   40  C24 UNL     1       4.684  21.758  22.340  1.00  0.00    -0.013 C
HETATM   41  C26 UNL     1       3.756  20.908  21.520  1.00  0.00     0.016 C
ENDBRANCH   8  32
TORSDOF 10
ENDMDL