MODEL 5
REMARK VINA RESULT: -6.114165645      1.953      2.572
REMARK  11 active torsions:
REMARK  status: ('A' for Active; 'I' for Inactive)
REMARK    1  A    between atoms: C3_5  and  O1_6
REMARK    2  A    between atoms: C4_8  and  C5_9
REMARK    3  A    between atoms: C5_9  and  C6_10
REMARK    4  A    between atoms: C6_10  and  C7_11
REMARK    5  A    between atoms: C16_24  and  C17_25
REMARK    6  A    between atoms: C17_25  and  C18_26
REMARK    7  A    between atoms: C18_26  and  C19_27
REMARK    8  A    between atoms: C19_27  and  C20_28
REMARK    9  A    between atoms: C20_28  and  N4_29
REMARK   10  A    between atoms: C22_35  and  O3_36
REMARK   11  A    between atoms: C23_38  and  C24_39
ROOT
HETATM    1  C1  UNL     1       0.567  23.958  14.964  1.00  0.00     0.042 C
HETATM    2  C2  UNL     1       0.576  22.555  14.385  1.00  0.00     0.171 C
HETATM    3  N1  UNL     1       0.801  21.632  15.496  1.00  0.00    -0.361 N
ATOM      4  H1  UNL     1       0.117  21.811  16.231  1.00  0.00     0.162 HD
HETATM    5  C3  UNL     1       1.602  20.632  15.871  1.00  0.00     0.118 C
HETATM    6  C4  UNL     1       2.839  20.520  16.778  1.00  0.00     0.088 C
HETATM    7  C11 UNL     1       2.376  20.909  18.198  1.00  0.00     0.146 C
HETATM    8  C12 UNL     1       3.397  21.559  18.969  1.00  0.00     0.003 C
HETATM    9  C13 UNL     1       3.863  21.084  20.111  1.00  0.00     0.017 C
HETATM   10  C14 UNL     1       3.284  19.861  20.632  1.00  0.00     0.107 C
HETATM   11  N2  UNL     1       2.309  19.313  20.007  1.00  0.00    -0.306 N
ATOM     12  H2  UNL     1       1.945  18.439  20.387  1.00  0.00     0.186 HD
HETATM   13  N3  UNL     1       1.687  19.819  18.825  1.00  0.00    -0.247 N
HETATM   14  C15 UNL     1       0.447  19.214  18.517  1.00  0.00     0.285 C
HETATM   15  O2  UNL     1       0.541  17.954  18.326  1.00  0.00    -0.264 OA
HETATM   16  C16 UNL     1      -0.940  19.730  18.374  1.00  0.00     0.086 C
HETATM   17  N5  UNL     1      -1.671  19.345  17.182  1.00  0.00    -0.333 N
HETATM   18  C21 UNL     1      -1.543  17.893  16.882  1.00  0.00     0.158 C
HETATM   19  C22 UNL     1      -2.505  20.046  16.321  1.00  0.00     0.141 C
HETATM   20  C23 UNL     1      -2.469  21.369  15.675  1.00  0.00     0.163 C
HETATM   21  N6  UNL     1      -1.783  21.433  14.406  1.00  0.00    -0.347 N
ATOM     22  H6  UNL     1      -2.032  20.679  13.766  1.00  0.00     0.163 HD
HETATM   23  C27 UNL     1      -0.845  22.327  13.883  1.00  0.00     0.240 C
HETATM   24  O4  UNL     1      -1.129  23.059  12.885  1.00  0.00    -0.271 OA
ENDROOT
BRANCH  16  25
HETATM   25  C17 UNL     1      -1.220  21.065  18.907  1.00  0.00     0.090 C
BRANCH  25  26
HETATM   26  C18 UNL     1      -2.300  21.255  19.883  1.00  0.00    -0.023 C
BRANCH  26  27
HETATM   27  C19 UNL     1      -3.470  22.103  19.661  1.00  0.00    -0.004 C
BRANCH  27  28
HETATM   28  C20 UNL     1      -4.843  21.592  19.526  1.00  0.00     0.256 C
BRANCH  28  29
HETATM   29  N4  UNL     1      -4.787  20.273  18.795  1.00  0.00    -0.076 N
ATOM     30  H43 UNL     1      -4.165  19.601  19.244  1.00  0.00     0.274 HD
ATOM     31  H42 UNL     1      -5.653  19.739  18.883  1.00  0.00     0.274 HD
ATOM     32  H41 UNL     1      -4.535  20.455  17.824  1.00  0.00     0.274 HD
ENDBRANCH  28  29
ENDBRANCH  27  28
ENDBRANCH  26  27
ENDBRANCH  25  26
ENDBRANCH  16  25
BRANCH  19  33
HETATM   33  O3  UNL     1      -3.587  19.370  16.002  1.00  0.00    -0.348 OA
ATOM     34  H3  UNL     1      -4.189  19.875  15.468  1.00  0.00     0.219 HD
ENDBRANCH  19  33
BRANCH  20  35
HETATM   35  C24 UNL     1      -3.901  21.851  15.311  1.00  0.00     0.008 C
HETATM   36  C25 UNL     1      -4.400  22.967  16.139  1.00  0.00     0.012 C
HETATM   37  C26 UNL     1      -3.990  22.109  13.825  1.00  0.00     0.012 C
ENDBRANCH  20  35
BRANCH   6  38
HETATM   38  C5  UNL     1       3.832  21.343  16.123  1.00  0.00     0.016 C
BRANCH  38  39
HETATM   39  C6  UNL     1       4.427  20.999  14.809  1.00  0.00     0.009 C
BRANCH  39  40
HETATM   40  C7  UNL     1       5.848  21.474  14.595  1.00  0.00    -0.051 C
HETATM   41  C8  UNL     1       6.361  22.107  15.879  1.00  0.00     0.014 C
HETATM   42  C9  UNL     1       6.655  20.170  14.391  1.00  0.00     0.014 C
HETATM   43  C10 UNL     1       6.144  22.352  13.468  1.00  0.00     0.014 C
ENDBRANCH  39  40
ENDBRANCH  38  39
ENDBRANCH   6  38
BRANCH   5  44
HETATM   44  O1  UNL     1       1.368  19.411  15.417  1.00  0.00    -0.349 OA
ATOM     45  H1  UNL     1       0.992  18.764  16.001  1.00  0.00     0.219 HD
ENDBRANCH   5  44
TORSDOF 11
ENDMDL