MODEL 2
REMARK VINA RESULT: -7.121218101      1.700      2.069
REMARK  10 active torsions:
REMARK  status: ('A' for Active; 'I' for Inactive)
REMARK    1  A    between atoms: C2_2  and  C3_3
REMARK    2  A    between atoms: C5_7  and  C6_8
REMARK    3  A    between atoms: C9_13  and  C10_14
REMARK    4  A    between atoms: C10_14  and  N3_15
REMARK    5  A    between atoms: C19_27  and  C20_28
REMARK    6  A    between atoms: C20_28  and  C21_29
REMARK    7  A    between atoms: C21_29  and  C22_30
REMARK    8  A    between atoms: C22_30  and  C23_31
REMARK    9  A    between atoms: C23_31  and  N5_32
REMARK       I    between atoms: N5_32  and  C24_34
REMARK   10  A    between atoms: N6_39  and  O4_40
ROOT
HETATM    1  C6  UNL     1      -1.270  19.485  19.450  1.00  0.00     0.012 A
HETATM    2  C7  UNL     1      -1.088  19.600  20.829  1.00  0.00     0.060 A
HETATM    3  C8  UNL     1      -1.922  20.636  21.231  1.00  0.00     0.099 A
HETATM    4  N2  UNL     1      -2.563  21.114  20.171  1.00  0.00    -0.350 N
ATOM      5  H2  UNL     1      -3.235  21.880  20.206  1.00  0.00     0.166 HD
HETATM    6  C9  UNL     1      -2.223  20.471  19.061  1.00  0.00     0.067 A
HETATM    7  C14 UNL     1      -1.962  21.010  22.640  1.00  0.00     0.212 A
HETATM    8  O1  UNL     1      -2.725  21.952  22.994  1.00  0.00    -0.285 OA
HETATM    9  C15 UNL     1      -1.141  20.310  23.613  1.00  0.00     0.055 A
HETATM   10  C16 UNL     1      -0.311  19.282  23.241  1.00  0.00     0.099 A
HETATM   11  N4  UNL     1       0.307  18.823  24.325  1.00  0.00    -0.355 N
ATOM     12  H4  UNL     1       0.981  18.058  24.333  1.00  0.00     0.166 HD
HETATM   13  C17 UNL     1      -0.087  19.516  25.412  1.00  0.00     0.013 A
HETATM   14  C18 UNL     1       0.381  19.297  26.810  1.00  0.00     0.068 C
HETATM   15  C19 UNL     1      -1.000  20.457  24.975  1.00  0.00    -0.019 A
HETATM   16  C26 UNL     1      -0.275  18.909  21.813  1.00  0.00     0.213 A
HETATM   17  O3  UNL     1       0.476  17.988  21.512  1.00  0.00    -0.285 OA
ENDROOT
BRANCH   1  18
HETATM   18  C5  UNL     1      -0.738  18.687  18.603  1.00  0.00     0.065 C
HETATM   19  C4  UNL     1      -1.006  17.361  18.108  1.00  0.00     0.134 A
HETATM   20  N1  UNL     1      -1.728  17.010  17.033  1.00  0.00    -0.339 N
HETATM   21  N6  UNL     1      -0.500  16.187  18.590  1.00  0.00    -0.210 N
HETATM   22  C3  UNL     1      -1.684  15.665  16.837  1.00  0.00     0.058 A
ATOM     23  H1  UNL     1      -2.242  17.664  16.442  1.00  0.00     0.167 HD
HETATM   24  C27 UNL     1      -0.902  15.144  17.830  1.00  0.00     0.065 A
HETATM   25  C28 UNL     1      -0.531  13.718  18.096  1.00  0.00     0.073 C
BRANCH  22  26
HETATM   26  C2  UNL     1      -2.361  14.946  15.776  1.00  0.00     0.021 C
HETATM   27  C1  UNL     1      -1.910  13.953  15.080  1.00  0.00     0.013 C
ENDBRANCH  22  26
BRANCH  21  28
HETATM   28  O4  UNL     1       0.304  16.079  19.689  1.00  0.00    -0.281 OA
ATOM     29  H4  UNL     1       0.630  15.261  20.044  1.00  0.00     0.245 HD
ENDBRANCH  21  28
ENDBRANCH   1  18
BRANCH   6  30
HETATM   30  C10 UNL     1      -2.665  20.688  17.836  1.00  0.00     0.231 C
BRANCH  30  31
HETATM   31  N3  UNL     1      -3.974  20.304  17.427  1.00  0.00    -0.057 N
HETATM   32  C11 UNL     1      -4.819  21.466  17.478  1.00  0.00     0.277 C
HETATM   33  C12 UNL     1      -3.900  19.927  16.005  1.00  0.00     0.277 C
HETATM   34  C13 UNL     1      -4.484  19.154  18.109  1.00  0.00     0.277 C
ENDBRANCH  30  31
ENDBRANCH   6  30
BRANCH  15  35
HETATM   35  C20 UNL     1      -1.632  21.437  25.866  1.00  0.00     0.042 C
BRANCH  35  36
HETATM   36  C21 UNL     1      -2.949  20.915  26.339  1.00  0.00     0.006 C
BRANCH  36  37
HETATM   37  C22 UNL     1      -4.067  21.922  26.201  1.00  0.00     0.020 C
BRANCH  37  38
HETATM   38  C23 UNL     1      -5.293  21.354  25.552  1.00  0.00     0.122 C
BRANCH  38  39
HETATM   39  N5  UNL     1      -5.495  21.823  24.208  1.00  0.00    -0.361 N
HETATM   40  C24 UNL     1      -6.625  21.396  23.486  1.00  0.00     0.213 C
HETATM   41  C25 UNL     1      -6.825  21.884  22.102  1.00  0.00     0.117 C
HETATM   42  O2  UNL     1      -7.471  20.596  24.015  1.00  0.00    -0.274 OA
ATOM     43  H5  UNL     1      -4.824  22.462  23.781  1.00  0.00     0.162 HD
ENDBRANCH  38  39
ENDBRANCH  37  38
ENDBRANCH  36  37
ENDBRANCH  35  36
ENDBRANCH  15  35
TORSDOF 10
ENDMDL