MODEL 1
REMARK VINA RESULT: -7.720454990      0.000      0.000
REMARK  9 active torsions:
REMARK  status: ('A' for Active; 'I' for Inactive)
REMARK    1  A    between atoms: C6_6  and  N1_7
REMARK    2  A    between atoms: C7_11  and  C8_12
REMARK    3  A    between atoms: C8_12  and  C9_13
REMARK    4  A    between atoms: C9_13  and  N2_14
REMARK       I    between atoms: N2_14  and  C11_16
REMARK    5  A    between atoms: C11_16  and  C12_18
REMARK    6  A    between atoms: C12_18  and  C13_19
REMARK    7  A    between atoms: C13_19  and  N3_20
REMARK    8  A    between atoms: C18_25  and  N4_26
REMARK       I    between atoms: N4_26  and  C19_28
REMARK    9  A    between atoms: C19_28  and  C20_30
ROOT
HETATM    1  N2  UNL     1       3.860  23.051  18.745  1.00  0.00    -0.356 N
HETATM    2  C10 UNL     1       5.034  22.330  19.194  1.00  0.00     0.152 C
HETATM    3  C11 UNL     1       2.611  22.379  18.812  1.00  0.00     0.221 C
HETATM    4  O1  UNL     1       1.591  23.021  18.415  1.00  0.00    -0.273 OA
ENDROOT
BRANCH   3   5
HETATM    5  C12 UNL     1       2.485  21.009  19.314  1.00  0.00     0.131 C
BRANCH   5   6
HETATM    6  C13 UNL     1       1.193  20.864  20.070  1.00  0.00     0.246 C
BRANCH   6   7
HETATM    7  N3  UNL     1       0.251  19.978  19.435  1.00  0.00    -0.066 N
HETATM    8  C14 UNL     1      -0.931  20.676  18.974  1.00  0.00     0.238 C
HETATM    9  C15 UNL     1      -2.128  19.857  19.409  1.00  0.00     0.036 C
HETATM   10  C16 UNL     1      -1.476  18.485  19.589  1.00  0.00     0.036 C
HETATM   11  C17 UNL     1      -0.197  18.908  20.308  1.00  0.00     0.244 C
HETATM   12  C18 UNL     1      -1.205  17.935  18.229  1.00  0.00     0.091 C
HETATM   13  C23 UNL     1       0.170  18.209  17.710  1.00  0.00     0.053 C
HETATM   14  C24 UNL     1       0.874  19.364  18.304  1.00  0.00     0.239 C
BRANCH  12  15
HETATM   15  N4  UNL     1      -1.493  16.509  18.250  1.00  0.00    -0.355 N
HETATM   16  C19 UNL     1      -1.859  15.797  17.081  1.00  0.00     0.232 C
HETATM   17  O2  UNL     1      -1.932  16.428  16.001  1.00  0.00    -0.273 OA
ATOM     18  H4  UNL     1      -1.430  16.006  19.134  1.00  0.00     0.162 HD
BRANCH  16  19
HETATM   19  C20 UNL     1      -2.154  14.350  17.092  1.00  0.00     0.187 C
HETATM   20  C21 UNL     1      -1.301  13.520  17.993  1.00  0.00     0.146 C
HETATM   21  N5  UNL     1      -0.392  13.272  16.910  1.00  0.00    -0.359 N
HETATM   22  C22 UNL     1      -1.429  13.626  16.013  1.00  0.00     0.232 C
ATOM     23  H5  UNL     1       0.579  12.972  16.823  1.00  0.00     0.162 HD
HETATM   24  O3  UNL     1      -1.587  13.377  14.788  1.00  0.00    -0.273 OA
ENDBRANCH  16  19
ENDBRANCH  12  15
ENDBRANCH   6   7
ENDBRANCH   5   6
ENDBRANCH   3   5
BRANCH   1  25
HETATM   25  C9  UNL     1       3.980  24.418  18.245  1.00  0.00     0.125 C
BRANCH  25  26
HETATM   26  C8  UNL     1       4.430  24.426  16.827  1.00  0.00     0.027 C
BRANCH  26  27
HETATM   27  C7  UNL     1       3.680  23.495  15.908  1.00  0.00     0.023 C
HETATM   28  C6  UNL     1       2.823  24.242  14.896  1.00  0.00     0.188 C
HETATM   29  C5  UNL     1       2.794  23.340  13.649  1.00  0.00     0.043 C
HETATM   30  C4  UNL     1       3.525  22.162  14.001  1.00  0.00    -0.030 C
HETATM   31  C3  UNL     1       4.595  21.658  13.035  1.00  0.00     0.015 C
HETATM   32  C25 UNL     1       4.550  22.711  15.034  1.00  0.00     0.005 C
HETATM   33  C28 UNL     1       2.874  20.998  14.610  1.00  0.00    -0.009 C
HETATM   34  C2  UNL     1       5.456  20.857  14.033  1.00  0.00    -0.013 C
HETATM   35  C1  UNL     1       6.904  21.170  13.835  1.00  0.00     0.010 C
HETATM   36  C26 UNL     1       5.053  21.387  15.424  1.00  0.00    -0.005 C
HETATM   37  C27 UNL     1       3.789  20.635  15.776  1.00  0.00     0.010 C
HETATM   38  C29 UNL     1       1.449  21.097  14.978  1.00  0.00     0.011 C
BRANCH  28  39
HETATM   39  N1  UNL     1       1.486  24.469  15.404  1.00  0.00    -0.075 N
ATOM     40  H13 UNL     1       0.957  23.600  15.473  1.00  0.00     0.274 HD
ATOM     41  H12 UNL     1       1.498  24.722  16.392  1.00  0.00     0.274 HD
ATOM     42  H11 UNL     1       0.994  25.165  14.843  1.00  0.00     0.274 HD
ENDBRANCH  28  39
ENDBRANCH  26  27
ENDBRANCH  25  26
ENDBRANCH   1  25
TORSDOF 9
ENDMDL