MODEL 2
REMARK VINA RESULT: -7.376600800      0.887      1.074
REMARK  13 active torsions:
REMARK  status: ('A' for Active; 'I' for Inactive)
REMARK    1  A    between atoms: C2_2  and  C3_3
REMARK    2  A    between atoms: C3_3  and  C4_4
REMARK    3  A    between atoms: C4_4  and  C5_5
REMARK    4  A    between atoms: C7_10  and  C8_11
REMARK    5  A    between atoms: C11_19  and  C12_20
REMARK    6  A    between atoms: C12_20  and  C13_21
REMARK    7  A    between atoms: C17_25  and  N4_26
REMARK    8  A    between atoms: N4_26  and  C18_28
REMARK    9  A    between atoms: C18_28  and  C19_29
REMARK   10  A    between atoms: C19_29  and  N5_30
REMARK   11  A    between atoms: N5_30  and  N6_31
REMARK   12  A    between atoms: C20_36  and  O2_37
REMARK   13  A    between atoms: C25_46  and  O3_47
ROOT
HETATM    1  C5  UNL     1       2.574  21.309  13.636  1.00  0.00     0.062 C
HETATM    2  N1  UNL     1       2.825  21.073  14.849  1.00  0.00    -0.325 N
ATOM      3  H1  UNL     1       3.820  21.225  15.012  1.00  0.00     0.169 HD
HETATM    4  C6  UNL     1       2.245  20.691  16.011  1.00  0.00     0.244 C
HETATM    5  O1  UNL     1       1.853  19.534  16.387  1.00  0.00    -0.271 OA
HETATM    6  C7  UNL     1       2.013  21.745  17.045  1.00  0.00     0.175 C
HETATM    7  N2  UNL     1       0.792  21.458  17.737  1.00  0.00    -0.366 N
ATOM      8  H2  UNL     1       0.939  21.163  18.703  1.00  0.00     0.161 HD
HETATM    9  C10 UNL     1      -0.556  21.494  17.374  1.00  0.00     0.083 C
HETATM   10  N3  UNL     1      -1.195  22.524  17.946  1.00  0.00    -0.388 N
ATOM     11  H31 UNL     1      -2.179  22.551  17.680  1.00  0.00     0.157 HD
ATOM     12  H32 UNL     1      -0.563  23.082  18.520  1.00  0.00     0.157 HD
HETATM   13  C11 UNL     1      -1.446  20.708  16.565  1.00  0.00     0.132 C
HETATM   14  C20 UNL     1      -2.116  21.266  15.411  1.00  0.00     0.127 C
HETATM   15  N8  UNL     1      -1.939  22.357  14.547  1.00  0.00    -0.343 N
HETATM   16  C21 UNL     1      -2.973  23.369  14.365  1.00  0.00     0.154 C
HETATM   17  C22 UNL     1      -0.733  22.649  13.730  1.00  0.00     0.101 C
HETATM   18  C23 UNL     1      -1.231  23.241  12.397  1.00  0.00     0.063 C
HETATM   19  C24 UNL     1       0.013  23.759  14.415  1.00  0.00     0.063 C
HETATM   20  N9  UNL     1      -0.008  21.486  13.400  1.00  0.00    -0.343 N
ATOM     21  H9  UNL     1      -0.572  20.645  13.516  1.00  0.00     0.164 HD
HETATM   22  C25 UNL     1       1.257  21.191  12.965  1.00  0.00     0.161 C
ENDROOT
BRANCH  13  23
HETATM   23  C12 UNL     1      -2.521  20.123  17.503  1.00  0.00     0.077 C
BRANCH  23  24
HETATM   24  C13 UNL     1      -2.139  18.948  18.261  1.00  0.00     0.012 A
HETATM   25  C14 UNL     1      -1.822  18.942  19.596  1.00  0.00     0.025 A
HETATM   26  C15 UNL     1      -1.487  17.770  20.274  1.00  0.00     0.006 A
HETATM   27  C16 UNL     1      -1.472  16.575  19.596  1.00  0.00     0.048 A
HETATM   28  C17 UNL     1      -1.797  16.584  18.233  1.00  0.00     0.101 A
HETATM   29  N7  UNL     1      -2.111  17.733  17.621  1.00  0.00    -0.346 N
ATOM     30  H7  UNL     1      -2.341  17.704  16.628  1.00  0.00     0.167 HD
BRANCH  28  31
HETATM   31  N4  UNL     1      -1.809  15.459  17.605  1.00  0.00    -0.370 N
ATOM     32  H4  UNL     1      -2.153  15.452  16.645  1.00  0.00     0.161 HD
BRANCH  31  33
HETATM   33  C18 UNL     1      -1.362  14.199  18.176  1.00  0.00     0.182 C
BRANCH  33  34
HETATM   34  C19 UNL     1      -0.666  13.443  17.108  1.00  0.00     0.200 C
BRANCH  34  35
HETATM   35  N5  UNL     1      -1.304  13.114  16.096  1.00  0.00    -0.348 NA
BRANCH  35  36
HETATM   36  N6  UNL     1      -1.931  12.906  15.042  1.00  0.00    -0.281 N
ATOM     37  H62 UNL     1      -2.349  13.805  15.277  1.00  0.00     0.191 HD
ATOM     38  H61 UNL     1      -2.390  12.644  14.170  1.00  0.00     0.191 HD
ENDBRANCH  35  36
ENDBRANCH  34  35
ENDBRANCH  33  34
ENDBRANCH  31  33
ENDBRANCH  28  31
ENDBRANCH  23  24
ENDBRANCH  13  23
BRANCH  14  39
HETATM   39  O2  UNL     1      -3.166  20.549  15.112  1.00  0.00    -0.349 OA
ATOM     40  H2  UNL     1      -3.955  21.067  15.220  1.00  0.00     0.219 HD
ENDBRANCH  14  39
BRANCH   6  41
HETATM   41  C8  UNL     1       3.245  21.562  17.979  1.00  0.00     0.030 C
HETATM   42  C9  UNL     1       4.351  22.500  17.629  1.00  0.00     0.007 C
ENDBRANCH   6  41
BRANCH  22  43
HETATM   43  O3  UNL     1       1.456  20.708  11.757  1.00  0.00    -0.345 OA
ATOM     44  H3  UNL     1       1.227  19.786  11.765  1.00  0.00     0.219 HD
ENDBRANCH  22  43
BRANCH   1  45
HETATM   45  C4  UNL     1       3.721  21.725  12.790  1.00  0.00     0.062 C
BRANCH  45  46
HETATM   46  C3  UNL     1       5.021  21.991  13.383  1.00  0.00     0.006 C
BRANCH  46  47
HETATM   47  C2  UNL     1       6.077  20.918  13.223  1.00  0.00    -0.004 C
HETATM   48  C1  UNL     1       6.450  20.405  14.598  1.00  0.00     0.005 C
ENDBRANCH  46  47
ENDBRANCH  45  46
ENDBRANCH   1  45
TORSDOF 13
ENDMDL