MODEL 1
REMARK VINA RESULT: -6.244506341      0.000      0.000
REMARK  10 active torsions:
REMARK  status: ('A' for Active; 'I' for Inactive)
REMARK    1  A    between atoms: C2_2  and  C4_4
REMARK    2  A    between atoms: C4_4  and  C5_5
REMARK    3  A    between atoms: C7_10  and  O2_11
REMARK    4  A    between atoms: C9_15  and  C10_16
REMARK    5  A    between atoms: C10_16  and  C11_17
REMARK    6  A    between atoms: C15_24  and  C16_25
REMARK    7  A    between atoms: C16_25  and  C17_26
REMARK    8  A    between atoms: C21_31  and  O5_32
REMARK    9  A    between atoms: C22_34  and  C23_35
REMARK   10  A    between atoms: C26_40  and  O6_41
ROOT
HETATM    1  C5  UNL     1      -3.368   3.008  26.739  1.00  0.00     0.082 C
HETATM    2  N1  UNL     1      -3.953   4.247  26.326  1.00  0.00    -0.318 N
ATOM      3  H1  UNL     1      -3.324   5.050  26.325  1.00  0.00     0.169 HD
HETATM    4  C6  UNL     1      -5.288   4.514  25.918  1.00  0.00     0.283 C
HETATM    5  O1  UNL     1      -5.826   5.684  26.055  1.00  0.00    -0.265 OA
HETATM    6  C7  UNL     1      -6.169   3.518  25.313  1.00  0.00     0.183 C
HETATM    7  C8  UNL     1      -5.969   2.728  24.136  1.00  0.00     0.210 C
HETATM    8  O3  UNL     1      -6.050   1.455  24.271  1.00  0.00    -0.288 OA
HETATM    9  C9  UNL     1      -5.673   3.253  22.741  1.00  0.00     0.162 C
HETATM   10  N2  UNL     1      -4.972   4.498  22.799  1.00  0.00    -0.344 N
ATOM     11  H2  UNL     1      -5.529   5.297  23.104  1.00  0.00     0.163 HD
HETATM   12  C14 UNL     1      -3.628   4.783  22.498  1.00  0.00     0.264 C
HETATM   13  O4  UNL     1      -3.012   5.579  23.288  1.00  0.00    -0.266 OA
HETATM   14  C15 UNL     1      -2.828   4.279  21.373  1.00  0.00     0.081 C
HETATM   15  N3  UNL     1      -1.530   3.741  21.680  1.00  0.00    -0.333 N
HETATM   16  C20 UNL     1      -0.852   3.160  20.484  1.00  0.00     0.158 C
HETATM   17  C21 UNL     1      -0.801   3.669  22.860  1.00  0.00     0.141 C
HETATM   18  C22 UNL     1      -0.884   2.923  24.131  1.00  0.00     0.162 C
HETATM   19  N4  UNL     1      -2.138   2.367  24.495  1.00  0.00    -0.357 N
ATOM     20  H4  UNL     1      -2.689   2.065  23.692  1.00  0.00     0.162 HD
HETATM   21  C26 UNL     1      -2.774   2.145  25.703  1.00  0.00     0.163 C
ENDROOT
BRANCH   1  22
HETATM   22  C4  UNL     1      -2.838   2.956  28.110  1.00  0.00     0.011 C
BRANCH  22  23
HETATM   23  C2  UNL     1      -1.551   3.430  28.566  1.00  0.00     0.002 C
HETATM   24  C1  UNL     1      -0.693   2.579  29.434  1.00  0.00     0.013 C
HETATM   25  C3  UNL     1      -1.568   4.825  29.140  1.00  0.00     0.013 C
ENDBRANCH  22  23
ENDBRANCH   1  22
BRANCH  21  26
HETATM   26  O6  UNL     1      -2.868   0.861  25.981  1.00  0.00    -0.345 OA
ATOM     27  H6  UNL     1      -2.895   0.312  25.207  1.00  0.00     0.219 HD
ENDBRANCH  21  26
BRANCH   6  28
HETATM   28  O2  UNL     1      -7.298   3.311  25.924  1.00  0.00    -0.353 OA
ATOM     29  H2  UNL     1      -7.846   2.625  25.562  1.00  0.00     0.218 HD
ENDBRANCH   6  28
BRANCH  18  30
HETATM   30  C23 UNL     1       0.250   1.924  24.137  1.00  0.00     0.008 C
HETATM   31  C24 UNL     1       0.972   1.842  25.453  1.00  0.00     0.012 C
HETATM   32  C25 UNL     1      -0.022   0.573  23.623  1.00  0.00     0.012 C
ENDBRANCH  18  30
BRANCH  17  33
HETATM   33  O5  UNL     1       0.248   4.465  22.866  1.00  0.00    -0.348 OA
ATOM     34  H5  UNL     1       0.950   4.151  23.423  1.00  0.00     0.219 HD
ENDBRANCH  17  33
BRANCH   9  35
HETATM   35  C10 UNL     1      -7.034   3.510  22.116  1.00  0.00     0.037 C
BRANCH  35  36
HETATM   36  C11 UNL     1      -7.189   2.763  20.844  1.00  0.00    -0.020 C
HETATM   37  C12 UNL     1      -8.087   3.545  19.879  1.00  0.00     0.009 C
HETATM   38  C13 UNL     1      -7.937   1.475  21.150  1.00  0.00     0.009 C
ENDBRANCH  35  36
ENDBRANCH   9  35
BRANCH  14  39
HETATM   39  C16 UNL     1      -2.952   5.190  20.204  1.00  0.00     0.067 C
BRANCH  39  40
HETATM   40  C17 UNL     1      -2.365   6.539  20.260  1.00  0.00    -0.017 C
HETATM   41  C18 UNL     1      -3.445   7.512  19.724  1.00  0.00     0.010 C
HETATM   42  C19 UNL     1      -1.191   6.775  19.350  1.00  0.00     0.010 C
ENDBRANCH  39  40
ENDBRANCH  14  39
TORSDOF 10
ENDMDL