MODEL 2
REMARK VINA RESULT: -6.010129979      1.137      1.649
REMARK  9 active torsions:
REMARK  status: ('A' for Active; 'I' for Inactive)
REMARK    1  A    between atoms: C4_4  and  C5_5
REMARK    2  A    between atoms: C5_5  and  N1_6
REMARK    3  A    between atoms: C6_8  and  C7_9
REMARK    4  A    between atoms: C7_9  and  C8_10
REMARK    5  A    between atoms: C15_23  and  C16_24
REMARK    6  A    between atoms: C16_24  and  C17_25
REMARK    7  A    between atoms: C20_28  and  O4_29
REMARK    8  A    between atoms: C22_33  and  C23_34
REMARK    9  A    between atoms: C23_34  and  C24_35
ROOT
HETATM    1  N1  UNL     1      -2.392   1.341  24.356  1.00  0.00    -0.259 N
HETATM    2  N2  UNL     1      -2.082   1.942  23.135  1.00  0.00    -0.121 NA
HETATM    3  C6  UNL     1      -0.665   2.386  23.061  1.00  0.00     0.192 C
HETATM    4  C11 UNL     1      -0.745   3.850  22.700  1.00  0.00     0.248 C
HETATM    5  O1  UNL     1      -0.283   4.632  23.609  1.00  0.00    -0.271 OA
HETATM    6  N3  UNL     1      -1.270   4.328  21.498  1.00  0.00    -0.262 N
HETATM    7  C12 UNL     1      -1.479   4.924  20.182  1.00  0.00     0.260 A
HETATM    8  O2  UNL     1      -1.004   5.506  19.175  1.00  0.00    -0.270 OA
HETATM    9  C13 UNL     1      -2.586   4.318  20.979  1.00  0.00     0.280 A
HETATM   10  C14 UNL     1      -3.524   5.234  21.641  1.00  0.00     0.251 C
HETATM   11  O3  UNL     1      -3.376   6.476  21.289  1.00  0.00    -0.271 OA
HETATM   12  N4  UNL     1      -4.524   5.007  22.562  1.00  0.00    -0.347 N
ATOM     13  H4  UNL     1      -4.450   5.571  23.409  1.00  0.00     0.163 HD
HETATM   14  C15 UNL     1      -5.673   4.098  22.542  1.00  0.00     0.159 C
HETATM   15  C20 UNL     1      -6.108   3.738  23.898  1.00  0.00     0.137 C
HETATM   16  N5  UNL     1      -5.398   3.171  24.977  1.00  0.00    -0.355 N
HETATM   17  C21 UNL     1      -6.145   2.481  26.012  1.00  0.00     0.152 C
HETATM   18  C22 UNL     1      -3.933   3.214  25.184  1.00  0.00     0.179 C
HETATM   19  C27 UNL     1      -3.420   1.797  25.221  1.00  0.00     0.258 C
HETATM   20  O5  UNL     1      -3.976   1.049  26.076  1.00  0.00    -0.270 OA
ENDROOT
BRANCH   1  21
HETATM   21  C5  UNL     1      -1.615   0.186  24.744  1.00  0.00     0.175 C
BRANCH  21  22
HETATM   22  C4  UNL     1      -0.748   0.406  25.922  1.00  0.00    -0.004 C
HETATM   23  C2  UNL     1       0.544   0.177  25.863  1.00  0.00    -0.090 C
HETATM   24  C1  UNL     1       1.315   0.449  27.145  1.00  0.00     0.042 C
HETATM   25  C3  UNL     1       1.287  -0.340  24.686  1.00  0.00     0.042 C
ENDBRANCH  21  22
ENDBRANCH   1  21
BRANCH   3  26
HETATM   26  C7  UNL     1      -0.064   1.630  21.967  1.00  0.00     0.036 C
BRANCH  26  27
HETATM   27  C8  UNL     1      -0.785   0.752  21.071  1.00  0.00    -0.021 C
HETATM   28  C9  UNL     1      -0.809   1.155  19.624  1.00  0.00     0.009 C
HETATM   29  C10 UNL     1      -0.458  -0.712  21.108  1.00  0.00     0.009 C
ENDBRANCH  26  27
ENDBRANCH   3  26
BRANCH  18  30
HETATM   30  C23 UNL     1      -3.627   4.051  26.367  1.00  0.00     0.039 C
BRANCH  30  31
HETATM   31  C24 UNL     1      -2.257   4.361  26.763  1.00  0.00    -0.020 C
HETATM   32  C25 UNL     1      -1.559   3.492  27.759  1.00  0.00     0.009 C
HETATM   33  C26 UNL     1      -2.309   5.756  27.447  1.00  0.00     0.009 C
ENDBRANCH  30  31
ENDBRANCH  18  30
BRANCH  15  34
HETATM   34  O4  UNL     1      -7.361   3.985  24.157  1.00  0.00    -0.348 OA
ATOM     35  H4  UNL     1      -7.921   3.217  24.193  1.00  0.00     0.219 HD
ENDBRANCH  15  34
BRANCH  14  36
HETATM   36  C16 UNL     1      -5.558   3.033  21.528  1.00  0.00     0.037 C
BRANCH  36  37
HETATM   37  C17 UNL     1      -6.809   2.628  20.792  1.00  0.00    -0.020 C
HETATM   38  C18 UNL     1      -7.593   3.882  20.405  1.00  0.00     0.009 C
HETATM   39  C19 UNL     1      -7.686   1.640  21.434  1.00  0.00     0.009 C
ENDBRANCH  36  37
ENDBRANCH  14  36
TORSDOF 9
ENDMDL