MODEL 3
REMARK VINA RESULT: -6.671926488      2.161      6.772
REMARK  9 active torsions:
REMARK  status: ('A' for Active; 'I' for Inactive)
REMARK    1  A    between atoms: C2_2  and  C3_3
REMARK    2  A    between atoms: C3_3  and  C5_5
REMARK    3  A    between atoms: C15_19  and  C16_20
REMARK    4  A    between atoms: C16_20  and  C17_21
REMARK    5  A    between atoms: C17_21  and  C18_22
REMARK    6  A    between atoms: C18_22  and  N2_23
REMARK    7  A    between atoms: N6_34  and  C22_35
REMARK    8  A    between atoms: C23_37  and  C24_38
REMARK    9  A    between atoms: C24_38  and  C25_39
ROOT
HETATM    1  C5  UNL     1      -1.414   3.745  20.975  1.00  0.00     0.180 C
HETATM    2  N1  UNL     1      -1.919   3.435  22.266  1.00  0.00    -0.344 N
ATOM      3  H1  UNL     1      -2.668   2.745  22.344  1.00  0.00     0.163 HD
HETATM    4  C6  UNL     1      -1.433   4.038  23.447  1.00  0.00     0.250 C
HETATM    5  O1  UNL     1      -2.226   4.490  24.346  1.00  0.00    -0.268 OA
HETATM    6  C7  UNL     1       0.029   4.208  23.766  1.00  0.00     0.138 C
HETATM    7  C8  UNL     1       0.553   3.117  24.502  1.00  0.00    -0.073 C
HETATM    8  C9  UNL     1       0.944   2.236  25.072  1.00  0.00    -0.102 C
HETATM    9  C10 UNL     1       1.411   1.113  25.773  1.00  0.00     0.095 C
HETATM   10  C11 UNL     1       0.443  -0.037  25.551  1.00  0.00     0.020 C
HETATM   11  C12 UNL     1       0.470  -0.396  24.113  1.00  0.00     0.030 C
HETATM   12  C13 UNL     1      -0.901  -0.072  23.490  1.00  0.00     0.156 C
HETATM   13  C14 UNL     1      -0.735   0.303  22.087  1.00  0.00     0.163 C
HETATM   14  O2  UNL     1       0.389   0.729  21.761  1.00  0.00    -0.295 OA
HETATM   15  C15 UNL     1      -1.731   0.236  21.027  1.00  0.00     0.155 C
HETATM   16  N5  UNL     1      -1.730   1.320  20.074  1.00  0.00    -0.348 N
ATOM     17  H5  UNL     1      -2.257   1.123  19.223  1.00  0.00     0.163 HD
HETATM   18  C20 UNL     1      -1.152   2.573  20.094  1.00  0.00     0.241 C
HETATM   19  O3  UNL     1      -0.232   2.799  19.218  1.00  0.00    -0.271 OA
HETATM   20  C21 UNL     1      -1.648  -1.295  23.770  1.00  0.00     0.238 C
HETATM   21  O4  UNL     1      -2.805  -1.582  23.460  1.00  0.00    -0.272 OA
HETATM   22  N6  UNL     1      -0.771  -2.185  24.518  1.00  0.00    -0.290 N
HETATM   23  C23 UNL     1       0.534  -1.929  23.885  1.00  0.00     0.101 C
ENDROOT
BRANCH  15  24
HETATM   24  C16 UNL     1      -1.574  -1.076  20.240  1.00  0.00     0.034 C
BRANCH  24  25
HETATM   25  C17 UNL     1      -1.276  -0.853  18.791  1.00  0.00     0.022 C
BRANCH  25  26
HETATM   26  C18 UNL     1       0.039  -1.598  18.513  1.00  0.00     0.122 C
BRANCH  26  27
HETATM   27  N2  UNL     1       1.113  -0.994  19.304  1.00  0.00    -0.367 N
HETATM   28  C19 UNL     1       2.301  -1.487  19.229  1.00  0.00     0.196 C
HETATM   29  N3  UNL     1       2.601  -2.600  18.401  1.00  0.00    -0.067 NA
HETATM   30  N4  UNL     1       3.325  -0.875  20.013  1.00  0.00    -0.067 NA
ATOM     31  H2  UNL     1       0.923  -0.193  19.906  1.00  0.00     0.161 HD
ENDBRANCH  26  27
ENDBRANCH  25  26
ENDBRANCH  24  25
ENDBRANCH  15  24
BRANCH   1  32
HETATM   32  C3  UNL     1      -2.338   4.735  20.272  1.00  0.00     0.013 C
HETATM   33  C4  UNL     1      -3.783   4.487  20.695  1.00  0.00     0.012 C
BRANCH  32  34
HETATM   34  C2  UNL     1      -2.055   6.162  20.566  1.00  0.00     0.002 C
HETATM   35  C1  UNL     1      -1.026   6.834  19.730  1.00  0.00     0.005 C
ENDBRANCH  32  34
ENDBRANCH   1  32
BRANCH  23  36
HETATM   36  C24 UNL     1       1.690  -2.583  24.507  1.00  0.00     0.030 C
BRANCH  36  37
HETATM   37  C25 UNL     1       3.049  -2.119  24.048  1.00  0.00    -0.021 C
HETATM   38  C26 UNL     1       3.822  -3.350  23.551  1.00  0.00     0.009 C
HETATM   39  C27 UNL     1       3.830  -1.740  25.339  1.00  0.00     0.009 C
ENDBRANCH  36  37
ENDBRANCH  23  36
BRANCH  22  40
HETATM   40  C22 UNL     1      -1.127  -2.974  25.611  1.00  0.00     0.358 C
HETATM   41  O5  UNL     1      -1.817  -2.634  26.574  1.00  0.00    -0.283 OA
ENDBRANCH  22  40
TORSDOF 9
ENDMDL