MODEL 3
REMARK VINA RESULT: -6.123745146      2.669      3.524
REMARK  8 active torsions:
REMARK  status: ('A' for Active; 'I' for Inactive)
REMARK    1  A    between atoms: C2_2  and  C3_3
REMARK    2  A    between atoms: C3_3  and  N1_4
REMARK       I    between atoms: N1_4  and  C4_6
REMARK    3  A    between atoms: C4_6  and  C5_8
REMARK    4  A    between atoms: C9_12  and  N2_13
REMARK    5  A    between atoms: N2_13  and  N3_15
REMARK    6  A    between atoms: C12_24  and  C13_25
REMARK    7  A    between atoms: C13_25  and  C14_26
REMARK    8  A    between atoms: C14_26  and  C15_27
ROOT
HETATM    1  C5  UNL     1      -2.584   3.375  23.101  1.00  0.00     0.207 C
HETATM    2  C6  UNL     1      -3.197   2.436  22.050  1.00  0.00     0.064 C
HETATM    3  C7  UNL     1      -3.933   3.329  21.110  1.00  0.00    -0.026 C
HETATM    4  C8  UNL     1      -5.094   3.958  21.255  1.00  0.00     0.005 C
HETATM    5  C9  UNL     1      -6.171   4.153  22.203  1.00  0.00     0.217 C
HETATM    6  C10 UNL     1      -5.809   4.182  23.638  1.00  0.00     0.270 C
HETATM    7  O2  UNL     1      -6.830   4.481  24.306  1.00  0.00    -0.269 OA
HETATM    8  N5  UNL     1      -4.658   3.976  24.519  1.00  0.00    -0.230 N
HETATM    9  C11 UNL     1      -5.136   4.657  25.659  1.00  0.00     0.118 C
HETATM   10  C12 UNL     1      -4.453   4.755  26.931  1.00  0.00     0.125 C
HETATM   11  N6  UNL     1      -5.439   4.897  27.994  1.00  0.00    -0.370 N
HETATM   12  C17 UNL     1      -5.958   6.201  28.381  1.00  0.00     0.151 C
HETATM   13  C18 UNL     1      -5.961   3.800  28.715  1.00  0.00     0.075 C
HETATM   14  S1  UNL     1      -6.376   4.084  30.309  1.00  0.00    -0.066 SA
HETATM   15  C19 UNL     1      -6.189   2.445  28.216  1.00  0.00     0.071 C
HETATM   16  C20 UNL     1      -5.049   1.491  28.340  1.00  0.00     0.037 C
HETATM   17  C21 UNL     1      -5.076   0.481  27.182  1.00  0.00     0.273 C
HETATM   18  N7  UNL     1      -4.762   1.144  25.904  1.00  0.00     0.093 N
HETATM   19  C22 UNL     1      -5.209   0.183  24.884  1.00  0.00     0.310 C
HETATM   20  C23 UNL     1      -3.345   1.222  25.833  1.00  0.00     0.376 C
HETATM   21  C24 UNL     1      -2.787   2.322  25.020  1.00  0.00     0.268 C
HETATM   22  O3  UNL     1      -1.493   2.317  25.081  1.00  0.00    -0.270 OA
HETATM   23  N8  UNL     1      -3.466   3.295  24.249  1.00  0.00    -0.237 N
ENDROOT
BRANCH   1  24
HETATM   24  C4  UNL     1      -2.340   4.680  22.519  1.00  0.00     0.243 C
HETATM   25  N1  UNL     1      -1.575   4.728  21.317  1.00  0.00    -0.356 N
ATOM     26  H1  UNL     1      -1.225   3.864  20.904  1.00  0.00     0.162 HD
HETATM   27  O1  UNL     1      -2.763   5.728  23.021  1.00  0.00    -0.271 OA
BRANCH  25  28
HETATM   28  C3  UNL     1      -1.293   5.999  20.681  1.00  0.00     0.149 C
BRANCH  28  29
HETATM   29  C2  UNL     1      -2.323   6.281  19.651  1.00  0.00    -0.018 C
HETATM   30  C1  UNL     1      -3.209   7.230  19.802  1.00  0.00     0.008 C
ENDBRANCH  28  29
ENDBRANCH  25  28
ENDBRANCH   1  24
BRANCH   5  31
HETATM   31  N2  UNL     1      -7.152   3.079  21.979  1.00  0.00    -0.305 N
ATOM     32  H2  UNL     1      -6.822   2.126  21.834  1.00  0.00     0.183 HD
BRANCH  31  33
HETATM   33  N3  UNL     1      -8.521   3.333  21.959  1.00  0.00    -0.253 N
HETATM   34  N4  UNL     1      -9.273   3.286  22.977  1.00  0.00    -0.331 N
ATOM     35  H42 UNL     1      -8.830   3.044  23.863  1.00  0.00     0.178 HD
ATOM     36  H41 UNL     1     -10.275   3.472  22.963  1.00  0.00     0.178 HD
ATOM     37  H3  UNL     1      -8.947   3.573  21.064  1.00  0.00     0.207 HD
ENDBRANCH  31  33
ENDBRANCH   5  31
BRANCH  10  38
HETATM   38  C13 UNL     1      -3.507   5.971  26.902  1.00  0.00     0.031 C
BRANCH  38  39
HETATM   39  C14 UNL     1      -2.282   5.734  27.720  1.00  0.00     0.002 C
BRANCH  39  40
HETATM   40  C15 UNL     1      -2.305   6.491  29.032  1.00  0.00    -0.004 C
HETATM   41  C16 UNL     1      -0.942   7.062  29.364  1.00  0.00     0.005 C
ENDBRANCH  39  40
ENDBRANCH  38  39
ENDBRANCH  10  38
TORSDOF 8
ENDMDL