MODEL 3
REMARK VINA RESULT: -6.297391620      1.847      2.507
REMARK  10 active torsions:
REMARK  status: ('A' for Active; 'I' for Inactive)
REMARK    1  A    between atoms: C2_2  and  C3_3
REMARK    2  A    between atoms: C3_3  and  N1_4
REMARK    3  A    between atoms: C7_8  and  C8_9
REMARK    4  A    between atoms: C8_9  and  N2_10
REMARK    5  A    between atoms: N4_23  and  C21_25
REMARK    6  A    between atoms: C21_25  and  C22_26
REMARK    7  A    between atoms: C22_26  and  O1_27
REMARK    8  A    between atoms: C22_26  and  C23_29
REMARK    9  A    between atoms: C23_29  and  O2_30
REMARK   10  A    between atoms: C23_29  and  O3_32
ROOT
HETATM    1  N2  UNL     1      -1.762   2.772  27.822  1.00  0.00    -0.003 N
HETATM    2  C9  UNL     1      -0.900   2.230  28.861  1.00  0.00     0.283 C
HETATM    3  C10 UNL     1      -3.081   2.288  28.108  1.00  0.00     0.248 C
HETATM    4  C11 UNL     1      -3.391   0.864  27.825  1.00  0.00     0.038 C
HETATM    5  C12 UNL     1      -3.685   0.476  26.429  1.00  0.00    -0.029 C
HETATM    6  C13 UNL     1      -4.849  -0.515  26.277  1.00  0.00     0.040 C
HETATM    7  C14 UNL     1      -4.550  -1.363  25.056  1.00  0.00     0.273 C
HETATM    8  N3  UNL     1      -3.763  -0.725  24.051  1.00  0.00     0.090 N
HETATM    9  C15 UNL     1      -3.402  -1.725  23.065  1.00  0.00     0.310 C
HETATM   10  C16 UNL     1      -2.569  -0.067  24.483  1.00  0.00     0.238 C
HETATM   11  C17 UNL     1      -2.499  -0.371  25.977  1.00  0.00     0.047 C
HETATM   12  C18 UNL     1      -2.695   1.438  24.576  1.00  0.00     0.053 C
HETATM   13  C19 UNL     1      -3.165   2.114  23.337  1.00  0.00     0.254 C
HETATM   14  N4  UNL     1      -4.556   2.441  23.447  1.00  0.00    -0.067 N
HETATM   15  C20 UNL     1      -5.372   2.022  22.342  1.00  0.00     0.272 C
HETATM   16  C24 UNL     1      -5.042   1.765  24.667  1.00  0.00     0.243 C
HETATM   17  C25 UNL     1      -3.862   1.613  25.498  1.00  0.00     0.037 C
HETATM   18  C26 UNL     1      -1.503   2.061  25.212  1.00  0.00     0.027 C
HETATM   19  C27 UNL     1      -0.588   2.353  24.329  1.00  0.00    -0.018 C
HETATM   20  C28 UNL     1       0.732   2.979  24.535  1.00  0.00     0.036 C
HETATM   21  C29 UNL     1      -1.185   2.382  26.600  1.00  0.00     0.348 C
HETATM   22  O4  UNL     1       0.061   2.257  26.736  1.00  0.00    -0.260 OA
ENDROOT
BRANCH   1  23
HETATM   23  C8  UNL     1      -1.855   4.204  27.918  1.00  0.00     0.283 C
BRANCH  23  24
HETATM   24  C7  UNL     1      -3.067   4.856  28.369  1.00  0.00     0.250 C
HETATM   25  N1  UNL     1      -2.745   5.746  29.473  1.00  0.00     0.098 N
HETATM   26  C4  UNL     1      -4.109   6.205  29.790  1.00  0.00     0.273 C
HETATM   27  C5  UNL     1      -4.578   6.642  28.395  1.00  0.00     0.032 C
HETATM   28  C6  UNL     1      -3.762   5.799  27.426  1.00  0.00     0.039 C
BRANCH  25  29
HETATM   29  C3  UNL     1      -2.006   6.921  29.107  1.00  0.00     0.299 C
BRANCH  29  30
HETATM   30  C2  UNL     1      -1.058   7.308  30.196  1.00  0.00    -0.007 C
HETATM   31  C1  UNL     1      -1.316   8.370  30.942  1.00  0.00     0.008 C
ENDBRANCH  29  30
ENDBRANCH  25  29
ENDBRANCH  23  24
ENDBRANCH   1  23
BRANCH  14  32
HETATM   32  C21 UNL     1      -4.667   3.877  23.589  1.00  0.00     0.273 C
BRANCH  32  33
HETATM   33  C22 UNL     1      -3.581   4.573  22.833  1.00  0.00     0.199 C
BRANCH  33  34
HETATM   34  O1  UNL     1      -2.913   5.559  23.557  1.00  0.00    -0.389 OA
ATOM     35  H1  UNL     1      -2.988   5.475  24.500  1.00  0.00     0.210 HD
ENDBRANCH  33  34
BRANCH  33  36
HETATM   36  C23 UNL     1      -4.171   5.331  21.625  1.00  0.00     0.284 C
BRANCH  36  37
HETATM   37  O2  UNL     1      -3.581   6.562  21.477  1.00  0.00    -0.369 OA
ATOM     38  H2  UNL     1      -4.209   7.210  21.180  1.00  0.00     0.212 HD
ENDBRANCH  36  37
BRANCH  36  39
HETATM   39  O3  UNL     1      -5.534   5.549  21.822  1.00  0.00    -0.369 OA
ATOM     40  H3  UNL     1      -5.723   6.478  21.768  1.00  0.00     0.212 HD
ENDBRANCH  36  39
ENDBRANCH  33  36
ENDBRANCH  32  33
ENDBRANCH  14  32
TORSDOF 10
ENDMDL