MODEL 5
REMARK VINA RESULT: -6.336518698      6.873     12.117
REMARK  11 active torsions:
REMARK  status: ('A' for Active; 'I' for Inactive)
REMARK    1  A    between atoms: C4_4  and  C6_6
REMARK    2  A    between atoms: C6_6  and  N1_7
REMARK    3  A    between atoms: N1_7  and  C9_10
REMARK    4  A    between atoms: C11_12  and  C12_13
REMARK    5  A    between atoms: C13_14  and  C14_15
REMARK    6  A    between atoms: C16_20  and  C17_21
REMARK       I    between atoms: C17_21  and  N3_23
REMARK       I    between atoms: N4_26  and  C20_27
REMARK    7  A    between atoms: C20_27  and  C21_29
REMARK    8  A    between atoms: C21_29  and  O3_30
REMARK    9  A    between atoms: N5_35  and  C25_36
REMARK   10  A    between atoms: C25_36  and  C26_40
REMARK   11  A    between atoms: C26_40  and  S1_41
ROOT
HETATM    1  C12 UNL     1      -1.909   2.372  20.885  1.00  0.00    -0.004 C
HETATM    2  C13 UNL     1      -0.907   1.658  20.467  1.00  0.00    -0.022 C
ENDROOT
BRANCH   1   3
HETATM    3  C11 UNL     1      -1.787   3.439  21.945  1.00  0.00     0.123 C
HETATM    4  C4  UNL     1      -2.497   3.048  23.199  1.00  0.00     0.010 C
HETATM    5  C3  UNL     1      -3.354   4.223  23.589  1.00  0.00     0.069 C
HETATM    6  C5  UNL     1      -3.593   2.056  22.688  1.00  0.00     0.020 C
HETATM    7  C2  UNL     1      -3.638   4.766  22.217  1.00  0.00     0.005 C
HETATM    8  C1  UNL     1      -4.774   5.218  21.789  1.00  0.00     0.038 C
HETATM    9  N5  UNL     1      -2.412   4.693  21.484  1.00  0.00    -0.332 N
BRANCH   4  10
HETATM   10  C6  UNL     1      -1.806   2.331  24.236  1.00  0.00     0.248 C
BRANCH  10  11
HETATM   11  N1  UNL     1      -0.416   2.284  24.440  1.00  0.00    -0.074 N
HETATM   12  C7  UNL     1       0.295   3.520  24.184  1.00  0.00     0.272 C
HETATM   13  C8  UNL     1      -0.311   2.153  25.927  1.00  0.00     0.272 C
BRANCH  11  14
HETATM   14  C9  UNL     1       0.302   1.142  23.963  1.00  0.00     0.232 C
HETATM   15  C10 UNL     1      -0.549  -0.075  23.701  1.00  0.00     0.034 C
ENDBRANCH  11  14
ENDBRANCH  10  11
ENDBRANCH   4  10
BRANCH   9  16
HETATM   16  C25 UNL     1      -1.912   5.618  20.532  1.00  0.00     0.087 C
HETATM   17  N6  UNL     1      -0.638   5.748  20.408  1.00  0.00    -0.388 N
ATOM     18  H62 UNL     1      -0.050   5.168  21.007  1.00  0.00     0.157 HD
ATOM     19  H61 UNL     1      -0.278   6.413  19.724  1.00  0.00     0.157 HD
BRANCH  16  20
HETATM   20  C26 UNL     1      -2.764   6.459  19.664  1.00  0.00     0.149 C
BRANCH  20  21
HETATM   21  S1  UNL     1      -2.012   8.064  19.310  1.00  0.00    -0.166 SA
HETATM   22  C27 UNL     1      -3.090   9.441  19.701  1.00  0.00     0.090 C
ENDBRANCH  20  21
ENDBRANCH  16  20
ENDBRANCH   9  16
ENDBRANCH   1   3
BRANCH   2  23
HETATM   23  C14 UNL     1      -0.920   0.606  19.452  1.00  0.00     0.036 C
HETATM   24  C15 UNL     1      -1.390  -0.739  20.032  1.00  0.00     0.242 C
HETATM   25  N2  UNL     1      -1.150  -1.605  18.927  1.00  0.00    -0.062 N
HETATM   26  C16 UNL     1       0.159  -1.233  18.450  1.00  0.00     0.277 C
ATOM     27  H22 UNL     1      -1.245  -2.597  19.148  1.00  0.00     0.278 HD
ATOM     28  H21 UNL     1      -1.876  -1.577  18.212  1.00  0.00     0.278 HD
HETATM   29  C24 UNL     1       0.402   0.198  18.900  1.00  0.00     0.053 C
BRANCH  26  30
HETATM   30  C17 UNL     1       0.140  -1.321  16.957  1.00  0.00     0.250 C
HETATM   31  O1  UNL     1      -0.094  -0.280  16.283  1.00  0.00    -0.271 OA
HETATM   32  N3  UNL     1       0.383  -2.555  16.299  1.00  0.00    -0.347 N
HETATM   33  C18 UNL     1       0.639  -3.811  16.928  1.00  0.00     0.145 C
HETATM   34  C23 UNL     1       0.380  -2.549  14.830  1.00  0.00     0.145 C
HETATM   35  C19 UNL     1      -0.411  -4.814  16.482  1.00  0.00     0.145 C
HETATM   36  N4  UNL     1      -1.192  -4.244  15.426  1.00  0.00    -0.347 N
HETATM   37  C20 UNL     1      -2.615  -4.209  15.420  1.00  0.00     0.243 C
HETATM   38  C22 UNL     1      -0.483  -3.671  14.303  1.00  0.00     0.145 C
HETATM   39  O2  UNL     1      -3.213  -3.686  14.446  1.00  0.00    -0.271 OA
BRANCH  37  40
HETATM   40  C21 UNL     1      -3.427  -4.768  16.525  1.00  0.00     0.267 C
BRANCH  40  41
HETATM   41  O3  UNL     1      -3.674  -3.761  17.448  1.00  0.00    -0.392 OA
ATOM     42  H3  UNL     1      -3.899  -4.159  18.280  1.00  0.00     0.210 HD
ENDBRANCH  40  41
ENDBRANCH  37  40
ENDBRANCH  26  30
ENDBRANCH   2  23
TORSDOF 11
ENDMDL