MODEL 1
REMARK VINA RESULT: -7.624547985      0.000      0.000
REMARK  9 active torsions:
REMARK  status: ('A' for Active; 'I' for Inactive)
REMARK    1  A    between atoms: C2_2  and  C3_3
REMARK    2  A    between atoms: C3_3  and  C4_4
REMARK    3  A    between atoms: C4_4  and  C5_5
REMARK    4  A    between atoms: C7_7  and  N1_8
REMARK       I    between atoms: N1_8  and  C8_10
REMARK    5  A    between atoms: C11_16  and  C12_17
REMARK    6  A    between atoms: C12_17  and  N3_18
REMARK    7  A    between atoms: C21_28  and  N4_29
REMARK       I    between atoms: N4_29  and  C22_31
REMARK    8  A    between atoms: C22_31  and  C23_33
REMARK    9  A    between atoms: C23_33  and  C24_34
ROOT
HETATM    1  C12 UNL     1      -0.760   0.548  20.244  1.00  0.00     0.272 C
ENDROOT
BRANCH   1   2
HETATM    2  C11 UNL     1       0.688   0.562  20.111  1.00  0.00     0.208 C
HETATM    3  N2  UNL     1       1.410  -0.657  20.326  1.00  0.00    -0.308 N
HETATM    4  C5  UNL     1       1.841  -1.217  19.049  1.00  0.00     0.114 C
HETATM    5  C10 UNL     1       1.912  -1.586  21.290  1.00  0.00     0.245 C
HETATM    6  C6  UNL     1       3.263  -1.646  19.343  1.00  0.00     0.089 C
HETATM    7  N5  UNL     1       1.816  -0.105  18.153  1.00  0.00    -0.332 N
HETATM    8  C7  UNL     1       3.158  -2.166  20.751  1.00  0.00     0.181 C
HETATM    9  C28 UNL     1       1.054   0.924  18.695  1.00  0.00     0.244 C
ATOM     10  H5  UNL     1       2.288  -0.071  17.250  1.00  0.00     0.165 HD
HETATM   11  O5  UNL     1       0.691   2.007  18.154  1.00  0.00    -0.271 OA
HETATM   12  O2  UNL     1       1.463  -1.919  22.408  1.00  0.00    -0.271 OA
BRANCH   4  13
HETATM   13  C4  UNL     1       0.949  -2.312  18.580  1.00  0.00     0.054 C
BRANCH  13  14
HETATM   14  C3  UNL     1       1.062  -2.503  17.086  1.00  0.00     0.004 C
BRANCH  14  15
HETATM   15  C2  UNL     1       1.066  -3.987  16.738  1.00  0.00    -0.004 C
HETATM   16  C1  UNL     1       2.019  -4.744  17.666  1.00  0.00     0.005 C
ENDBRANCH  14  15
ENDBRANCH  13  14
ENDBRANCH   4  13
BRANCH   8  17
HETATM   17  N1  UNL     1       3.229  -3.601  20.852  1.00  0.00    -0.348 N
HETATM   18  C8  UNL     1       4.476  -4.273  20.854  1.00  0.00     0.214 C
HETATM   19  C9  UNL     1       4.499  -5.747  20.961  1.00  0.00     0.117 C
HETATM   20  O1  UNL     1       5.576  -3.659  20.769  1.00  0.00    -0.274 OA
ATOM     21  H1  UNL     1       2.367  -4.143  20.923  1.00  0.00     0.163 HD
ENDBRANCH   8  17
ENDBRANCH   1   2
BRANCH   1  22
HETATM   22  N3  UNL     1      -1.487   0.961  21.359  1.00  0.00    -0.067 N
HETATM   23  C13 UNL     1      -2.917   0.830  21.153  1.00  0.00     0.272 C
HETATM   24  C14 UNL     1      -1.095   0.500  22.638  1.00  0.00     0.237 C
HETATM   25  C15 UNL     1      -0.075   1.349  23.358  1.00  0.00     0.033 C
HETATM   26  C16 UNL     1      -0.550   2.617  23.925  1.00  0.00     0.001 C
HETATM   27  C17 UNL     1      -0.341   2.757  25.431  1.00  0.00     0.013 C
HETATM   28  C20 UNL     1      -2.029   2.872  23.804  1.00  0.00     0.084 C
HETATM   29  C18 UNL     1      -1.210   3.978  25.755  1.00  0.00     0.079 C
HETATM   30  C19 UNL     1      -2.202   4.059  24.660  1.00  0.00     0.133 C
HETATM   31  O3  UNL     1      -3.002   4.947  24.512  1.00  0.00    -0.297 OA
HETATM   32  C21 UNL     1      -2.323   3.080  22.352  1.00  0.00     0.122 C
HETATM   33  C27 UNL     1      -1.327   2.452  21.442  1.00  0.00     0.263 C
BRANCH  32  34
HETATM   34  N4  UNL     1      -2.269   4.525  22.064  1.00  0.00    -0.354 N
HETATM   35  C22 UNL     1      -3.096   5.139  21.083  1.00  0.00     0.218 C
HETATM   36  O4  UNL     1      -3.921   4.489  20.400  1.00  0.00    -0.274 OA
ATOM     37  H4  UNL     1      -1.615   5.106  22.588  1.00  0.00     0.162 HD
BRANCH  35  38
HETATM   38  C23 UNL     1      -2.975   6.595  20.861  1.00  0.00     0.107 C
BRANCH  38  39
HETATM   39  C24 UNL     1      -2.258   6.846  19.557  1.00  0.00    -0.006 A
HETATM   40  C25 UNL     1      -1.792   8.252  19.278  1.00  0.00     0.005 A
HETATM   41  C26 UNL     1      -0.809   7.187  19.654  1.00  0.00     0.005 A
ENDBRANCH  38  39
ENDBRANCH  35  38
ENDBRANCH  32  34
ENDBRANCH   1  22
TORSDOF 9
ENDMDL