MODEL 3
REMARK VINA RESULT: -6.681616022      2.008      7.554
REMARK  10 active torsions:
REMARK  status: ('A' for Active; 'I' for Inactive)
REMARK    1  A    between atoms: C2_2  and  C3_3
REMARK    2  A    between atoms: C4_4  and  C5_5
REMARK    3  A    between atoms: C7_10  and  C8_11
REMARK    4  A    between atoms: C8_11  and  C9_12
REMARK    5  A    between atoms: C14_19  and  C15_20
REMARK    6  A    between atoms: C23_33  and  C24_34
REMARK    7  A    between atoms: C24_34  and  C25_35
REMARK    8  A    between atoms: C25_35  and  C26_36
REMARK    9  A    between atoms: C26_36  and  C27_37
REMARK   10  A    between atoms: C27_37  and  N5_38
ROOT
HETATM    1  C5  UNL     1      -2.185   3.991  25.000  1.00  0.00     0.235 C
HETATM    2  N1  UNL     1      -1.298   4.559  24.009  1.00  0.00    -0.334 N
ATOM      3  H1  UNL     1      -0.660   5.282  24.339  1.00  0.00     0.164 HD
HETATM    4  C6  UNL     1      -1.213   4.231  22.651  1.00  0.00     0.269 C
HETATM    5  O1  UNL     1      -0.057   4.086  22.170  1.00  0.00    -0.266 OA
HETATM    6  C7  UNL     1      -2.343   4.032  21.699  1.00  0.00     0.102 C
HETATM    7  N2  UNL     1      -3.014   2.763  21.873  1.00  0.00    -0.313 N
HETATM    8  C12 UNL     1      -2.178   1.616  22.276  1.00  0.00     0.160 C
HETATM    9  C13 UNL     1      -4.380   2.499  21.710  1.00  0.00     0.271 C
HETATM   10  O2  UNL     1      -4.700   1.269  21.529  1.00  0.00    -0.266 OA
HETATM   11  C14 UNL     1      -5.515   3.432  21.717  1.00  0.00     0.084 C
HETATM   12  N3  UNL     1      -5.796   4.122  22.916  1.00  0.00    -0.324 N
ATOM     13  H3  UNL     1      -5.347   5.038  22.939  1.00  0.00     0.169 HD
HETATM   14  C18 UNL     1      -6.525   3.878  24.071  1.00  0.00     0.244 C
HETATM   15  O3  UNL     1      -7.573   4.609  24.280  1.00  0.00    -0.271 OA
HETATM   16  C19 UNL     1      -6.324   2.896  25.164  1.00  0.00     0.175 C
HETATM   17  C20 UNL     1      -7.694   2.209  25.298  1.00  0.00     0.042 C
HETATM   18  N4  UNL     1      -5.979   3.488  26.444  1.00  0.00    -0.343 N
HETATM   19  C21 UNL     1      -6.985   3.334  27.521  1.00  0.00     0.153 C
HETATM   20  C22 UNL     1      -4.828   4.170  26.805  1.00  0.00     0.231 C
HETATM   21  O4  UNL     1      -4.194   3.839  27.848  1.00  0.00    -0.272 OA
HETATM   22  C23 UNL     1      -4.150   5.333  26.107  1.00  0.00     0.150 C
HETATM   23  C28 UNL     1      -2.684   4.981  25.990  1.00  0.00     0.174 C
HETATM   24  O5  UNL     1      -1.932   5.542  26.745  1.00  0.00    -0.294 OA
ENDROOT
BRANCH  22  25
HETATM   25  C24 UNL     1      -4.254   6.507  27.058  1.00  0.00     0.022 C
BRANCH  25  26
HETATM   26  C25 UNL     1      -5.634   6.916  27.408  1.00  0.00     0.003 C
BRANCH  26  27
HETATM   27  C26 UNL     1      -5.852   7.539  28.750  1.00  0.00     0.027 C
BRANCH  27  28
HETATM   28  C27 UNL     1      -5.185   6.872  29.900  1.00  0.00     0.229 C
BRANCH  28  29
HETATM   29  N5  UNL     1      -4.127   7.631  30.464  1.00  0.00    -0.079 N
ATOM     30  H53 UNL     1      -3.252   7.450  29.972  1.00  0.00     0.274 HD
ATOM     31  H52 UNL     1      -4.240   8.622  30.249  1.00  0.00     0.274 HD
ATOM     32  H51 UNL     1      -4.011   7.492  31.467  1.00  0.00     0.274 HD
ENDBRANCH  28  29
ENDBRANCH  27  28
ENDBRANCH  26  27
ENDBRANCH  25  26
ENDBRANCH  22  25
BRANCH   1  33
HETATM   33  C4  UNL     1      -1.483   2.965  25.825  1.00  0.00    -0.073 C
HETATM   34  C3  UNL     1      -0.937   2.134  26.500  1.00  0.00    -0.104 C
BRANCH  34  35
HETATM   35  C2  UNL     1      -0.292   1.127  27.342  1.00  0.00     0.089 C
HETATM   36  C1  UNL     1       1.219   1.139  27.150  1.00  0.00     0.018 C
ENDBRANCH  34  35
ENDBRANCH   1  33
BRANCH   6  37
HETATM   37  C8  UNL     1      -2.121   4.501  20.324  1.00  0.00     0.012 C
BRANCH  37  38
HETATM   38  C9  UNL     1      -2.514   5.830  19.852  1.00  0.00     0.002 C
HETATM   39  C10 UNL     1      -1.263   6.750  19.932  1.00  0.00     0.013 C
HETATM   40  C11 UNL     1      -3.501   6.455  20.817  1.00  0.00     0.013 C
ENDBRANCH  37  38
ENDBRANCH   6  37
BRANCH  11  41
HETATM   41  C15 UNL     1      -6.705   2.895  20.952  1.00  0.00     0.033 C
HETATM   42  C16 UNL     1      -7.682   3.880  20.456  1.00  0.00     0.016 C
HETATM   43  C17 UNL     1      -7.452   1.947  21.903  1.00  0.00     0.016 C
ENDBRANCH  11  41
TORSDOF 10
ENDMDL