MODEL 4
REMARK VINA RESULT: -7.671512373      2.890      4.127
REMARK  11 active torsions:
REMARK  status: ('A' for Active; 'I' for Inactive)
REMARK    1  A    between atoms: N1_2  and  C2_3
REMARK    2  A    between atoms: C2_3  and  C3_4
REMARK    3  A    between atoms: N2_7  and  C6_8
REMARK    4  A    between atoms: C9_12  and  C10_13
REMARK    5  A    between atoms: C10_13  and  C11_14
REMARK    6  A    between atoms: C11_14  and  N4_15
REMARK    7  A    between atoms: N4_15  and  S1_17
REMARK    8  A    between atoms: S1_17  and  N5_18
REMARK    9  A    between atoms: C12_23  and  O3_24
REMARK   10  A    between atoms: O3_24  and  C13_25
REMARK       I    between atoms: C13_25  and  N6_27
REMARK   11  A    between atoms: N6_27  and  C14_29
ROOT
HETATM    1  C6  UNL     1      -8.683   2.633  19.491  1.00  0.00     0.246 C
HETATM    2  C7  UNL     1      -9.325   3.910  19.166  1.00  0.00     0.078 C
HETATM    3  N3  UNL     1      -9.831   4.919  18.913  1.00  0.00    -0.196 NA
ENDROOT
BRANCH   1   4
HETATM    4  N2  UNL     1      -7.627   2.804  20.459  1.00  0.00    -0.381 N
HETATM    5  C5  UNL     1      -7.388   1.697  21.326  1.00  0.00     0.123 C
HETATM    6  C4  UNL     1      -5.917   1.741  21.740  1.00  0.00     0.027 C
HETATM    7  C3  UNL     1      -5.710   2.986  22.521  1.00  0.00     0.022 C
HETATM    8  C9  UNL     1      -5.844   4.138  21.509  1.00  0.00     0.031 C
HETATM    9  C8  UNL     1      -6.943   3.857  20.556  1.00  0.00     0.064 C
BRANCH   7  10
HETATM   10  C2  UNL     1      -4.480   3.188  23.284  1.00  0.00     0.246 C
BRANCH  10  11
HETATM   11  N1  UNL     1      -4.433   3.194  24.690  1.00  0.00    -0.039 N
HETATM   12  C1  UNL     1      -5.412   2.522  25.452  1.00  0.00     0.276 C
HETATM   13  C12 UNL     1      -4.292   4.601  25.121  1.00  0.00     0.337 C
HETATM   14  C20 UNL     1      -2.820   4.924  25.023  1.00  0.00     0.069 C
HETATM   15  C21 UNL     1      -2.141   3.630  24.648  1.00  0.00     0.021 C
HETATM   16  C22 UNL     1      -0.946   3.327  25.521  1.00  0.00     0.007 C
HETATM   17  C25 UNL     1      -3.135   2.596  25.050  1.00  0.00     0.197 C
HETATM   18  C23 UNL     1      -1.398   2.423  26.618  1.00  0.00     0.002 C
HETATM   19  C24 UNL     1      -2.932   2.357  26.491  1.00  0.00     0.034 C
BRANCH  13  20
HETATM   20  O3  UNL     1      -4.778   4.837  26.398  1.00  0.00    -0.270 OA
BRANCH  20  21
HETATM   21  C13 UNL     1      -4.405   5.813  27.279  1.00  0.00     0.362 C
HETATM   22  O4  UNL     1      -5.026   6.910  27.214  1.00  0.00    -0.238 OA
HETATM   23  N6  UNL     1      -3.359   5.602  28.228  1.00  0.00    -0.332 N
ATOM     24  H6  UNL     1      -2.895   4.694  28.229  1.00  0.00     0.165 HD
BRANCH  23  25
HETATM   25  C14 UNL     1      -2.915   6.579  29.178  1.00  0.00     0.086 C
HETATM   26  C15 UNL     1      -1.386   6.539  29.334  1.00  0.00     0.025 C
HETATM   27  C16 UNL     1      -0.983   7.788  30.043  1.00  0.00     0.002 C
HETATM   28  C17 UNL     1      -2.044   8.386  30.903  1.00  0.00     0.000 C
HETATM   29  C18 UNL     1      -2.995   7.384  31.497  1.00  0.00     0.002 C
HETATM   30  C19 UNL     1      -3.456   6.319  30.569  1.00  0.00     0.025 C
ENDBRANCH  23  25
ENDBRANCH  20  21
ENDBRANCH  13  20
ENDBRANCH  10  11
ENDBRANCH   7  10
BRANCH   8  31
HETATM   31  C10 UNL     1      -4.578   4.396  20.768  1.00  0.00     0.030 C
BRANCH  31  32
HETATM   32  C11 UNL     1      -4.107   5.831  20.977  1.00  0.00     0.134 C
BRANCH  32  33
HETATM   33  N4  UNL     1      -3.206   6.161  19.857  1.00  0.00    -0.303 N
ATOM     34  H4  UNL     1      -3.500   6.634  19.003  1.00  0.00     0.173 HD
BRANCH  33  35
HETATM   35  S1  UNL     1      -1.607   5.650  20.174  1.00  0.00     0.312 S
HETATM   36  O1  UNL     1      -1.269   4.453  19.308  1.00  0.00    -0.183 OA
HETATM   37  O2  UNL     1      -1.406   5.277  21.630  1.00  0.00    -0.183 OA
BRANCH  35  38
HETATM   38  N5  UNL     1      -0.447   6.878  19.814  1.00  0.00    -0.312 N
ATOM     39  H52 UNL     1       0.166   6.843  18.999  1.00  0.00     0.170 HD
ATOM     40  H51 UNL     1      -0.453   7.627  20.506  1.00  0.00     0.170 HD
ENDBRANCH  35  38
ENDBRANCH  33  35
ENDBRANCH  32  33
ENDBRANCH  31  32
ENDBRANCH   8  31
ENDBRANCH   1   4
TORSDOF 11
ENDMDL