MODEL 3
REMARK VINA RESULT: -7.469096906      2.433      8.850
REMARK  11 active torsions:
REMARK  status: ('A' for Active; 'I' for Inactive)
REMARK    1  A    between atoms: C2_2  and  C3_3
REMARK    2  A    between atoms: C3_3  and  C6_6
REMARK    3  A    between atoms: C6_6  and  C7_7
REMARK    4  A    between atoms: C10_10  and  C11_11
REMARK    5  A    between atoms: C11_11  and  C12_12
REMARK    6  A    between atoms: C12_12  and  C13_13
REMARK    7  A    between atoms: N3_22  and  C17_23
REMARK    8  A    between atoms: C17_23  and  C18_24
REMARK       I    between atoms: C18_24  and  N4_26
REMARK    9  A    between atoms: C24_32  and  C25_33
REMARK   10  A    between atoms: C25_33  and  O3_35
REMARK   11  A    between atoms: C25_33  and  C27_37
ROOT
HETATM    1  C7  UNL     1      -2.279   4.027  26.246  1.00  0.00     0.025 A
HETATM    2  C8  UNL     1      -1.192   3.250  26.448  1.00  0.00    -0.005 A
HETATM    3  C9  UNL     1      -0.965   2.752  27.672  1.00  0.00     0.026 C
HETATM    4  C10 UNL     1      -0.424   2.695  25.368  1.00  0.00     0.042 A
HETATM    5  N3  UNL     1      -0.824   2.953  24.115  1.00  0.00    -0.335 N
HETATM    6  C23 UNL     1      -1.929   3.730  23.820  1.00  0.00     0.086 A
HETATM    7  C24 UNL     1      -2.256   3.994  22.598  1.00  0.00     0.044 C
HETATM    8  C30 UNL     1      -2.611   4.235  24.882  1.00  0.00     0.209 A
HETATM    9  O4  UNL     1      -3.605   4.933  24.672  1.00  0.00    -0.285 OA
ENDROOT
BRANCH   4  10
HETATM   10  C11 UNL     1       0.645   2.080  25.705  1.00  0.00     0.008 C
BRANCH  10  11
HETATM   11  C12 UNL     1       1.218   0.754  25.591  1.00  0.00     0.075 C
BRANCH  11  12
HETATM   12  C13 UNL     1       1.247   0.033  26.913  1.00  0.00     0.038 A
HETATM   13  C14 UNL     1       0.240  -0.685  27.476  1.00  0.00     0.034 A
HETATM   14  C15 UNL     1      -1.112  -0.932  26.933  1.00  0.00     0.070 C
HETATM   15  N1  UNL     1       0.661  -1.179  28.670  1.00  0.00    -0.302 N
HETATM   16  N2  UNL     1       1.901  -0.770  28.835  1.00  0.00    -0.266 N
ATOM     17  H1  UNL     1       0.121  -1.756  29.314  1.00  0.00     0.186 HD
HETATM   18  C16 UNL     1       2.300  -0.017  27.768  1.00  0.00     0.268 A
ATOM     19  H2  UNL     1       2.481  -0.984  29.644  1.00  0.00     0.190 HD
HETATM   20  O1  UNL     1       3.447   0.517  27.638  1.00  0.00    -0.266 OA
ENDBRANCH  11  12
ENDBRANCH  10  11
ENDBRANCH   4  10
BRANCH   5  21
HETATM   21  C17 UNL     1      -0.159   2.449  22.945  1.00  0.00     0.232 C
BRANCH  21  22
HETATM   22  C18 UNL     1      -0.771   1.175  22.449  1.00  0.00     0.238 C
HETATM   23  O2  UNL     1      -1.441   0.511  23.271  1.00  0.00    -0.272 OA
HETATM   24  N4  UNL     1      -0.618   0.716  21.125  1.00  0.00    -0.351 N
HETATM   25  C19 UNL     1      -1.208  -0.521  20.636  1.00  0.00     0.126 C
HETATM   26  C22 UNL     1       0.097   1.312  20.039  1.00  0.00     0.126 C
HETATM   27  C20 UNL     1      -1.379  -0.333  19.165  1.00  0.00     0.021 C
HETATM   28  C21 UNL     1      -0.339   0.653  18.775  1.00  0.00     0.021 C
ENDBRANCH  21  22
ENDBRANCH   5  21
BRANCH   1  29
HETATM   29  C6  UNL     1      -2.914   4.769  27.103  1.00  0.00     0.002 C
BRANCH  29  30
HETATM   30  C3  UNL     1      -2.799   5.456  28.358  1.00  0.00    -0.012 C
HETATM   31  C4  UNL     1      -1.621   6.315  28.640  1.00  0.00     0.023 C
HETATM   32  C5  UNL     1      -3.212   4.555  29.513  1.00  0.00     0.023 C
BRANCH  30  33
HETATM   33  C2  UNL     1      -3.966   6.518  28.379  1.00  0.00    -0.024 C
HETATM   34  C1  UNL     1      -4.908   6.469  27.490  1.00  0.00     0.008 C
ENDBRANCH  30  33
ENDBRANCH  29  30
ENDBRANCH   1  29
BRANCH   7  35
HETATM   35  C25 UNL     1      -3.353   4.770  22.000  1.00  0.00     0.077 C
HETATM   36  C26 UNL     1      -4.697   4.082  22.104  1.00  0.00     0.051 C
BRANCH  35  37
HETATM   37  O3  UNL     1      -3.369   6.119  22.292  1.00  0.00    -0.386 OA
ATOM     38  H3  UNL     1      -3.727   6.686  21.619  1.00  0.00     0.211 HD
ENDBRANCH  35  37
BRANCH  35  39
HETATM   39  C27 UNL     1      -3.130   4.788  20.442  1.00  0.00     0.015 C
HETATM   40  C28 UNL     1      -1.711   4.394  20.172  1.00  0.00     0.013 C
HETATM   41  C29 UNL     1      -3.519   6.095  19.871  1.00  0.00     0.013 C
ENDBRANCH  35  39
ENDBRANCH   7  35
TORSDOF 11
ENDMDL