MODEL 4
REMARK VINA RESULT: -5.429864878      2.106      7.355
REMARK  9 active torsions:
REMARK  status: ('A' for Active; 'I' for Inactive)
REMARK    1  A    between atoms: C3_3  and  C4_4
REMARK    2  A    between atoms: C4_4  and  N1_5
REMARK       I    between atoms: N1_5  and  C6_7
REMARK    3  A    between atoms: C6_7  and  C7_9
REMARK    4  A    between atoms: C7_9  and  N2_11
REMARK    5  A    between atoms: C10_14  and  C11_15
REMARK    6  A    between atoms: N3_17  and  C13_18
REMARK    7  A    between atoms: C13_18  and  C14_19
REMARK       I    between atoms: C14_19  and  N4_21
REMARK    8  A    between atoms: N6_28  and  C17_29
REMARK    9  A    between atoms: C20_32  and  N7_34
ROOT
HETATM    1  C1  UNL     1      -1.671   5.320  20.008  1.00  0.00     0.112 C
HETATM    2  C2  UNL     1      -1.941   4.221  20.909  1.00  0.00    -0.109 C
HETATM    3  C3  UNL     1      -2.171   3.338  21.667  1.00  0.00    -0.087 C
ENDROOT
BRANCH   3   4
HETATM    4  C4  UNL     1      -2.449   2.290  22.611  1.00  0.00     0.219 C
BRANCH   4   5
HETATM    5  N1  UNL     1      -1.465   1.171  22.489  1.00  0.00    -0.341 N
HETATM    6  C5  UNL     1      -0.101   1.591  22.721  1.00  0.00     0.154 C
HETATM    7  C6  UNL     1      -1.908  -0.100  22.157  1.00  0.00     0.266 C
HETATM    8  O1  UNL     1      -3.176  -0.180  21.940  1.00  0.00    -0.266 OA
BRANCH   7   9
HETATM    9  C7  UNL     1      -1.088  -1.284  22.040  1.00  0.00     0.085 C
HETATM   10  C8  UNL     1      -1.090  -2.359  23.049  1.00  0.00     0.075 C
BRANCH   9  11
HETATM   11  N2  UNL     1      -0.661  -1.730  20.724  1.00  0.00    -0.262 N
HETATM   12  C9  UNL     1      -1.606  -2.458  19.942  1.00  0.00     0.253 C
HETATM   13  O2  UNL     1      -2.413  -3.117  20.707  1.00  0.00    -0.270 OA
HETATM   14  C10 UNL     1      -1.899  -2.647  18.447  1.00  0.00     0.195 C
HETATM   15  N3  UNL     1      -0.754  -2.574  17.629  1.00  0.00    -0.196 N
HETATM   16  C16 UNL     1       0.282  -1.550  17.758  1.00  0.00     0.678 C
HETATM   17  N5  UNL     1       0.908  -1.321  16.651  1.00  0.00    -0.234 N
HETATM   18  N6  UNL     1       0.698  -0.773  18.878  1.00  0.00    -0.166 N
ATOM     19  H52 UNL     1       0.610  -1.878  15.849  1.00  0.00     0.174 HD
ATOM     20  H51 UNL     1       1.631  -0.607  16.740  1.00  0.00     0.174 HD
HETATM   21  C19 UNL     1       0.588  -1.222  20.299  1.00  0.00     0.157 C
HETATM   22  C20 UNL     1       1.627  -1.129  20.973  1.00  0.00     0.066 C
HETATM   23  C21 UNL     1       1.975  -1.465  22.348  1.00  0.00     0.074 C
BRANCH  14  24
HETATM   24  C11 UNL     1      -2.770  -3.858  18.442  1.00  0.00     0.031 C
HETATM   25  C12 UNL     1      -4.131  -3.821  17.898  1.00  0.00     0.007 C
ENDBRANCH  14  24
BRANCH  15  26
HETATM   26  C13 UNL     1      -0.488  -3.428  16.473  1.00  0.00     0.244 C
BRANCH  26  27
HETATM   27  C14 UNL     1      -1.364  -3.238  15.325  1.00  0.00     0.235 C
HETATM   28  O3  UNL     1      -1.426  -2.119  14.738  1.00  0.00    -0.272 OA
HETATM   29  N4  UNL     1      -2.144  -4.327  14.873  1.00  0.00    -0.364 N
HETATM   30  C15 UNL     1      -3.030  -4.231  13.741  1.00  0.00     0.149 C
ATOM     31  H4  UNL     1      -2.076  -5.217  15.368  1.00  0.00     0.161 HD
ENDBRANCH  26  27
ENDBRANCH  15  26
BRANCH  18  32
HETATM   32  C17 UNL     1       1.266   0.485  18.652  1.00  0.00     0.145 C
HETATM   33  C18 UNL     1       0.224   1.617  19.013  1.00  0.00     0.027 C
ENDBRANCH  18  32
BRANCH  22  34
HETATM   34  N7  UNL     1       2.895  -0.648  20.365  1.00  0.00    -0.308 N
HETATM   35  N8  UNL     1       3.875  -1.395  20.143  1.00  0.00    -0.345 N
ATOM     36  H82 UNL     1       3.782  -2.378  20.397  1.00  0.00     0.176 HD
ATOM     37  H81 UNL     1       4.745  -1.065  19.725  1.00  0.00     0.176 HD
ATOM     38  H7  UNL     1       2.970   0.338  20.117  1.00  0.00     0.186 HD
ENDBRANCH  22  34
ENDBRANCH   9  11
ENDBRANCH   7   9
ENDBRANCH   4   5
ENDBRANCH   3   4
TORSDOF 9
ENDMDL