MODEL 2
REMARK VINA RESULT: -6.861532998      0.471      1.251
REMARK  9 active torsions:
REMARK  status: ('A' for Active; 'I' for Inactive)
REMARK    1  A    between atoms: C3_3  and  C4_4
REMARK    2  A    between atoms: C3_3  and  N7_37
REMARK    3  A    between atoms: C4_4  and  N1_5
REMARK    4  A    between atoms: C4_4  and  C5_10
REMARK    5  A    between atoms: C5_10  and  N4_14
REMARK    6  A    between atoms: C7_17  and  C8_18
REMARK       I    between atoms: C8_18  and  N5_20
REMARK    7  A    between atoms: N5_20  and  C9_22
REMARK    8  A    between atoms: C13_26  and  C14_27
REMARK    9  A    between atoms: C14_27  and  N6_28
REMARK       I    between atoms: N7_37  and  C24_39
ROOT
HETATM    1  C1  UNL     1      -5.543   4.451  20.754  1.00  0.00     0.014 C
HETATM    2  C2  UNL     1      -4.358   4.613  20.587  1.00  0.00    -0.089 C
HETATM    3  C3  UNL     1      -2.907   4.803  20.358  1.00  0.00     0.198 C
ENDROOT
BRANCH   3   4
HETATM    4  C4  UNL     1      -2.110   4.070  21.409  1.00  0.00     0.200 C
BRANCH   4   5
HETATM    5  N1  UNL     1      -1.138   5.005  21.920  1.00  0.00    -0.328 N
HETATM    6  N2  UNL     1      -0.411   4.642  22.848  1.00  0.00    -0.349 N
ATOM      7  H22 UNL     1      -0.507   3.702  23.233  1.00  0.00     0.176 HD
ATOM      8  H21 UNL     1       0.276   5.303  23.210  1.00  0.00     0.176 HD
ATOM      9  H1  UNL     1      -1.055   5.942  21.525  1.00  0.00     0.180 HD
ENDBRANCH   4   5
BRANCH   4  10
HETATM   10  C5  UNL     1      -1.421   2.921  20.771  1.00  0.00     0.107 C
HETATM   11  N3  UNL     1      -0.801   3.068  19.640  1.00  0.00    -0.387 N
ATOM     12  H32 UNL     1      -0.802   3.992  19.208  1.00  0.00     0.157 HD
ATOM     13  H31 UNL     1      -0.328   2.278  19.202  1.00  0.00     0.157 HD
BRANCH  10  14
HETATM   14  N4  UNL     1      -1.420   1.638  21.370  1.00  0.00    -0.297 N
HETATM   15  C6  UNL     1      -2.348   0.881  22.143  1.00  0.00     0.241 C
HETATM   16  O1  UNL     1      -3.586   0.761  22.211  1.00  0.00    -0.272 OA
HETATM   17  C7  UNL     1      -1.160   0.290  22.840  1.00  0.00     0.195 C
HETATM   18  C13 UNL     1      -0.509   0.488  21.500  1.00  0.00     0.142 C
BRANCH  17  19
HETATM   19  C8  UNL     1      -0.590   1.105  23.914  1.00  0.00     0.233 C
HETATM   20  O2  UNL     1       0.463   1.730  23.682  1.00  0.00    -0.273 OA
HETATM   21  N5  UNL     1      -1.207   1.181  25.167  1.00  0.00    -0.351 N
ATOM     22  H5  UNL     1      -2.064   0.638  25.273  1.00  0.00     0.163 HD
BRANCH  21  23
HETATM   23  C9  UNL     1      -0.794   1.918  26.315  1.00  0.00     0.029 A
HETATM   24  C10 UNL     1      -1.247   3.390  26.399  1.00  0.00     0.038 C
HETATM   25  C11 UNL     1      -0.762   1.160  27.626  1.00  0.00     0.033 A
HETATM   26  C12 UNL     1       0.495   1.559  26.965  1.00  0.00     0.033 A
ENDBRANCH  21  23
ENDBRANCH  17  19
BRANCH  18  27
HETATM   27  C14 UNL     1      -0.898  -0.540  20.467  1.00  0.00     0.264 C
BRANCH  27  28
HETATM   28  N6  UNL     1       0.207  -1.209  19.863  1.00  0.00    -0.065 N
HETATM   29  C15 UNL     1       1.308  -0.261  19.812  1.00  0.00     0.237 C
HETATM   30  C16 UNL     1       2.610  -0.831  20.260  1.00  0.00     0.028 C
HETATM   31  C17 UNL     1       3.252  -1.741  19.230  1.00  0.00     0.006 C
HETATM   32  C18 UNL     1       2.187  -2.717  18.787  1.00  0.00    -0.011 C
HETATM   33  C19 UNL     1       1.513  -3.297  19.989  1.00  0.00     0.032 C
HETATM   34  C21 UNL     1       1.209  -2.105  17.846  1.00  0.00     0.032 C
HETATM   35  C20 UNL     1       0.532  -2.379  20.636  1.00  0.00     0.238 C
HETATM   36  C22 UNL     1      -0.084  -1.664  18.509  1.00  0.00     0.238 C
ENDBRANCH  27  28
ENDBRANCH  18  27
ENDBRANCH  10  14
ENDBRANCH   4  10
ENDBRANCH   3   4
BRANCH   3  37
HETATM   37  N7  UNL     1      -2.618   6.189  20.280  1.00  0.00    -0.323 N
HETATM   38  C23 UNL     1      -3.484   7.150  20.906  1.00  0.00     0.155 C
HETATM   39  C24 UNL     1      -1.476   6.642  19.585  1.00  0.00     0.331 C
HETATM   40  N8  UNL     1      -1.151   8.016  19.483  1.00  0.00    -0.040 NA
HETATM   41  O3  UNL     1      -0.688   5.815  19.018  1.00  0.00    -0.251 OA
ENDBRANCH   3  37
TORSDOF 9
ENDMDL