MODEL 2
REMARK VINA RESULT: -6.471532905      3.752      8.729
REMARK  11 active torsions:
REMARK  status: ('A' for Active; 'I' for Inactive)
REMARK    1  A    between atoms: C2_2  and  N1_3
REMARK    2  A    between atoms: N2_6  and  C5_7
REMARK    3  A    between atoms: C5_7  and  C6_8
REMARK    4  A    between atoms: N5_17  and  C13_18
REMARK    5  A    between atoms: N5_17  and  C15_20
REMARK    6  A    between atoms: C15_20  and  C16_21
REMARK    7  A    between atoms: C16_21  and  O1_22
REMARK    8  A    between atoms: C16_21  and  C17_24
REMARK    9  A    between atoms: C17_24  and  N6_25
REMARK   10  A    between atoms: N6_25  and  C18_27
REMARK   11  A    between atoms: C18_27  and  N7_29
ROOT
HETATM    1  C6  UNL     1      -2.627   4.231  27.325  1.00  0.00     0.042 C
HETATM    2  C7  UNL     1      -1.653   4.271  26.132  1.00  0.00     0.071 C
HETATM    3  C8  UNL     1      -1.045   2.950  25.851  1.00  0.00     0.269 A
HETATM    4  C9  UNL     1      -0.439   2.416  27.119  1.00  0.00     0.297 C
HETATM    5  N3  UNL     1      -1.356   2.435  28.228  1.00  0.00    -0.070 N
HETATM    6  C10 UNL     1      -0.605   2.057  29.419  1.00  0.00     0.272 C
HETATM    7  C11 UNL     1      -2.450   1.520  28.097  1.00  0.00     0.272 C
HETATM    8  C12 UNL     1      -1.855   3.795  28.497  1.00  0.00     0.243 C
HETATM    9  N4  UNL     1      -1.554   2.169  24.832  1.00  0.00     0.000 NA
HETATM   10  N5  UNL     1      -0.311   2.782  24.664  1.00  0.00     0.042 N
ENDROOT
BRANCH  10  11
HETATM   11  C13 UNL     1       0.793   1.836  24.660  1.00  0.00     0.259 C
HETATM   12  C14 UNL     1       0.526   0.698  23.713  1.00  0.00     0.036 C
ENDBRANCH  10  11
BRANCH  10  13
HETATM   13  C15 UNL     1      -0.197   3.950  23.816  1.00  0.00     0.296 C
BRANCH  13  14
HETATM   14  C16 UNL     1      -0.865   3.783  22.493  1.00  0.00     0.164 C
BRANCH  14  15
HETATM   15  O1  UNL     1       0.045   3.969  21.446  1.00  0.00    -0.392 OA
ATOM     16  H1  UNL     1      -0.033   4.842  21.079  1.00  0.00     0.210 HD
ENDBRANCH  14  15
BRANCH  14  17
HETATM   17  C17 UNL     1      -1.951   4.825  22.356  1.00  0.00     0.155 C
BRANCH  17  18
HETATM   18  N6  UNL     1      -1.699   5.752  21.293  1.00  0.00    -0.365 N
ATOM     19  H6  UNL     1      -0.734   6.007  21.081  1.00  0.00     0.162 HD
BRANCH  18  20
HETATM   20  C18 UNL     1      -2.746   6.328  20.522  1.00  0.00     0.169 C
HETATM   21  S1  UNL     1      -4.148   5.513  20.406  1.00  0.00    -0.041 SA
BRANCH  20  22
HETATM   22  N7  UNL     1      -2.606   7.567  19.865  1.00  0.00    -0.367 N
HETATM   23  C19 UNL     1      -3.635   8.578  19.939  1.00  0.00     0.151 C
HETATM   24  C20 UNL     1      -1.414   7.838  19.101  1.00  0.00     0.151 C
ENDBRANCH  20  22
ENDBRANCH  18  20
ENDBRANCH  17  18
ENDBRANCH  14  17
ENDBRANCH  13  14
ENDBRANCH  10  13
BRANCH   1  25
HETATM   25  C5  UNL     1      -3.310   5.527  27.354  1.00  0.00     0.244 C
BRANCH  25  26
HETATM   26  N2  UNL     1      -4.524   5.687  28.042  1.00  0.00    -0.062 N
HETATM   27  C4  UNL     1      -5.339   6.518  27.121  1.00  0.00     0.265 C
HETATM   28  C3  UNL     1      -6.808   6.416  27.476  1.00  0.00     0.265 C
HETATM   29  N1  UNL     1      -6.820   6.255  28.939  1.00  0.00    -0.063 N
HETATM   30  C22 UNL     1      -6.441   4.891  29.195  1.00  0.00     0.265 C
HETATM   31  C24 UNL     1      -5.801   7.192  29.416  1.00  0.00     0.265 C
HETATM   32  C21 UNL     1      -5.318   4.504  28.220  1.00  0.00     0.265 C
HETATM   33  C23 UNL     1      -4.447   6.485  29.257  1.00  0.00     0.265 C
BRANCH  29  34
HETATM   34  C2  UNL     1      -8.085   6.633  29.465  1.00  0.00     0.233 C
HETATM   35  C1  UNL     1      -8.248   8.097  29.732  1.00  0.00     0.035 C
ENDBRANCH  29  34
ENDBRANCH  25  26
ENDBRANCH   1  25
TORSDOF 11
ENDMDL