MODEL 4
REMARK VINA RESULT: -8.322855372      3.175      6.551
REMARK  9 active torsions:
REMARK  status: ('A' for Active; 'I' for Inactive)
REMARK    1  A    between atoms: C7_8  and  C8_9
REMARK    2  A    between atoms: C9_10  and  C10_11
REMARK    3  A    between atoms: N3_16  and  C13_17
REMARK    4  A    between atoms: C13_17  and  C14_18
REMARK    5  A    between atoms: C14_18  and  C15_19
REMARK    6  A    between atoms: C15_19  and  C16_20
REMARK    7  A    between atoms: C18_24  and  C19_25
REMARK    8  A    between atoms: C19_25  and  C20_26
REMARK    9  A    between atoms: C25_38  and  C26_39
ROOT
HETATM    1  C16 UNL     1      -1.615   0.198  21.259  1.00  0.00     0.023 A
HETATM    2  N4  UNL     1      -2.581   0.419  22.155  1.00  0.00    -0.368 N
ATOM      3  H4  UNL     1      -3.172  -0.306  22.561  1.00  0.00     0.165 HD
HETATM    4  C17 UNL     1      -2.669   1.724  22.449  1.00  0.00     0.096 A
HETATM    5  C18 UNL     1      -1.699   2.372  21.691  1.00  0.00    -0.025 A
HETATM    6  C25 UNL     1      -1.045   1.407  20.950  1.00  0.00     0.032 A
ENDROOT
BRANCH   1   7
HETATM    7  C15 UNL     1      -1.220  -1.114  20.711  1.00  0.00     0.059 C
BRANCH   7   8
HETATM    8  C14 UNL     1      -0.069  -1.742  21.428  1.00  0.00     0.026 C
BRANCH   8   9
HETATM    9  C13 UNL     1      -0.116  -1.512  22.906  1.00  0.00     0.131 C
BRANCH   9  10
HETATM   10  N3  UNL     1       1.199  -1.527  23.456  1.00  0.00    -0.335 N
HETATM   11  C10 UNL     1       1.647  -0.633  24.346  1.00  0.00     0.105 A
HETATM   12  C11 UNL     1       2.961  -0.968  24.615  1.00  0.00     0.128 A
HETATM   13  N2  UNL     1       3.241  -2.050  23.873  1.00  0.00    -0.359 N
HETATM   14  C12 UNL     1       2.181  -2.425  23.146  1.00  0.00     0.183 A
ATOM     15  H2  UNL     1       4.144  -2.525  23.864  1.00  0.00     0.166 HD
BRANCH  11  16
HETATM   16  C9  UNL     1       0.887   0.453  24.899  1.00  0.00    -0.042 C
HETATM   17  C8  UNL     1       0.252   1.365  25.390  1.00  0.00    -0.059 C
BRANCH  17  18
HETATM   18  C7  UNL     1      -0.488   2.434  25.996  1.00  0.00     0.026 A
HETATM   19  C2  UNL     1      -0.592   2.553  27.376  1.00  0.00    -0.028 A
HETATM   20  C1  UNL     1       0.121   1.510  28.170  1.00  0.00     0.051 C
HETATM   21  C3  UNL     1      -1.309   3.578  27.953  1.00  0.00     0.098 A
HETATM   22  N1  UNL     1      -1.939   4.502  27.206  1.00  0.00    -0.370 N
HETATM   23  C4  UNL     1      -2.702   5.590  27.844  1.00  0.00     0.154 C
HETATM   24  C5  UNL     1      -1.852   4.406  25.875  1.00  0.00     0.091 A
HETATM   25  C6  UNL     1      -1.142   3.394  25.251  1.00  0.00     0.038 A
ENDBRANCH  17  18
ENDBRANCH  11  16
ENDBRANCH   9  10
ENDBRANCH   8   9
ENDBRANCH   7   8
ENDBRANCH   1   7
BRANCH   6  26
HETATM   26  C26 UNL     1       0.028   1.629  19.995  1.00  0.00     0.272 C
HETATM   27  O4  UNL     1      -0.101   2.206  18.898  1.00  0.00    -0.301 OA
ENDBRANCH   6  26
BRANCH   5  28
HETATM   28  C19 UNL     1      -1.456   3.819  21.715  1.00  0.00     0.074 C
BRANCH  28  29
HETATM   29  C20 UNL     1      -2.248   4.520  20.668  1.00  0.00     0.160 C
HETATM   30  N5  UNL     1      -1.327   5.129  19.721  1.00  0.00    -0.341 N
HETATM   31  C21 UNL     1      -1.276   6.503  19.368  1.00  0.00     0.310 C
ATOM     32  H5  UNL     1      -0.655   4.510  19.268  1.00  0.00     0.163 HD
HETATM   33  O1  UNL     1      -0.139   6.864  18.936  1.00  0.00    -0.262 OA
HETATM   34  C22 UNL     1      -2.285   7.554  19.416  1.00  0.00     0.309 C
HETATM   35  O2  UNL     1      -1.903   8.702  19.005  1.00  0.00    -0.262 OA
HETATM   36  N6  UNL     1      -3.628   7.450  19.863  1.00  0.00    -0.346 N
HETATM   37  C23 UNL     1      -4.149   6.448  20.770  1.00  0.00     0.203 C
ATOM     38  H6  UNL     1      -4.287   8.145  19.512  1.00  0.00     0.163 HD
HETATM   39  C24 UNL     1      -3.093   5.590  21.324  1.00  0.00     0.167 C
HETATM   40  O3  UNL     1      -2.860   5.773  22.506  1.00  0.00    -0.294 OA
ENDBRANCH  28  29
ENDBRANCH   5  28
TORSDOF 9
ENDMDL