MODEL 5
REMARK VINA RESULT: -7.079619758      1.690      2.612
REMARK  8 active torsions:
REMARK  status: ('A' for Active; 'I' for Inactive)
REMARK    1  A    between atoms: C5_5  and  C6_6
REMARK    2  A    between atoms: C6_6  and  C7_7
REMARK    3  A    between atoms: C9_12  and  C10_13
REMARK    4  A    between atoms: C11_14  and  C12_15
REMARK    5  A    between atoms: C12_15  and  N2_16
REMARK    6  A    between atoms: N3_19  and  C15_20
REMARK    7  A    between atoms: C15_20  and  C16_21
REMARK    8  A    between atoms: C25_34  and  O4_35
ROOT
HETATM    1  C1  UNL     1      -1.334   6.248  28.935  1.00  0.00     0.102 C
HETATM    2  C2  UNL     1      -1.812   5.701  27.949  1.00  0.00    -0.154 C
HETATM    3  C3  UNL     1      -2.363   5.056  26.793  1.00  0.00    -0.025 C
HETATM    4  C4  UNL     1      -3.711   5.440  26.309  1.00  0.00     0.057 C
HETATM    5  C5  UNL     1      -1.642   4.135  26.191  1.00  0.00    -0.010 C
ENDROOT
BRANCH   5   6
HETATM    6  C6  UNL     1      -2.127   3.405  24.977  1.00  0.00     0.056 C
BRANCH   6   7
HETATM    7  C7  UNL     1      -1.325   3.866  23.750  1.00  0.00     0.118 C
HETATM    8  N1  UNL     1      -0.163   3.068  23.562  1.00  0.00    -0.353 N
HETATM    9  C8  UNL     1      -0.047   1.795  22.971  1.00  0.00     0.226 C
ATOM     10  H1  UNL     1       0.707   3.474  23.904  1.00  0.00     0.163 HD
HETATM   11  O1  UNL     1       0.784   0.994  23.484  1.00  0.00    -0.273 OA
HETATM   12  C9  UNL     1      -0.762   1.245  21.820  1.00  0.00     0.115 C
HETATM   13  C20 UNL     1      -1.871   2.132  21.302  1.00  0.00     0.126 C
HETATM   14  C21 UNL     1      -3.115   2.039  22.109  1.00  0.00     0.228 C
HETATM   15  C25 UNL     1      -1.486   3.574  21.320  1.00  0.00     0.162 C
HETATM   16  O3  UNL     1      -3.745   0.964  22.285  1.00  0.00    -0.273 OA
HETATM   17  N5  UNL     1      -3.442   3.337  22.624  1.00  0.00    -0.342 N
HETATM   18  C22 UNL     1      -4.757   3.736  23.080  1.00  0.00     0.153 C
HETATM   19  C23 UNL     1      -2.196   4.070  22.562  1.00  0.00     0.078 C
HETATM   20  C24 UNL     1      -2.553   5.525  22.337  1.00  0.00     0.043 C
BRANCH  12  21
HETATM   21  C10 UNL     1       0.234   1.155  20.706  1.00  0.00    -0.014 C
HETATM   22  C11 UNL     1       0.276   0.263  19.769  1.00  0.00    -0.002 C
BRANCH  22  23
HETATM   23  C12 UNL     1      -0.627  -0.863  19.570  1.00  0.00     0.266 C
BRANCH  23  24
HETATM   24  N2  UNL     1       0.084  -1.919  18.924  1.00  0.00    -0.036 N
HETATM   25  C13 UNL     1      -0.314  -3.248  19.255  1.00  0.00     0.268 C
HETATM   26  C14 UNL     1       0.958  -4.102  19.105  1.00  0.00     0.273 C
HETATM   27  N3  UNL     1       1.869  -3.144  18.566  1.00  0.00    -0.015 N
HETATM   28  C17 UNL     1       1.371  -2.743  17.228  1.00  0.00     0.273 C
HETATM   29  C19 UNL     1       1.516  -1.950  19.298  1.00  0.00     0.479 C
HETATM   30  C18 UNL     1       0.214  -1.812  17.506  1.00  0.00     0.268 C
BRANCH  27  31
HETATM   31  C15 UNL     1       3.234  -3.484  18.514  1.00  0.00     0.275 C
BRANCH  31  32
HETATM   32  C16 UNL     1       4.031  -3.050  19.638  1.00  0.00     0.278 C
HETATM   33  N4  UNL     1       3.967  -3.828  20.850  1.00  0.00    -0.057 NA
HETATM   34  O2  UNL     1       4.767  -2.061  19.646  1.00  0.00    -0.270 OA
ENDBRANCH  31  32
ENDBRANCH  27  31
ENDBRANCH  23  24
ENDBRANCH  22  23
ENDBRANCH  12  21
BRANCH  15  35
HETATM   35  O4  UNL     1      -2.070   4.213  20.219  1.00  0.00    -0.392 OA
ATOM     36  H4  UNL     1      -2.797   4.744  20.522  1.00  0.00     0.210 HD
ENDBRANCH  15  35
ENDBRANCH   6   7
ENDBRANCH   5   6
TORSDOF 8
ENDMDL