MODEL 1
REMARK VINA RESULT: -6.965538402      0.000      0.000
REMARK  7 active torsions:
REMARK  status: ('A' for Active; 'I' for Inactive)
REMARK    1  A    between atoms: C2_2  and  N1_3
REMARK       I    between atoms: N3_14  and  C10_15
REMARK    2  A    between atoms: C10_15  and  C11_17
REMARK    3  A    between atoms: C11_17  and  N4_18
REMARK       I    between atoms: N4_18  and  C12_20
REMARK    4  A    between atoms: C12_20  and  C13_22
REMARK    5  A    between atoms: C13_22  and  N5_23
REMARK    6  A    between atoms: N6_26  and  C16_27
REMARK    7  A    between atoms: C16_27  and  C17_28
ROOT
HETATM    1  N1  UNL     1      -1.969   5.154  20.813  1.00  0.00    -0.062 N
HETATM    2  C3  UNL     1      -2.992   6.049  21.213  1.00  0.00     0.265 C
HETATM    3  C4  UNL     1      -4.365   5.756  20.677  1.00  0.00     0.260 C
HETATM    4  N2  UNL     1      -5.350   5.494  21.712  1.00  0.00    -0.074 N
ATOM      5  H21 UNL     1      -6.030   6.253  21.755  1.00  0.00     0.277 HD
ATOM      6  H22 UNL     1      -4.927   5.585  22.636  1.00  0.00     0.277 HD
HETATM    7  C5  UNL     1      -6.015   4.239  21.593  1.00  0.00     0.232 C
HETATM    8  C6  UNL     1      -5.859   3.327  22.789  1.00  0.00     0.027 C
HETATM    9  C7  UNL     1      -5.159   2.032  22.465  1.00  0.00     0.003 C
HETATM   10  C8  UNL     1      -3.969   1.742  23.316  1.00  0.00     0.020 C
HETATM   11  C9  UNL     1      -2.700   1.446  22.532  1.00  0.00     0.126 C
HETATM   12  N3  UNL     1      -1.711   2.515  22.743  1.00  0.00    -0.343 N
HETATM   13  C10 UNL     1      -0.467   2.219  23.351  1.00  0.00     0.237 C
HETATM   14  O1  UNL     1       0.360   3.144  23.524  1.00  0.00    -0.272 OA
HETATM   15  C22 UNL     1      -2.100   3.798  22.310  1.00  0.00     0.139 C
HETATM   16  C23 UNL     1      -2.311   3.761  20.822  1.00  0.00     0.264 C
HETATM   17  C24 UNL     1      -1.063   4.786  21.927  1.00  0.00     0.264 C
ENDROOT
BRANCH  13  18
HETATM   18  C11 UNL     1      -0.088   0.861  23.794  1.00  0.00     0.225 C
BRANCH  18  19
HETATM   19  N4  UNL     1       0.801   0.218  22.855  1.00  0.00    -0.351 N
HETATM   20  C12 UNL     1       0.475  -1.034  22.236  1.00  0.00     0.244 C
HETATM   21  O2  UNL     1      -0.618  -1.540  22.551  1.00  0.00    -0.272 OA
ATOM     22  H4  UNL     1       1.686   0.667  22.625  1.00  0.00     0.163 HD
BRANCH  20  23
HETATM   23  C13 UNL     1       1.391  -1.671  21.285  1.00  0.00     0.339 C
BRANCH  23  24
HETATM   24  N5  UNL     1       0.973  -1.714  19.931  1.00  0.00    -0.054 N
HETATM   25  C14 UNL     1       0.512  -0.451  19.385  1.00  0.00     0.266 C
HETATM   26  C15 UNL     1       0.723  -0.498  17.880  1.00  0.00     0.266 C
HETATM   27  N6  UNL     1       0.556  -1.908  17.419  1.00  0.00    -0.054 N
HETATM   28  C18 UNL     1       1.790  -2.575  17.767  1.00  0.00     0.266 C
HETATM   29  C20 UNL     1      -0.535  -2.426  18.233  1.00  0.00     0.266 C
HETATM   30  C19 UNL     1       2.184  -2.042  19.140  1.00  0.00     0.266 C
HETATM   31  C21 UNL     1       0.010  -2.756  19.625  1.00  0.00     0.266 C
BRANCH  27  32
HETATM   32  C16 UNL     1       0.250  -1.888  16.034  1.00  0.00     0.336 C
BRANCH  32  33
HETATM   33  C17 UNL     1      -1.138  -1.756  15.635  1.00  0.00     0.257 C
HETATM   34  N7  UNL     1      -2.030  -2.790  15.279  1.00  0.00    -0.061 NA
HETATM   35  O3  UNL     1      -1.636  -0.560  15.594  1.00  0.00    -0.275 OA
ENDBRANCH  32  33
ENDBRANCH  27  32
ENDBRANCH  23  24
ENDBRANCH  20  23
ENDBRANCH  18  19
ENDBRANCH  13  18
BRANCH   1  36
HETATM   36  C2  UNL     1      -1.235   5.488  19.620  1.00  0.00     0.233 C
HETATM   37  C1  UNL     1      -0.937   6.943  19.468  1.00  0.00     0.035 C
ENDBRANCH   1  36
TORSDOF 7
ENDMDL