MODEL 4
REMARK VINA RESULT: -7.481218805      2.631      4.209
REMARK  12 active torsions:
REMARK  status: ('A' for Active; 'I' for Inactive)
REMARK    1  A    between atoms: C3_3  and  C4_4
REMARK    2  A    between atoms: C4_4  and  N1_5
REMARK    3  A    between atoms: N1_5  and  C5_6
REMARK    4  A    between atoms: C6_7  and  O1_8
REMARK    5  A    between atoms: C6_7  and  N2_10
REMARK    6  A    between atoms: N3_15  and  N4_17
REMARK    7  A    between atoms: N4_17  and  N5_19
REMARK    8  A    between atoms: C16_28  and  C17_29
REMARK    9  A    between atoms: C19_31  and  C20_32
REMARK   10  A    between atoms: C20_32  and  C21_33
REMARK       I    between atoms: C21_33  and  N6_35
REMARK   11  A    between atoms: N6_35  and  C22_37
REMARK   12  A    between atoms: N7_39  and  O3_40
ROOT
HETATM    1  C1  UNL     1      -0.896   7.786  30.535  1.00  0.00     0.112 C
HETATM    2  C2  UNL     1      -1.172   6.858  29.431  1.00  0.00    -0.109 C
HETATM    3  C3  UNL     1      -1.416   6.106  28.512  1.00  0.00    -0.078 C
ENDROOT
BRANCH   3   4
HETATM    4  C4  UNL     1      -1.713   5.218  27.388  1.00  0.00     0.348 C
BRANCH   4   5
HETATM    5  N1  UNL     1      -2.110   3.869  27.835  1.00  0.00     0.017 N
HETATM    6  C8  UNL     1      -3.272   4.021  28.610  1.00  0.00     0.242 C
HETATM    7  C9  UNL     1      -4.533   3.355  28.185  1.00  0.00     0.057 C
HETATM    8  N3  UNL     1      -5.605   3.830  28.630  1.00  0.00    -0.289 N
HETATM    9  C10 UNL     1      -4.405   2.217  27.316  1.00  0.00     0.053 C
ATOM     10  H3  UNL     1      -5.486   4.636  29.244  1.00  0.00     0.188 HD
HETATM   11  C11 UNL     1      -5.609   1.614  26.708  1.00  0.00     0.012 C
HETATM   12  C15 UNL     1      -3.562   2.743  26.143  1.00  0.00     0.025 A
HETATM   13  C12 UNL     1      -4.921   0.788  25.595  1.00  0.00     0.006 C
HETATM   14  C13 UNL     1      -3.826   1.693  25.147  1.00  0.00     0.002 A
HETATM   15  C14 UNL     1      -4.216   3.167  24.978  1.00  0.00     0.023 A
HETATM   16  C16 UNL     1      -2.204   2.959  26.715  1.00  0.00     0.141 C
BRANCH   5  17
HETATM   17  C5  UNL     1      -1.067   3.347  28.685  1.00  0.00     0.270 C
HETATM   18  C6  UNL     1      -1.077   2.070  29.299  1.00  0.00     0.160 C
BRANCH  18  19
HETATM   19  O1  UNL     1      -0.009   1.784  30.039  1.00  0.00    -0.345 OA
ATOM     20  H1  UNL     1       0.464   0.999  29.786  1.00  0.00     0.219 HD
ENDBRANCH  18  19
BRANCH  18  21
HETATM   21  N2  UNL     1      -2.013   1.050  29.272  1.00  0.00    -0.374 N
HETATM   22  C7  UNL     1      -1.788  -0.207  28.524  1.00  0.00     0.148 C
ATOM     23  H2  UNL     1      -2.886   1.169  29.784  1.00  0.00     0.161 HD
ENDBRANCH  18  21
ENDBRANCH   5  17
BRANCH   8  24
HETATM   24  N4  UNL     1      -6.905   3.456  28.435  1.00  0.00    -0.249 N
ATOM     25  H4  UNL     1      -7.306   3.506  27.499  1.00  0.00     0.207 HD
BRANCH  24  26
HETATM   26  N5  UNL     1      -7.632   3.041  29.414  1.00  0.00    -0.331 N
ATOM     27  H52 UNL     1      -7.818   2.041  29.490  1.00  0.00     0.178 HD
ATOM     28  H51 UNL     1      -8.014   3.692  30.100  1.00  0.00     0.178 HD
ENDBRANCH  24  26
ENDBRANCH   8  24
BRANCH  16  29
HETATM   29  C17 UNL     1      -1.112   2.952  25.741  1.00  0.00    -0.033 C
HETATM   30  C18 UNL     1       0.113   2.103  25.767  1.00  0.00     0.050 C
HETATM   31  C19 UNL     1      -1.092   3.773  24.680  1.00  0.00    -0.009 C
BRANCH  31  32
HETATM   32  C20 UNL     1      -0.074   3.866  23.647  1.00  0.00     0.131 C
BRANCH  32  33
HETATM   33  C21 UNL     1      -0.628   3.889  22.267  1.00  0.00     0.226 C
HETATM   34  O2  UNL     1      -0.077   3.303  21.298  1.00  0.00    -0.273 OA
HETATM   35  N6  UNL     1      -1.831   4.594  21.992  1.00  0.00    -0.312 N
ATOM     36  H6  UNL     1      -2.680   4.287  22.467  1.00  0.00     0.170 HD
BRANCH  35  37
HETATM   37  C22 UNL     1      -1.923   5.585  21.191  1.00  0.00     0.125 A
HETATM   38  C23 UNL     1      -3.081   6.329  21.048  1.00  0.00     0.170 A
HETATM   39  N7  UNL     1      -3.135   7.368  20.193  1.00  0.00    -0.242 N
HETATM   40  C24 UNL     1      -2.031   7.661  19.482  1.00  0.00     0.139 A
HETATM   41  C25 UNL     1      -0.878   6.918  19.628  1.00  0.00     0.109 A
HETATM   42  N8  UNL     1      -0.802   5.878  20.474  1.00  0.00    -0.350 N
ATOM     43  H8  UNL     1       0.055   5.334  20.575  1.00  0.00     0.166 HD
BRANCH  39  44
HETATM   44  O3  UNL     1      -4.303   8.090  20.071  1.00  0.00    -0.284 OA
ATOM     45  H3  UNL     1      -4.481   8.801  20.675  1.00  0.00     0.245 HD
ENDBRANCH  39  44
ENDBRANCH  35  37
ENDBRANCH  32  33
ENDBRANCH  31  32
ENDBRANCH  16  29
ENDBRANCH   4   5
ENDBRANCH   3   4
TORSDOF 12
ENDMDL