MODEL 5
REMARK VINA RESULT: -6.801406852      0.632      1.380
REMARK  8 active torsions:
REMARK  status: ('A' for Active; 'I' for Inactive)
REMARK    1  A    between atoms: C2_2  and  N1_3
REMARK    2  A    between atoms: N1_3  and  N2_4
REMARK       I    between atoms: N2_4  and  C3_6
REMARK       I    between atoms: C3_6  and  N3_8
REMARK    3  A    between atoms: N3_8  and  C4_10
REMARK    4  A    between atoms: C4_10  and  C5_11
REMARK    5  A    between atoms: C5_11  and  C7_13
REMARK       I    between atoms: C7_13  and  N4_15
REMARK    6  A    between atoms: C8_16  and  C9_17
REMARK    7  A    between atoms: C9_17  and  C10_18
REMARK    8  A    between atoms: C21_30  and  O4_31
ROOT
HETATM    1  C7  UNL     1       0.237   1.784  26.189  1.00  0.00     0.226 C
HETATM    2  O2  UNL     1       0.270   1.676  27.469  1.00  0.00    -0.273 OA
HETATM    3  N4  UNL     1      -0.885   2.445  25.555  1.00  0.00    -0.332 N
HETATM    4  C8  UNL     1      -1.965   3.034  26.395  1.00  0.00     0.158 C
HETATM    5  C13 UNL     1      -3.003   3.436  25.396  1.00  0.00     0.156 C
HETATM    6  O3  UNL     1      -4.198   3.418  25.400  1.00  0.00    -0.295 OA
HETATM    7  C14 UNL     1      -2.124   3.903  24.302  1.00  0.00     0.087 C
HETATM    8  C15 UNL     1      -2.643   3.918  22.925  1.00  0.00     0.006 C
HETATM    9  C16 UNL     1      -2.820   5.344  22.470  1.00  0.00     0.011 C
HETATM   10  C17 UNL     1      -1.958   5.569  21.270  1.00  0.00    -0.009 A
HETATM   11  C18 UNL     1      -2.061   4.730  20.059  1.00  0.00     0.010 A
HETATM   12  C19 UNL     1      -1.053   4.405  21.137  1.00  0.00    -0.003 A
HETATM   13  C20 UNL     1      -1.474   3.366  22.108  1.00  0.00     0.026 C
HETATM   14  C21 UNL     1      -0.360   3.114  23.169  1.00  0.00     0.146 C
HETATM   15  C22 UNL     1      -1.265   2.636  24.243  1.00  0.00     0.129 C
ENDROOT
BRANCH   1  16
HETATM   16  C5  UNL     1       1.384   1.206  25.467  1.00  0.00     0.092 C
HETATM   17  C6  UNL     1       2.372   0.641  26.477  1.00  0.00     0.021 C
BRANCH  16  18
HETATM   18  C4  UNL     1       0.849  -0.041  24.742  1.00  0.00     0.138 C
BRANCH  18  19
HETATM   19  N3  UNL     1       1.560  -0.201  23.494  1.00  0.00    -0.341 N
HETATM   20  C3  UNL     1       0.879  -0.447  22.269  1.00  0.00     0.340 C
HETATM   21  N2  UNL     1       1.578  -0.596  21.058  1.00  0.00    -0.164 N
HETATM   22  O1  UNL     1      -0.362  -0.523  22.321  1.00  0.00    -0.246 OA
ATOM     23  H2  UNL     1       2.595  -0.519  21.090  1.00  0.00     0.199 HD
ATOM     24  H3  UNL     1       2.578  -0.137  23.492  1.00  0.00     0.164 HD
BRANCH  21  25
HETATM   25  N1  UNL     1       0.998  -0.841  19.825  1.00  0.00     0.046 N
HETATM   26  C23 UNL     1       0.776  -2.283  19.649  1.00  0.00     0.259 C
HETATM   27  C24 UNL     1       0.190  -2.306  18.291  1.00  0.00     0.093 C
HETATM   28  C26 UNL     1       2.266  -2.332  19.294  1.00  0.00     0.098 C
HETATM   29  N5  UNL     1       0.912  -1.441  17.666  1.00  0.00    -0.371 N
HETATM   30  C25 UNL     1       1.839  -0.992  18.674  1.00  0.00     0.317 C
ATOM     31  H5  UNL     1       0.844  -1.146  16.692  1.00  0.00     0.160 HD
BRANCH  25  32
HETATM   32  C2  UNL     1      -0.221  -0.071  19.582  1.00  0.00     0.264 C
HETATM   33  C1  UNL     1       0.084   1.366  19.252  1.00  0.00     0.037 C
ENDBRANCH  25  32
ENDBRANCH  21  25
ENDBRANCH  18  19
ENDBRANCH  16  18
ENDBRANCH   1  16
BRANCH   4  34
HETATM   34  C9  UNL     1      -1.439   4.160  27.212  1.00  0.00     0.037 C
BRANCH  34  35
HETATM   35  C10 UNL     1      -2.434   4.908  28.031  1.00  0.00    -0.020 C
HETATM   36  C11 UNL     1      -1.823   6.123  28.701  1.00  0.00     0.009 C
HETATM   37  C12 UNL     1      -3.230   4.121  29.003  1.00  0.00     0.009 C
ENDBRANCH  34  35
ENDBRANCH   4  34
BRANCH  14  38
HETATM   38  O4  UNL     1       0.105   4.411  23.437  1.00  0.00    -0.393 OA
ATOM     39  H4  UNL     1       0.141   4.425  24.386  1.00  0.00     0.210 HD
ENDBRANCH  14  38
TORSDOF 8
ENDMDL