MODEL 5
REMARK VINA RESULT: -7.938948227      6.965     11.039
REMARK  9 active torsions:
REMARK  status: ('A' for Active; 'I' for Inactive)
REMARK    1  A    between atoms: C2_2  and  C3_3
REMARK    2  A    between atoms: C3_3  and  C4_4
REMARK    3  A    between atoms: C10_13  and  O2_14
REMARK    4  A    between atoms: C11_16  and  O3_17
REMARK    5  A    between atoms: C13_20  and  N3_21
REMARK    6  A    between atoms: N4_24  and  C16_25
REMARK    7  A    between atoms: C16_25  and  C17_26
REMARK    8  A    between atoms: C17_26  and  C18_27
REMARK    9  A    between atoms: C18_27  and  C19_28
ROOT
HETATM    1  C4  UNL     1      -3.113   4.553  28.141  1.00  0.00     0.083 A
HETATM    2  C5  UNL     1      -3.934   5.306  29.148  1.00  0.00     0.256 C
HETATM    3  O1  UNL     1      -4.494   6.360  28.789  1.00  0.00    -0.271 OA
HETATM    4  N1  UNL     1      -4.061   4.821  30.475  1.00  0.00    -0.167 N
HETATM    5  C6  UNL     1      -3.944   3.529  30.994  1.00  0.00     0.178 C
HETATM    6  C7  UNL     1      -3.625   4.246  32.323  1.00  0.00     0.294 C
HETATM    7  N2  UNL     1      -4.351   5.332  31.744  1.00  0.00     0.011 N
HETATM    8  C8  UNL     1      -5.771   5.220  32.100  1.00  0.00     0.302 C
HETATM    9  C9  UNL     1      -3.833   6.654  32.030  1.00  0.00     0.302 C
HETATM   10  C10 UNL     1      -2.867   2.606  30.600  1.00  0.00     0.174 C
HETATM   11  C11 UNL     1      -2.599   2.439  29.107  1.00  0.00     0.156 C
HETATM   12  C12 UNL     1      -3.572   3.124  28.293  1.00  0.00     0.070 A
HETATM   13  C13 UNL     1      -3.753   3.782  27.060  1.00  0.00     0.219 A
ENDROOT
BRANCH  13  14
HETATM   14  N3  UNL     1      -3.216   3.496  25.783  1.00  0.00    -0.034 N
HETATM   15  C14 UNL     1      -1.791   3.300  25.713  1.00  0.00     0.268 C
HETATM   16  C15 UNL     1      -1.287   4.039  24.464  1.00  0.00     0.267 C
HETATM   17  N4  UNL     1      -2.589   4.179  23.789  1.00  0.00    -0.040 N
HETATM   18  C24 UNL     1      -3.221   2.929  23.577  1.00  0.00     0.267 C
HETATM   19  C26 UNL     1      -3.319   4.727  24.922  1.00  0.00     0.473 C
HETATM   20  C25 UNL     1      -3.978   2.663  24.898  1.00  0.00     0.268 C
BRANCH  17  21
HETATM   21  C16 UNL     1      -2.428   5.053  22.693  1.00  0.00     0.240 C
BRANCH  21  22
HETATM   22  C17 UNL     1      -1.681   4.520  21.530  1.00  0.00     0.032 C
BRANCH  22  23
HETATM   23  C18 UNL     1      -2.377   4.940  20.262  1.00  0.00     0.040 C
BRANCH  23  24
HETATM   24  C19 UNL     1      -2.392   6.388  20.026  1.00  0.00    -0.053 A
HETATM   25  C20 UNL     1      -1.178   7.029  19.801  1.00  0.00     0.024 A
HETATM   26  C21 UNL     1      -1.088   8.385  19.557  1.00  0.00     0.090 A
HETATM   27  N5  UNL     1      -2.218   9.125  19.536  1.00  0.00    -0.353 N
HETATM   28  C22 UNL     1      -3.408   8.544  19.748  1.00  0.00     0.098 A
ATOM     29  H5  UNL     1      -2.166  10.128  19.359  1.00  0.00     0.166 HD
HETATM   30  N6  UNL     1      -4.491   9.248  19.729  1.00  0.00    -0.385 N
HETATM   31  C23 UNL     1      -3.504   7.192  19.991  1.00  0.00     0.055 A
ATOM     32  H62 UNL     1      -4.420  10.249  19.549  1.00  0.00     0.157 HD
ATOM     33  H61 UNL     1      -5.396   8.806  19.891  1.00  0.00     0.157 HD
ENDBRANCH  23  24
ENDBRANCH  22  23
ENDBRANCH  21  22
ENDBRANCH  17  21
ENDBRANCH  13  14
BRANCH   1  34
HETATM   34  C3  UNL     1      -1.866   5.199  27.864  1.00  0.00     0.048 C
BRANCH  34  35
HETATM   35  C2  UNL     1      -1.072   5.669  29.033  1.00  0.00    -0.036 C
HETATM   36  C1  UNL     1      -0.753   6.925  29.262  1.00  0.00     0.007 C
ENDBRANCH  34  35
ENDBRANCH   1  34
BRANCH  11  37
HETATM   37  O3  UNL     1      -2.708   1.024  28.883  1.00  0.00    -0.392 OA
ATOM     38  H3  UNL     1      -3.360   0.945  28.197  1.00  0.00     0.210 HD
ENDBRANCH  11  37
BRANCH  10  39
HETATM   39  O2  UNL     1      -1.659   2.790  31.325  1.00  0.00    -0.391 OA
ATOM     40  H2  UNL     1      -0.879   2.769  30.782  1.00  0.00     0.210 HD
ENDBRANCH  10  39
TORSDOF 9
ENDMDL