MODEL 3
REMARK VINA RESULT: -5.725366408      2.016      2.923
REMARK  8 active torsions:
REMARK  status: ('A' for Active; 'I' for Inactive)
REMARK    1  A    between atoms: C2_2  and  N1_3
REMARK    2  A    between atoms: C6_8  and  C7_9
REMARK       I    between atoms: C7_9  and  N3_11
REMARK    3  A    between atoms: N3_11  and  C8_13
REMARK    4  A    between atoms: C17_23  and  C18_24
REMARK    5  A    between atoms: C17_23  and  C20_27
REMARK    6  A    between atoms: C18_24  and  O2_25
REMARK    7  A    between atoms: C20_27  and  N5_28
REMARK    8  A    between atoms: C23_31  and  O3_32
ROOT
HETATM    1  N1  UNL     1      -2.788   3.916  22.347  1.00  0.00    -0.311 N
HETATM    2  N2  UNL     1      -2.572   4.797  23.406  1.00  0.00    -0.136 NA
HETATM    3  C3  UNL     1      -1.707   4.086  24.376  1.00  0.00     0.114 C
HETATM    4  C4  UNL     1      -0.336   4.260  23.745  1.00  0.00     0.027 C
HETATM    5  C5  UNL     1      -0.481   3.463  22.493  1.00  0.00     0.045 C
HETATM    6  C6  UNL     1      -1.896   2.859  22.531  1.00  0.00     0.138 C
HETATM    7  C17 UNL     1      -2.079   2.677  24.071  1.00  0.00     0.060 C
ENDROOT
BRANCH   6   8
HETATM    8  C7  UNL     1      -2.000   1.619  21.827  1.00  0.00     0.248 C
HETATM    9  O1  UNL     1      -3.090   0.959  21.769  1.00  0.00    -0.271 OA
HETATM   10  N3  UNL     1      -0.932   1.021  21.137  1.00  0.00    -0.354 N
ATOM     11  H3  UNL     1      -0.027   1.492  21.139  1.00  0.00     0.162 HD
BRANCH  10  12
HETATM   12  C8  UNL     1      -1.056  -0.245  20.417  1.00  0.00     0.086 C
HETATM   13  C9  UNL     1      -0.641  -0.186  19.009  1.00  0.00     0.027 C
HETATM   14  C10 UNL     1       0.246  -1.372  18.598  1.00  0.00     0.035 C
HETATM   15  C11 UNL     1       1.532  -1.200  19.231  1.00  0.00     0.191 C
HETATM   16  C12 UNL     1       2.774  -1.890  18.773  1.00  0.00     0.061 C
HETATM   17  N4  UNL     1       1.725  -1.907  20.498  1.00  0.00    -0.067 N
HETATM   18  C13 UNL     1       3.125  -1.692  20.251  1.00  0.00     0.239 C
HETATM   19  C14 UNL     1       1.422  -3.283  20.522  1.00  0.00     0.273 C
HETATM   20  C15 UNL     1       1.089  -1.064  21.478  1.00  0.00     0.239 C
HETATM   21  C16 UNL     1      -0.397  -1.283  21.285  1.00  0.00     0.053 C
ENDBRANCH  10  12
ENDBRANCH   6   8
BRANCH   1  22
HETATM   22  C2  UNL     1      -3.005   4.508  21.098  1.00  0.00     0.135 C
HETATM   23  C1  UNL     1      -3.054   6.039  21.172  1.00  0.00     0.028 C
ENDBRANCH   1  22
BRANCH   7  24
HETATM   24  C18 UNL     1      -3.519   2.345  24.393  1.00  0.00     0.183 C
BRANCH  24  25
HETATM   25  O2  UNL     1      -4.017   2.758  25.585  1.00  0.00    -0.395 OA
HETATM   26  C19 UNL     1      -5.275   3.320  25.391  1.00  0.00     0.201 C
ENDBRANCH  24  25
ENDBRANCH   7  24
BRANCH   7  27
HETATM   27  C20 UNL     1      -1.213   1.576  24.484  1.00  0.00     0.254 C
BRANCH  27  28
HETATM   28  N5  UNL     1      -0.678   1.382  25.733  1.00  0.00    -0.063 N
HETATM   29  C21 UNL     1      -1.013   0.012  26.221  1.00  0.00     0.240 C
HETATM   30  C22 UNL     1       0.061  -0.380  27.182  1.00  0.00     0.067 C
HETATM   31  C23 UNL     1       0.928   0.834  27.202  1.00  0.00     0.085 C
HETATM   32  C24 UNL     1       0.139   1.927  27.878  1.00  0.00     0.067 C
HETATM   33  C26 UNL     1       0.771   1.287  25.741  1.00  0.00     0.275 C
HETATM   34  C25 UNL     1      -0.951   2.221  26.833  1.00  0.00     0.240 C
BRANCH  31  35
HETATM   35  O3  UNL     1       2.205   0.683  27.586  1.00  0.00    -0.388 OA
ATOM     36  H3  UNL     1       2.397   0.010  28.229  1.00  0.00     0.210 HD
ENDBRANCH  31  35
ENDBRANCH  27  28
ENDBRANCH   7  27
TORSDOF 8
ENDMDL