MODEL 3
REMARK VINA RESULT: -7.499610784      2.571      8.631
REMARK  7 active torsions:
REMARK  status: ('A' for Active; 'I' for Inactive)
REMARK    1  A    between atoms: O1_2  and  C2_3
REMARK    2  A    between atoms: C14_16  and  C15_17
REMARK       I    between atoms: C15_17  and  N2_19
REMARK    3  A    between atoms: N2_19  and  C16_21
REMARK    4  A    between atoms: C16_21  and  C17_22
REMARK    5  A    between atoms: C17_22  and  N3_23
REMARK    6  A    between atoms: C22_28  and  C23_29
REMARK       I    between atoms: C23_29  and  N4_31
REMARK    7  A    between atoms: N4_31  and  N5_33
ROOT
HETATM    1  C15 UNL     1      -0.901   1.353  19.993  1.00  0.00     0.241 C
HETATM    2  O2  UNL     1      -1.418   0.362  19.392  1.00  0.00    -0.271 OA
HETATM    3  N2  UNL     1       0.430   1.693  19.717  1.00  0.00    -0.358 N
ATOM      4  H2  UNL     1       0.841   2.499  20.187  1.00  0.00     0.162 HD
ENDROOT
BRANCH   3   5
HETATM    5  C16 UNL     1       1.228   0.952  18.803  1.00  0.00     0.152 C
BRANCH   5   6
HETATM    6  C17 UNL     1       2.015  -0.190  19.240  1.00  0.00     0.285 C
BRANCH   6   7
HETATM    7  N3  UNL     1       1.800  -1.519  18.864  1.00  0.00     0.029 N
HETATM    8  C18 UNL     1       3.112  -2.182  18.942  1.00  0.00     0.267 C
HETATM    9  C19 UNL     1       3.142  -3.583  18.466  1.00  0.00     0.044 C
HETATM   10  C20 UNL     1       1.724  -4.000  18.136  1.00  0.00     0.083 C
HETATM   11  C21 UNL     1       0.923  -3.714  19.397  1.00  0.00     0.060 C
HETATM   12  C27 UNL     1       1.247  -3.042  17.110  1.00  0.00     0.246 C
HETATM   13  C22 UNL     1       0.892  -2.252  19.724  1.00  0.00     0.309 C
HETATM   14  O4  UNL     1       0.841  -3.333  15.979  1.00  0.00    -0.271 OA
HETATM   15  N6  UNL     1       1.303  -1.656  17.570  1.00  0.00    -0.184 N
ATOM     16  H6  UNL     1       1.007  -0.865  16.998  1.00  0.00     0.197 HD
BRANCH  13  17
HETATM   17  C23 UNL     1       1.093  -2.054  21.163  1.00  0.00     0.275 C
HETATM   18  O3  UNL     1       0.301  -1.280  21.825  1.00  0.00    -0.269 OA
HETATM   19  N4  UNL     1       2.102  -2.643  21.959  1.00  0.00    -0.184 N
ATOM     20  H4  UNL     1       2.745  -3.266  21.470  1.00  0.00     0.197 HD
BRANCH  19  21
HETATM   21  N5  UNL     1       2.327  -2.486  23.299  1.00  0.00     0.003 N
HETATM   22  C24 UNL     1       3.611  -3.142  23.622  1.00  0.00     0.301 C
HETATM   23  C25 UNL     1       2.348  -1.168  23.825  1.00  0.00     0.301 C
HETATM   24  C26 UNL     1       1.345  -3.257  24.084  1.00  0.00     0.301 C
ENDBRANCH  19  21
ENDBRANCH  13  17
ENDBRANCH   6   7
ENDBRANCH   5   6
ENDBRANCH   3   5
BRANCH   1  25
HETATM   25  C14 UNL     1      -1.782   2.061  20.944  1.00  0.00     0.185 A
HETATM   26  C8  UNL     1      -1.432   1.921  22.368  1.00  0.00     0.067 A
HETATM   27  C7  UNL     1      -2.646   1.850  23.289  1.00  0.00     0.018 C
HETATM   28  C9  UNL     1      -1.024   3.336  22.348  1.00  0.00     0.010 A
HETATM   29  C6  UNL     1      -2.526   2.708  24.502  1.00  0.00    -0.006 C
HETATM   30  C5  UNL     1      -3.531   2.189  25.524  1.00  0.00     0.008 C
HETATM   31  C12 UNL     1      -1.216   2.589  25.213  1.00  0.00     0.027 C
HETATM   32  C4  UNL     1      -2.824   2.171  26.848  1.00  0.00     0.038 C
HETATM   33  C2  UNL     1      -1.621   3.059  26.621  1.00  0.00     0.061 C
HETATM   34  C3  UNL     1      -0.521   2.781  27.611  1.00  0.00     0.046 C
HETATM   35  C11 UNL     1      -0.150   3.510  24.723  1.00  0.00     0.037 C
HETATM   36  C10 UNL     1      -0.486   3.990  23.346  1.00  0.00    -0.001 C
HETATM   37  N1  UNL     1      -1.455   3.460  21.018  1.00  0.00    -0.374 N
HETATM   38  C13 UNL     1      -1.549   4.547  20.068  1.00  0.00     0.150 C
BRANCH  33  39
HETATM   39  O1  UNL     1      -1.940   4.395  26.494  1.00  0.00    -0.385 OA
HETATM   40  C1  UNL     1      -2.334   5.001  27.662  1.00  0.00     0.202 C
ENDBRANCH  33  39
ENDBRANCH   1  25
TORSDOF 7
ENDMDL