MODEL 3
REMARK VINA RESULT: -5.692469380      0.986      1.232
REMARK  8 active torsions:
REMARK  status: ('A' for Active; 'I' for Inactive)
REMARK    1  A    between atoms: C2_2  and  C3_3
REMARK    2  A    between atoms: C5_8  and  C6_9
REMARK    3  A    between atoms: C6_9  and  C7_10
REMARK    4  A    between atoms: C10_15  and  O2_16
REMARK       I    between atoms: N3_20  and  C13_21
REMARK    5  A    between atoms: C15_24  and  C16_25
REMARK    6  A    between atoms: C16_25  and  N4_26
REMARK    7  A    between atoms: N4_26  and  C18_28
REMARK    8  A    between atoms: N4_26  and  C20_30
ROOT
HETATM    1  C3  UNL     1      -0.722   0.497  28.274  1.00  0.00     0.176 C
HETATM    2  N1  UNL     1      -0.301   1.526  29.193  1.00  0.00    -0.346 N
ATOM      3  H1  UNL     1       0.710   1.631  29.277  1.00  0.00     0.163 HD
HETATM    4  C4  UNL     1      -1.053   2.409  29.991  1.00  0.00     0.241 C
HETATM    5  O1  UNL     1      -1.072   2.277  31.238  1.00  0.00    -0.271 OA
HETATM    6  C5  UNL     1      -1.892   3.571  29.488  1.00  0.00     0.175 C
HETATM    7  N2  UNL     1      -2.130   3.301  28.089  1.00  0.00    -0.359 N
ATOM      8  H2  UNL     1      -1.228   3.091  27.662  1.00  0.00     0.162 HD
HETATM    9  C10 UNL     1      -3.057   3.215  27.128  1.00  0.00     0.135 C
HETATM   10  C11 UNL     1      -3.590   4.102  26.017  1.00  0.00     0.163 C
HETATM   11  C12 UNL     1      -3.022   5.452  25.933  1.00  0.00     0.041 C
HETATM   12  N3  UNL     1      -3.530   3.304  24.760  1.00  0.00    -0.308 N
HETATM   13  C13 UNL     1      -4.780   2.710  24.413  1.00  0.00     0.221 C
HETATM   14  C14 UNL     1      -6.035   3.078  25.106  1.00  0.00     0.117 C
HETATM   15  O3  UNL     1      -4.950   1.850  23.509  1.00  0.00    -0.273 OA
HETATM   16  C15 UNL     1      -2.313   3.183  23.997  1.00  0.00     0.051 C
HETATM   17  C22 UNL     1      -1.149   2.506  24.632  1.00  0.00     0.126 C
HETATM   18  C23 UNL     1       0.089   2.809  23.738  1.00  0.00     0.026 C
HETATM   19  C24 UNL     1      -1.144   1.070  24.822  1.00  0.00     0.235 C
HETATM   20  O4  UNL     1      -1.990   0.379  24.144  1.00  0.00    -0.272 OA
HETATM   21  N5  UNL     1      -0.328   0.263  25.666  1.00  0.00    -0.290 N
HETATM   22  C25 UNL     1       0.212  -0.985  25.043  1.00  0.00     0.162 C
HETATM   23  C26 UNL     1       0.068   0.437  26.994  1.00  0.00     0.248 C
HETATM   24  O5  UNL     1       1.332   0.572  27.214  1.00  0.00    -0.271 OA
ENDROOT
BRANCH  16  25
HETATM   25  C16 UNL     1      -2.408   3.104  22.532  1.00  0.00     0.228 C
BRANCH  25  26
HETATM   26  N4  UNL     1      -2.622   4.152  21.629  1.00  0.00    -0.050 N
HETATM   27  C17 UNL     1      -2.013   5.421  22.197  1.00  0.00     0.278 C
BRANCH  26  28
HETATM   28  C18 UNL     1      -1.763   3.954  20.449  1.00  0.00     0.238 C
HETATM   29  C19 UNL     1      -1.058   2.680  20.332  1.00  0.00     0.035 C
ENDBRANCH  26  28
BRANCH  26  30
HETATM   30  C20 UNL     1      -3.931   4.536  21.257  1.00  0.00     0.238 C
HETATM   31  C21 UNL     1      -4.017   5.699  20.308  1.00  0.00     0.035 C
ENDBRANCH  26  30
ENDBRANCH  25  26
ENDBRANCH  16  25
BRANCH   9  32
HETATM   32  O2  UNL     1      -3.739   2.109  27.035  1.00  0.00    -0.348 OA
ATOM     33  H2  UNL     1      -4.568   2.135  26.571  1.00  0.00     0.219 HD
ENDBRANCH   9  32
BRANCH   6  34
HETATM   34  C6  UNL     1      -1.079   4.843  29.643  1.00  0.00     0.038 C
BRANCH  34  35
HETATM   35  C7  UNL     1      -1.820   6.109  29.327  1.00  0.00    -0.020 C
HETATM   36  C8  UNL     1      -3.217   6.086  29.946  1.00  0.00     0.009 C
HETATM   37  C9  UNL     1      -1.094   7.367  29.695  1.00  0.00     0.009 C
ENDBRANCH  34  35
ENDBRANCH   6  34
BRANCH   1  38
HETATM   38  C2  UNL     1      -0.467  -0.809  29.059  1.00  0.00     0.030 C
HETATM   39  C1  UNL     1      -1.177  -1.978  28.493  1.00  0.00     0.007 C
ENDBRANCH   1  38
TORSDOF 8
ENDMDL