MODEL 1
REMARK VINA RESULT: -6.670201142      0.000      0.000
REMARK  6 active torsions:
REMARK  status: ('A' for Active; 'I' for Inactive)
REMARK    1  A    between atoms: N1_5  and  C4_6
REMARK    2  A    between atoms: C4_6  and  C5_7
REMARK    3  A    between atoms: C9_11  and  N2_12
REMARK    4  A    between atoms: C19_27  and  C20_28
REMARK    5  A    between atoms: C21_29  and  C22_30
REMARK    6  A    between atoms: C22_30  and  N5_31
REMARK       I    between atoms: N5_31  and  C23_33
ROOT
HETATM    1  C1  UNL     1       0.320   0.255  20.978  1.00  0.00     0.029 C
HETATM    2  C2  UNL     1      -0.212   0.226  22.172  1.00  0.00     0.027 C
HETATM    3  C3  UNL     1      -0.915  -1.020  22.441  1.00  0.00     0.253 C
HETATM    4  O1  UNL     1      -1.381  -1.551  21.371  1.00  0.00    -0.267 OA
HETATM    5  N1  UNL     1      -1.184  -1.744  23.609  1.00  0.00    -0.345 N
HETATM    6  C8  UNL     1      -0.355  -1.556  24.740  1.00  0.00     0.164 C
HETATM    7  C9  UNL     1       0.563  -0.384  24.601  1.00  0.00     0.274 C
HETATM    8  C12 UNL     1      -0.195   0.912  24.525  1.00  0.00     0.251 C
HETATM    9  N3  UNL     1       0.358   1.848  25.436  1.00  0.00    -0.061 N
ATOM     10  H31 UNL     1       1.369   1.734  25.503  1.00  0.00     0.278 HD
ATOM     11  H32 UNL     1       0.097   1.617  26.394  1.00  0.00     0.278 HD
HETATM   12  C13 UNL     1       0.023   3.199  25.134  1.00  0.00     0.187 C
HETATM   13  C14 UNL     1      -1.251   3.579  25.841  1.00  0.00     0.035 C
HETATM   14  C15 UNL     1      -2.285   4.142  24.901  1.00  0.00     0.028 C
HETATM   15  C16 UNL     1      -2.810   3.153  23.934  1.00  0.00     0.096 C
HETATM   16  N4  UNL     1      -4.063   3.703  23.388  1.00  0.00    -0.350 N
HETATM   17  C17 UNL     1      -5.411   3.553  23.898  1.00  0.00     0.153 C
HETATM   18  C18 UNL     1      -3.754   4.451  22.216  1.00  0.00     0.228 C
HETATM   19  O2  UNL     1      -4.557   5.118  21.527  1.00  0.00    -0.273 OA
HETATM   20  C19 UNL     1      -2.265   4.282  21.966  1.00  0.00     0.111 C
HETATM   21  C25 UNL     1      -2.049   2.929  22.685  1.00  0.00    -0.000 C
HETATM   22  C26 UNL     1      -2.855   1.957  21.861  1.00  0.00     0.019 C
HETATM   23  C27 UNL     1      -0.622   2.669  22.761  1.00  0.00     0.031 C
HETATM   24  C28 UNL     1       0.084   3.618  23.716  1.00  0.00     0.043 C
HETATM   25  C29 UNL     1      -0.044   1.362  23.054  1.00  0.00    -0.028 C
ENDROOT
BRANCH  20  26
HETATM   26  C20 UNL     1      -1.973   4.185  20.545  1.00  0.00    -0.014 C
HETATM   27  C21 UNL     1      -1.546   5.162  19.784  1.00  0.00    -0.010 C
BRANCH  27  28
HETATM   28  C22 UNL     1      -1.297   6.526  20.272  1.00  0.00     0.149 C
BRANCH  28  29
HETATM   29  N5  UNL     1      -2.529   7.276  20.360  1.00  0.00    -0.358 N
HETATM   30  C23 UNL     1      -2.727   8.571  19.829  1.00  0.00     0.213 C
HETATM   31  C24 UNL     1      -4.041   9.240  19.986  1.00  0.00     0.117 C
HETATM   32  O3  UNL     1      -1.829   9.160  19.236  1.00  0.00    -0.274 OA
ATOM     33  H5  UNL     1      -3.314   6.838  20.842  1.00  0.00     0.162 HD
ENDBRANCH  28  29
ENDBRANCH  27  28
ENDBRANCH  20  26
BRANCH   7  34
HETATM   34  N2  UNL     1       1.641  -0.393  25.579  1.00  0.00     0.088 N
HETATM   35  C10 UNL     1       2.868  -0.884  24.911  1.00  0.00     0.310 C
HETATM   36  C11 UNL     1       1.431  -1.290  26.679  1.00  0.00     0.310 C
ENDBRANCH   7  34
BRANCH   5  37
HETATM   37  C4  UNL     1      -1.464  -3.115  23.388  1.00  0.00     0.130 C
BRANCH  37  38
HETATM   38  C5  UNL     1      -0.263  -3.995  23.590  1.00  0.00     0.004 A
HETATM   39  C6  UNL     1       0.693  -4.336  22.533  1.00  0.00     0.007 A
HETATM   40  C7  UNL     1      -0.317  -5.358  22.935  1.00  0.00     0.007 A
ENDBRANCH  37  38
ENDBRANCH   5  37
TORSDOF 6
ENDMDL