MODEL 1
REMARK VINA RESULT: -7.807718629      0.000      0.000
REMARK  8 active torsions:
REMARK  status: ('A' for Active; 'I' for Inactive)
REMARK    1  A    between atoms: C3_3  and  C4_4
REMARK    2  A    between atoms: C3_3  and  N5_32
REMARK    3  A    between atoms: C4_4  and  C5_5
REMARK    4  A    between atoms: C5_5  and  N1_6
REMARK    5  A    between atoms: C19_23  and  C20_24
REMARK    6  A    between atoms: C20_24  and  C21_25
REMARK    7  A    between atoms: N5_32  and  C26_35
REMARK    8  A    between atoms: C26_35  and  C28_37
ROOT
HETATM    1  C1  UNL     1       3.611  -2.013  18.954  1.00  0.00     0.099 C
HETATM    2  C2  UNL     1       2.444  -1.651  18.904  1.00  0.00    -0.155 C
HETATM    3  C3  UNL     1       1.036  -1.191  18.814  1.00  0.00     0.254 C
ENDROOT
BRANCH   3   4
HETATM    4  C4  UNL     1       0.742  -0.117  19.799  1.00  0.00     0.073 C
BRANCH   4   5
HETATM    5  C5  UNL     1      -0.279  -0.622  20.764  1.00  0.00     0.250 C
BRANCH   5   6
HETATM    6  N1  UNL     1      -0.820   0.380  21.652  1.00  0.00    -0.010 N
HETATM    7  C6  UNL     1       0.071   0.947  22.577  1.00  0.00     0.280 C
HETATM    8  C7  UNL     1      -0.420   1.574  23.795  1.00  0.00     0.268 C
HETATM    9  O1  UNL     1      -0.171   0.856  24.842  1.00  0.00    -0.267 OA
HETATM   10  N2  UNL     1      -1.108   2.760  24.261  1.00  0.00    -0.322 N
HETATM   11  C8  UNL     1      -1.007   3.214  25.595  1.00  0.00     0.123 C
HETATM   12  C19 UNL     1      -1.981   3.641  23.440  1.00  0.00     0.120 C
HETATM   13  C9  UNL     1      -1.648   2.323  26.629  1.00  0.00     0.299 C
HETATM   14  C17 UNL     1      -1.846   4.445  25.642  1.00  0.00     0.047 C
HETATM   15  N3  UNL     1      -2.284   3.197  27.603  1.00  0.00     0.100 N
HETATM   16  C10 UNL     1      -1.414   3.651  28.634  1.00  0.00     0.307 C
HETATM   17  C16 UNL     1      -2.744   4.331  26.839  1.00  0.00     0.237 C
HETATM   18  C11 UNL     1      -1.661   5.122  28.768  1.00  0.00    -0.050 C
HETATM   19  C12 UNL     1      -1.146   5.951  29.669  1.00  0.00    -0.026 C
HETATM   20  C14 UNL     1      -2.595   5.544  27.698  1.00  0.00     0.045 C
HETATM   21  C13 UNL     1      -1.460   7.400  29.710  1.00  0.00     0.036 C
HETATM   22  C15 UNL     1      -3.901   6.038  28.262  1.00  0.00     0.017 C
HETATM   23  C18 UNL     1      -2.731   4.445  24.403  1.00  0.00     0.050 C
HETATM   24  C23 UNL     1      -2.870   2.720  22.583  1.00  0.00     0.251 C
HETATM   25  O2  UNL     1      -4.039   3.073  22.486  1.00  0.00    -0.270 OA
HETATM   26  N4  UNL     1      -2.333   1.564  21.972  1.00  0.00    -0.300 N
HETATM   27  C24 UNL     1      -1.494   1.375  20.778  1.00  0.00     0.374 C
HETATM   28  C25 UNL     1      -2.180   0.126  22.132  1.00  0.00     0.374 C
BRANCH  12  29
HETATM   29  C20 UNL     1      -1.063   4.408  22.557  1.00  0.00     0.067 C
BRANCH  29  30
HETATM   30  C21 UNL     1      -1.683   5.328  21.607  1.00  0.00    -0.034 C
HETATM   31  C22 UNL     1      -1.488   5.301  20.337  1.00  0.00     0.007 C
ENDBRANCH  29  30
ENDBRANCH  12  29
ENDBRANCH   5   6
ENDBRANCH   4   5
ENDBRANCH   3   4
BRANCH   3  32
HETATM   32  N5  UNL     1       0.802  -0.690  17.449  1.00  0.00    -0.048 N
ATOM     33  H52 UNL     1       0.215   0.144  17.429  1.00  0.00     0.279 HD
ATOM     34  H51 UNL     1       1.636  -0.278  17.030  1.00  0.00     0.279 HD
BRANCH  32  35
HETATM   35  C26 UNL     1       0.252  -1.792  16.655  1.00  0.00     0.283 C
HETATM   36  C27 UNL     1      -0.718  -2.578  17.518  1.00  0.00     0.052 C
BRANCH  35  37
HETATM   37  C28 UNL     1      -0.452  -1.341  15.453  1.00  0.00     0.204 C
HETATM   38  O3  UNL     1      -1.475  -0.644  15.531  1.00  0.00    -0.646 OA
HETATM   39  O4  UNL     1       0.037  -1.695  14.203  1.00  0.00    -0.646 OA
ENDBRANCH  35  37
ENDBRANCH  32  35
ENDBRANCH   3  32
TORSDOF 8
ENDMDL