MODEL 3
REMARK VINA RESULT: -6.925130919      2.392      9.198
REMARK  10 active torsions:
REMARK  status: ('A' for Active; 'I' for Inactive)
REMARK    1  A    between atoms: N1_2  and  C3_4
REMARK    2  A    between atoms: N1_2  and  C5_8
REMARK    3  A    between atoms: C3_4  and  C4_5
REMARK    4  A    between atoms: C5_8  and  C6_9
REMARK    5  A    between atoms: C18_21  and  N3_22
REMARK       I    between atoms: N3_22  and  C19_24
REMARK    6  A    between atoms: C19_24  and  C20_26
REMARK    7  A    between atoms: N4_31  and  C26_33
REMARK    8  A    between atoms: C26_33  and  C27_34
REMARK    9  A    between atoms: C28_35  and  C29_36
REMARK   10  A    between atoms: C29_36  and  N5_37
ROOT
HETATM    1  C6  UNL     1      -1.935   3.352  22.282  1.00  0.00     0.005 A
HETATM    2  C7  UNL     1      -1.611   3.783  20.909  1.00  0.00     0.031 A
HETATM    3  C8  UNL     1      -0.643   4.039  21.932  1.00  0.00     0.076 A
HETATM    4  C9  UNL     1      -0.173   4.001  23.241  1.00  0.00    -0.100 C
HETATM    5  C10 UNL     1       0.068   3.753  24.226  1.00  0.00    -0.094 C
HETATM    6  C11 UNL     1       0.270   3.151  25.491  1.00  0.00     0.135 C
HETATM    7  C12 UNL     1       1.074   1.839  25.203  1.00  0.00     0.031 C
HETATM    8  C13 UNL     1       0.293   0.978  24.276  1.00  0.00     0.011 C
HETATM    9  C14 UNL     1      -0.744   0.319  25.198  1.00  0.00     0.019 C
HETATM   10  C15 UNL     1      -1.762   1.487  25.346  1.00  0.00     0.057 C
HETATM   11  C16 UNL     1      -2.414   1.570  24.017  1.00  0.00     0.020 C
HETATM   12  C17 UNL     1      -1.606   2.012  22.843  1.00  0.00     0.021 C
HETATM   13  C18 UNL     1      -0.281   1.418  22.983  1.00  0.00     0.093 C
HETATM   14  C30 UNL     1      -1.095   2.618  25.954  1.00  0.00     0.146 C
HETATM   15  O3  UNL     1      -1.601   3.203  26.875  1.00  0.00    -0.296 OA
ENDROOT
BRANCH  13  16
HETATM   16  N3  UNL     1      -0.445   0.061  22.329  1.00  0.00    -0.354 N
HETATM   17  C19 UNL     1       0.069  -0.184  21.041  1.00  0.00     0.249 C
HETATM   18  O2  UNL     1       0.672   0.771  20.452  1.00  0.00    -0.271 OA
ATOM     19  H3  UNL     1      -0.933  -0.683  22.827  1.00  0.00     0.162 HD
BRANCH  17  20
HETATM   20  C20 UNL     1      -0.041  -1.461  20.328  1.00  0.00     0.282 C
HETATM   21  C21 UNL     1      -0.768  -1.332  19.013  1.00  0.00     0.043 C
HETATM   22  C22 UNL     1       0.098  -1.051  17.838  1.00  0.00     0.004 C
HETATM   23  C23 UNL     1       1.347  -1.893  17.825  1.00  0.00     0.028 C
HETATM   24  C24 UNL     1       2.044  -1.695  19.140  1.00  0.00     0.239 C
HETATM   25  N4  UNL     1       1.176  -2.196  20.191  1.00  0.00    -0.048 N
HETATM   26  C25 UNL     1       0.806  -3.566  19.801  1.00  0.00     0.274 C
BRANCH  25  27
HETATM   27  C26 UNL     1       1.964  -2.283  21.375  1.00  0.00     0.331 C
BRANCH  27  28
HETATM   28  C27 UNL     1       3.297  -2.784  21.017  1.00  0.00    -0.077 C
HETATM   29  C28 UNL     1       4.411  -3.188  20.740  1.00  0.00    -0.078 C
BRANCH  29  30
HETATM   30  C29 UNL     1       5.757  -3.664  20.390  1.00  0.00     0.323 C
BRANCH  30  31
HETATM   31  N5  UNL     1       6.072  -4.776  21.295  1.00  0.00    -0.069 N
ATOM     32  H53 UNL     1       7.072  -4.961  21.368  1.00  0.00     0.275 HD
ATOM     33  H52 UNL     1       5.909  -4.551  22.276  1.00  0.00     0.275 HD
ATOM     34  H51 UNL     1       5.537  -5.584  20.976  1.00  0.00     0.275 HD
ENDBRANCH  30  31
ENDBRANCH  29  30
ENDBRANCH  27  28
ENDBRANCH  25  27
ENDBRANCH  17  20
ENDBRANCH  13  16
BRANCH   1  35
HETATM   35  C5  UNL     1      -3.115   3.976  22.805  1.00  0.00     0.253 C
BRANCH  35  36
HETATM   36  N1  UNL     1      -4.473   3.851  22.446  1.00  0.00    -0.049 N
HETATM   37  C1  UNL     1      -4.947   2.642  21.873  1.00  0.00     0.278 C
HETATM   38  C2  UNL     1      -5.174   3.870  23.736  1.00  0.00     0.278 C
BRANCH  36  39
HETATM   39  C3  UNL     1      -5.013   5.001  21.744  1.00  0.00     0.272 C
BRANCH  39  40
HETATM   40  C4  UNL     1      -4.156   5.775  20.873  1.00  0.00     0.278 C
HETATM   41  N2  UNL     1      -3.379   6.919  21.099  1.00  0.00    -0.057 NA
HETATM   42  O1  UNL     1      -4.067   5.362  19.648  1.00  0.00    -0.270 OA
ENDBRANCH  39  40
ENDBRANCH  36  39
ENDBRANCH  35  36
ENDBRANCH   1  35
TORSDOF 10
ENDMDL