MODEL 3
REMARK VINA RESULT: -7.336459471      1.129      1.401
REMARK  10 active torsions:
REMARK  status: ('A' for Active; 'I' for Inactive)
REMARK    1  A    between atoms: C3_3  and  N1_4
REMARK       I    between atoms: N1_4  and  C4_6
REMARK    2  A    between atoms: C4_6  and  C5_8
REMARK    3  A    between atoms: C5_8  and  C6_9
REMARK    4  A    between atoms: C6_9  and  C7_10
REMARK    5  A    between atoms: C7_10  and  C8_11
REMARK    6  A    between atoms: C8_11  and  C9_12
REMARK       I    between atoms: C9_12  and  N2_14
REMARK    7  A    between atoms: N2_14  and  C10_16
REMARK    8  A    between atoms: C10_16  and  C11_17
REMARK    9  A    between atoms: C11_17  and  C12_18
REMARK   10  A    between atoms: C12_18  and  C13_19
ROOT
HETATM    1  C1  UNL     1      -0.770   8.203  30.627  1.00  0.00     0.014 C
HETATM    2  C2  UNL     1      -1.380   7.417  29.948  1.00  0.00    -0.098 C
HETATM    3  C3  UNL     1      -2.107   6.435  29.109  1.00  0.00     0.216 C
ENDROOT
BRANCH   3   4
HETATM    4  N1  UNL     1      -2.659   5.415  29.964  1.00  0.00    -0.351 N
HETATM    5  C4  UNL     1      -2.255   4.038  29.878  1.00  0.00     0.218 C
HETATM    6  O1  UNL     1      -1.392   3.780  29.015  1.00  0.00    -0.274 OA
ATOM      7  H1  UNL     1      -3.362   5.678  30.655  1.00  0.00     0.163 HD
BRANCH   5   8
HETATM    8  C5  UNL     1      -2.816   3.003  30.741  1.00  0.00     0.103 C
BRANCH   8   9
HETATM    9  C6  UNL     1      -2.162   1.672  30.580  1.00  0.00     0.010 C
BRANCH   9  10
HETATM   10  C7  UNL     1      -1.108   1.398  31.620  1.00  0.00     0.010 C
BRANCH  10  11
HETATM   11  C8  UNL     1      -0.288   0.185  31.316  1.00  0.00     0.103 C
BRANCH  11  12
HETATM   12  C9  UNL     1      -0.166  -0.097  29.882  1.00  0.00     0.218 C
HETATM   13  O2  UNL     1      -0.572  -1.182  29.400  1.00  0.00    -0.274 OA
HETATM   14  N2  UNL     1       0.425   0.863  28.984  1.00  0.00    -0.351 N
ATOM     15  H2  UNL     1       0.764   1.755  29.344  1.00  0.00     0.163 HD
BRANCH  14  16
HETATM   16  C10 UNL     1       0.538   0.563  27.579  1.00  0.00     0.217 C
BRANCH  16  17
HETATM   17  C11 UNL     1      -0.560   1.066  26.796  1.00  0.00    -0.083 C
BRANCH  17  18
HETATM   18  C12 UNL     1      -1.486   1.465  26.136  1.00  0.00    -0.040 C
BRANCH  18  19
HETATM   19  C13 UNL     1      -2.630   1.929  25.309  1.00  0.00     0.502 C
HETATM   20  N3  UNL     1      -2.406   3.319  25.045  1.00  0.00     0.132 N
HETATM   21  C14 UNL     1      -3.260   4.101  25.921  1.00  0.00     0.314 C
HETATM   22  C15 UNL     1      -2.556   3.678  23.666  1.00  0.00     0.233 C
HETATM   23  C16 UNL     1      -2.771   5.155  23.459  1.00  0.00     0.064 C
HETATM   24  C26 UNL     1      -3.823   2.958  23.187  1.00  0.00     0.047 C
HETATM   25  C17 UNL     1      -2.103   5.659  22.199  1.00  0.00     0.240 C
HETATM   26  N4  UNL     1      -2.809   5.331  20.993  1.00  0.00    -0.061 N
HETATM   27  C18 UNL     1      -1.827   5.447  19.899  1.00  0.00     0.244 C
HETATM   28  C23 UNL     1      -3.886   6.218  20.670  1.00  0.00     0.296 C
HETATM   29  C24 UNL     1      -3.225   3.942  20.953  1.00  0.00     0.238 C
HETATM   30  C19 UNL     1      -1.110   6.752  19.935  1.00  0.00     0.087 C
HETATM   31  C20 UNL     1      -2.122   7.834  19.864  1.00  0.00     0.036 A
HETATM   32  N5  UNL     1      -2.067   9.129  19.510  1.00  0.00    -0.354 N
HETATM   33  C22 UNL     1      -3.415   7.539  20.219  1.00  0.00     0.059 A
HETATM   34  C21 UNL     1      -3.273   9.666  19.626  1.00  0.00     0.180 A
ATOM     35  H5  UNL     1      -1.229   9.621  19.200  1.00  0.00     0.166 HD
HETATM   36  N6  UNL     1      -4.093   8.715  20.054  1.00  0.00    -0.353 N
ATOM     37  H6  UNL     1      -5.088   8.844  20.235  1.00  0.00     0.166 HD
HETATM   38  C25 UNL     1      -4.307   3.568  21.889  1.00  0.00     0.036 C
HETATM   39  C27 UNL     1      -3.508   1.505  23.092  1.00  0.00     0.247 C
HETATM   40  N7  UNL     1      -2.660   1.078  24.161  1.00  0.00    -0.032 N
HETATM   41  C28 UNL     1      -3.205  -0.210  24.629  1.00  0.00     0.276 C
HETATM   42  C29 UNL     1      -1.298   0.803  23.713  1.00  0.00     0.276 C
ENDBRANCH  18  19
ENDBRANCH  17  18
ENDBRANCH  16  17
ENDBRANCH  14  16
ENDBRANCH  11  12
ENDBRANCH  10  11
ENDBRANCH   9  10
ENDBRANCH   8   9
ENDBRANCH   5   8
ENDBRANCH   3   4
TORSDOF 10
ENDMDL