MODEL 3
REMARK VINA RESULT: -6.300735244      2.563      5.184
REMARK  8 active torsions:
REMARK  status: ('A' for Active; 'I' for Inactive)
REMARK    1  A    between atoms: C2_2  and  N1_3
REMARK    2  A    between atoms: C5_6  and  N2_7
REMARK    3  A    between atoms: N5_25  and  C19_26
REMARK    4  A    between atoms: C19_26  and  O2_27
REMARK    5  A    between atoms: C19_26  and  C20_29
REMARK    6  A    between atoms: C20_29  and  C21_30
REMARK    7  A    between atoms: C20_29  and  N6_34
REMARK    8  A    between atoms: C21_30  and  C22_31
REMARK       I    between atoms: N6_34  and  C25_36
REMARK       I    between atoms: C25_36  and  N7_38
ROOT
HETATM    1  N1  UNL     1      -3.191   3.637  23.875  1.00  0.00     0.021 N
HETATM    2  C3  UNL     1      -4.194   3.723  22.848  1.00  0.00     0.301 C
HETATM    3  C4  UNL     1      -5.516   3.359  23.394  1.00  0.00    -0.026 C
HETATM    4  C5  UNL     1      -6.690   3.511  22.767  1.00  0.00     0.209 C
HETATM    5  C11 UNL     1      -5.251   2.813  24.727  1.00  0.00     0.073 C
HETATM    6  C12 UNL     1      -3.753   2.787  24.845  1.00  0.00     0.220 C
HETATM    7  C13 UNL     1      -3.406   1.321  24.645  1.00  0.00     0.044 C
HETATM    8  C14 UNL     1      -1.958   1.054  24.723  1.00  0.00     0.031 C
HETATM    9  C15 UNL     1      -1.235   1.258  26.009  1.00  0.00     0.036 C
HETATM   10  C16 UNL     1      -0.843   2.620  25.562  1.00  0.00     0.124 C
HETATM   11  N4  UNL     1       0.525   2.809  25.106  1.00  0.00    -0.351 N
ATOM     12  H4  UNL     1       1.358   3.306  25.422  1.00  0.00     0.163 HD
HETATM   13  C17 UNL     1       0.158   1.975  24.011  1.00  0.00     0.250 C
HETATM   14  O1  UNL     1       0.873   1.286  23.274  1.00  0.00    -0.271 OA
HETATM   15  C18 UNL     1      -1.252   2.296  24.183  1.00  0.00     0.163 C
HETATM   16  N5  UNL     1      -1.969   3.121  23.366  1.00  0.00    -0.192 N
ENDROOT
BRANCH  16  17
HETATM   17  C19 UNL     1      -1.451   3.878  22.326  1.00  0.00     0.267 C
BRANCH  17  18
HETATM   18  O2  UNL     1      -0.060   4.070  22.312  1.00  0.00    -0.373 OA
ATOM     19  H2  UNL     1       0.285   4.755  22.872  1.00  0.00     0.212 HD
ENDBRANCH  17  18
BRANCH  17  20
HETATM   20  C20 UNL     1      -1.828   3.618  20.886  1.00  0.00     0.136 C
BRANCH  20  21
HETATM   21  C21 UNL     1      -1.900   4.792  20.026  1.00  0.00     0.033 C
BRANCH  21  22
HETATM   22  C22 UNL     1      -2.109   6.133  20.642  1.00  0.00    -0.021 C
HETATM   23  C23 UNL     1      -1.160   7.139  19.963  1.00  0.00     0.009 C
HETATM   24  C24 UNL     1      -3.493   6.684  20.654  1.00  0.00     0.009 C
ENDBRANCH  21  22
ENDBRANCH  20  21
BRANCH  20  25
HETATM   25  N6  UNL     1      -0.786   2.691  20.401  1.00  0.00    -0.334 N
HETATM   26  C25 UNL     1      -1.028   1.309  20.420  1.00  0.00     0.318 C
HETATM   27  O3  UNL     1      -2.124   0.883  20.847  1.00  0.00    -0.247 OA
HETATM   28  N7  UNL     1      -0.056   0.389  19.965  1.00  0.00    -0.343 N
HETATM   29  C26 UNL     1      -0.343  -1.023  20.000  1.00  0.00     0.154 C
HETATM   30  C27 UNL     1       1.206   0.896  19.474  1.00  0.00     0.154 C
ATOM     31  H6  UNL     1       0.103   3.053  20.055  1.00  0.00     0.164 HD
ENDBRANCH  20  25
ENDBRANCH  17  20
ENDBRANCH  16  17
BRANCH   1  32
HETATM   32  C2  UNL     1      -2.915   4.983  24.288  1.00  0.00     0.261 C
HETATM   33  C1  UNL     1      -3.065   5.252  25.751  1.00  0.00     0.037 C
ENDBRANCH   1  32
BRANCH   4  34
HETATM   34  N2  UNL     1      -7.966   3.210  23.176  1.00  0.00    -0.017 N
HETATM   35  C6  UNL     1      -8.137   1.820  23.591  1.00  0.00     0.275 C
HETATM   36  C7  UNL     1      -9.368   1.824  24.489  1.00  0.00     0.303 C
HETATM   37  N3  UNL     1      -9.870   3.198  24.304  1.00  0.00     0.118 N
HETATM   38  C8  UNL     1     -10.248   3.284  22.908  1.00  0.00     0.303 C
HETATM   39  C10 UNL     1      -8.556   3.896  24.272  1.00  0.00     0.513 C
HETATM   40  C9  UNL     1      -8.965   3.425  22.129  1.00  0.00     0.275 C
ENDBRANCH   4  34
TORSDOF 8
ENDMDL