MODEL 5
REMARK VINA RESULT: -5.716751240      3.037      7.121
REMARK  10 active torsions:
REMARK  status: ('A' for Active; 'I' for Inactive)
REMARK       I    between atoms: N1_2  and  C2_4
REMARK    1  A    between atoms: C2_4  and  C3_6
REMARK    2  A    between atoms: C3_6  and  N2_7
REMARK    3  A    between atoms: N2_7  and  C4_8
REMARK    4  A    between atoms: N2_7  and  N6_30
REMARK    5  A    between atoms: C4_8  and  O2_9
REMARK    6  A    between atoms: C4_8  and  C5_11
REMARK    7  A    between atoms: C5_11  and  C7_13
REMARK    8  A    between atoms: C5_11  and  C8_16
REMARK    9  A    between atoms: C7_13  and  O3_14
REMARK   10  A    between atoms: C8_16  and  C9_17
REMARK       I    between atoms: C9_17  and  N3_19
ROOT
HETATM    1  C4  UNL     1      -3.321   4.128  23.126  1.00  0.00     0.152 C
ENDROOT
BRANCH   1   2
HETATM    2  N2  UNL     1      -4.270   3.567  23.952  1.00  0.00    -0.171 N
BRANCH   2   3
HETATM    3  C3  UNL     1      -3.841   3.463  25.417  1.00  0.00     0.143 C
HETATM    4  C25 UNL     1      -3.497   2.166  25.939  1.00  0.00     0.043 C
HETATM    5  C26 UNL     1      -2.236   2.649  26.562  1.00  0.00     0.006 C
HETATM    6  C27 UNL     1      -2.332   3.771  25.565  1.00  0.00     0.043 C
BRANCH   3   7
HETATM    7  C2  UNL     1      -4.555   4.436  26.252  1.00  0.00     0.247 C
HETATM    8  N1  UNL     1      -4.427   5.843  26.255  1.00  0.00    -0.363 N
HETATM    9  C1  UNL     1      -5.217   6.700  27.148  1.00  0.00     0.149 C
ATOM     10  H1  UNL     1      -3.763   6.279  25.615  1.00  0.00     0.162 HD
HETATM   11  O1  UNL     1      -5.419   4.024  27.113  1.00  0.00    -0.271 OA
ENDBRANCH   3   7
ENDBRANCH   2   3
BRANCH   2  12
HETATM   12  N6  UNL     1      -5.584   3.196  23.635  1.00  0.00     0.018 N
HETATM   13  C16 UNL     1      -6.597   4.170  23.947  1.00  0.00     0.270 C
HETATM   14  C17 UNL     1      -7.989   3.604  23.896  1.00  0.00     0.015 C
HETATM   15  C18 UNL     1      -8.205   2.337  24.646  1.00  0.00     0.012 C
HETATM   16  C22 UNL     1      -8.261   3.271  22.420  1.00  0.00     0.012 C
HETATM   17  C19 UNL     1      -7.222   1.355  24.129  1.00  0.00     0.015 C
HETATM   18  C20 UNL     1      -7.382   1.025  22.653  1.00  0.00     0.012 C
HETATM   19  C24 UNL     1      -5.841   1.911  24.247  1.00  0.00     0.270 C
HETATM   20  C21 UNL     1      -7.149   2.308  21.963  1.00  0.00     0.015 C
HETATM   21  C23 UNL     1      -5.802   2.975  22.194  1.00  0.00     0.270 C
ENDBRANCH   2  12
ENDBRANCH   1   2
BRANCH   1  22
HETATM   22  O2  UNL     1      -3.366   5.497  23.247  1.00  0.00    -0.348 OA
ATOM     23  H2  UNL     1      -3.708   5.872  22.444  1.00  0.00     0.219 HD
ENDBRANCH   1  22
BRANCH   1  24
HETATM   24  C5  UNL     1      -2.251   3.961  22.148  1.00  0.00     0.052 C
HETATM   25  C6  UNL     1      -2.758   4.746  20.871  1.00  0.00     0.027 C
BRANCH  24  26
HETATM   26  C7  UNL     1      -0.891   4.394  22.289  1.00  0.00     0.182 C
BRANCH  26  27
HETATM   27  O3  UNL     1      -0.007   4.614  21.296  1.00  0.00    -0.400 OA
ATOM     28  H3  UNL     1       0.889   4.302  21.253  1.00  0.00     0.209 HD
ENDBRANCH  26  27
ENDBRANCH  24  26
BRANCH  24  29
HETATM   29  C8  UNL     1      -2.305   2.527  21.565  1.00  0.00     0.123 C
BRANCH  29  30
HETATM   30  C9  UNL     1      -1.402   1.544  22.110  1.00  0.00     0.226 C
HETATM   31  O4  UNL     1      -1.393   1.227  23.313  1.00  0.00    -0.273 OA
HETATM   32  N3  UNL     1      -0.424   0.827  21.320  1.00  0.00    -0.305 N
HETATM   33  C10 UNL     1       0.455  -0.170  21.915  1.00  0.00     0.161 C
HETATM   34  C15 UNL     1      -0.254   1.040  19.929  1.00  0.00     0.106 C
HETATM   35  C11 UNL     1       1.428  -0.607  20.872  1.00  0.00     0.257 C
HETATM   36  N4  UNL     1       0.840  -1.089  19.650  1.00  0.00    -0.067 N
HETATM   37  C12 UNL     1       1.962  -1.324  18.726  1.00  0.00     0.272 C
HETATM   38  C13 UNL     1       0.252  -2.375  19.902  1.00  0.00     0.272 C
HETATM   39  C14 UNL     1      -0.122  -0.192  19.079  1.00  0.00     0.312 C
HETATM   40  N5  UNL     1      -0.210   2.215  19.432  1.00  0.00    -0.387 N
ATOM     41  H52 UNL     1      -0.300   3.052  20.009  1.00  0.00     0.157 HD
ATOM     42  H51 UNL     1      -0.088   2.369  18.431  1.00  0.00     0.157 HD
ENDBRANCH  29  30
ENDBRANCH  24  29
ENDBRANCH   1  24
TORSDOF 10
ENDMDL