MODEL 4
REMARK VINA RESULT: -6.479559252      4.243      7.858
REMARK  10 active torsions:
REMARK  status: ('A' for Active; 'I' for Inactive)
REMARK    1  A    between atoms: C3_3  and  C4_4
REMARK    2  A    between atoms: C4_4  and  N1_5
REMARK    3  A    between atoms: N1_5  and  C5_6
REMARK       I    between atoms: N1_5  and  C8_13
REMARK    4  A    between atoms: C5_6  and  C6_7
REMARK    5  A    between atoms: C6_7  and  C7_8
REMARK    6  A    between atoms: C7_8  and  N2_9
REMARK    7  A    between atoms: C8_13  and  C9_15
REMARK    8  A    between atoms: C10_16  and  C11_17
REMARK    9  A    between atoms: C16_23  and  O3_24
REMARK   10  A    between atoms: C24_36  and  N5_37
ROOT
HETATM    1  C1  UNL     1       0.858   2.794  24.848  1.00  0.00     0.112 C
HETATM    2  C2  UNL     1       0.022   2.241  23.765  1.00  0.00    -0.109 C
HETATM    3  C3  UNL     1      -0.680   1.784  22.890  1.00  0.00    -0.087 C
ENDROOT
BRANCH   3   4
HETATM    4  C4  UNL     1      -1.542   1.236  21.832  1.00  0.00     0.220 C
BRANCH   4   5
HETATM    5  N1  UNL     1      -1.127   1.692  20.536  1.00  0.00    -0.338 N
HETATM    6  C8  UNL     1      -0.480   0.867  19.625  1.00  0.00     0.249 C
HETATM    7  O1  UNL     1      -0.165   1.377  18.522  1.00  0.00    -0.268 OA
BRANCH   5   8
HETATM    8  C5  UNL     1      -1.405   3.076  20.181  1.00  0.00     0.129 C
BRANCH   8   9
HETATM    9  C6  UNL     1      -2.446   3.681  21.094  1.00  0.00     0.047 C
BRANCH   9  10
HETATM   10  C7  UNL     1      -1.968   5.036  21.621  1.00  0.00     0.231 C
BRANCH  10  11
HETATM   11  N2  UNL     1      -0.614   5.226  21.129  1.00  0.00    -0.079 N
ATOM     12  H23 UNL     1      -0.296   4.467  20.527  1.00  0.00     0.274 HD
ATOM     13  H22 UNL     1      -0.539   5.976  20.442  1.00  0.00     0.274 HD
ATOM     14  H21 UNL     1      -0.019   5.368  21.945  1.00  0.00     0.274 HD
ENDBRANCH  10  11
ENDBRANCH   9  10
ENDBRANCH   8   9
ENDBRANCH   5   8
BRANCH   6  15
HETATM   15  C9  UNL     1      -0.164  -0.510  19.895  1.00  0.00     0.032 C
HETATM   16  C10 UNL     1       1.277  -0.656  20.455  1.00  0.00     0.111 C
HETATM   17  C12 UNL     1       1.349  -2.124  20.565  1.00  0.00     0.045 C
HETATM   18  C13 UNL     1       2.597  -2.786  20.802  1.00  0.00     0.039 C
HETATM   19  N4  UNL     1       0.550  -2.413  21.785  1.00  0.00    -0.390 N
HETATM   20  C23 UNL     1       0.484  -2.688  19.423  1.00  0.00     0.070 C
HETATM   21  C14 UNL     1       3.877  -2.732  20.116  1.00  0.00     0.025 A
HETATM   22  C15 UNL     1       4.578  -3.798  19.431  1.00  0.00     0.046 A
HETATM   23  C16 UNL     1       4.781  -3.630  20.969  1.00  0.00     0.064 A
HETATM   24  C17 UNL     1       4.219  -4.754  21.714  1.00  0.00     0.066 C
HETATM   25  C18 UNL     1       3.792  -4.594  23.137  1.00  0.00     0.241 C
HETATM   26  N3  UNL     1       2.435  -4.994  23.439  1.00  0.00    -0.059 N
HETATM   27  C19 UNL     1       1.467  -3.932  23.545  1.00  0.00     0.281 C
HETATM   28  C21 UNL     1       1.980  -6.187  22.826  1.00  0.00     0.266 A
HETATM   29  C22 UNL     1       2.234  -6.207  24.294  1.00  0.00     0.266 A
HETATM   30  C20 UNL     1       0.608  -3.714  22.316  1.00  0.00     0.084 C
ATOM     31  H4  UNL     1      -0.022  -1.691  22.223  1.00  0.00     0.159 HD
HETATM   32  C24 UNL     1      -0.507  -1.621  19.059  1.00  0.00     0.227 C
BRANCH  16  33
HETATM   33  C11 UNL     1       2.260   0.042  19.655  1.00  0.00     0.242 C
HETATM   34  O2  UNL     1       3.243   0.626  20.066  1.00  0.00    -0.306 OA
ENDBRANCH  16  33
BRANCH  23  35
HETATM   35  O3  UNL     1       6.011  -3.156  21.386  1.00  0.00    -0.389 OA
ATOM     36  H3  UNL     1       6.215  -3.143  22.314  1.00  0.00     0.210 HD
ENDBRANCH  23  35
BRANCH  32  37
HETATM   37  N5  UNL     1      -0.764  -1.612  17.672  1.00  0.00    -0.063 N
HETATM   38  C25 UNL     1      -2.101  -1.237  17.291  1.00  0.00     0.273 C
HETATM   39  C26 UNL     1       0.126  -1.033  16.765  1.00  0.00     0.238 C
HETATM   40  C27 UNL     1       0.175  -1.859  15.483  1.00  0.00     0.029 C
HETATM   41  C28 UNL     1      -0.660  -3.050  15.786  1.00  0.00     0.029 C
HETATM   42  C29 UNL     1      -0.678  -3.043  17.280  1.00  0.00     0.238 C
ENDBRANCH  32  37
ENDBRANCH   6  15
ENDBRANCH   4   5
ENDBRANCH   3   4
TORSDOF 10
ENDMDL