MODEL 1
REMARK VINA RESULT: -7.374503900      0.000      0.000
REMARK  11 active torsions:
REMARK  status: ('A' for Active; 'I' for Inactive)
REMARK    1  A    between atoms: C2_2  and  C4_4
REMARK    2  A    between atoms: C4_4  and  N1_5
REMARK    3  A    between atoms: C4_4  and  C16_26
REMARK       I    between atoms: N1_5  and  C5_7
REMARK    4  A    between atoms: C5_7  and  C6_9
REMARK    5  A    between atoms: C6_9  and  C7_10
REMARK    6  A    between atoms: C7_10  and  N2_11
REMARK       I    between atoms: C8_13  and  N3_14
REMARK       I    between atoms: C8_13  and  N4_20
REMARK    7  A    between atoms: N3_14  and  C9_16
REMARK    8  A    between atoms: N4_20  and  N5_22
REMARK    9  A    between atoms: C16_26  and  C17_28
REMARK   10  A    between atoms: C17_28  and  O3_29
REMARK   11  A    between atoms: C17_28  and  N6_31
ROOT
HETATM    1  C4  UNL     1      -1.353   4.068  21.544  1.00  0.00     0.166 C
ENDROOT
BRANCH   1   2
HETATM    2  C2  UNL     1      -2.047   5.291  21.042  1.00  0.00     0.008 C
HETATM    3  C1  UNL     1      -1.141   6.220  20.273  1.00  0.00     0.012 C
HETATM    4  C3  UNL     1      -3.279   4.992  20.230  1.00  0.00     0.012 C
ENDBRANCH   1   2
BRANCH   1   5
HETATM    5  N1  UNL     1      -1.644   3.022  20.551  1.00  0.00    -0.349 N
HETATM    6  C5  UNL     1      -0.705   2.015  20.250  1.00  0.00     0.219 C
HETATM    7  O1  UNL     1       0.408   2.055  20.880  1.00  0.00    -0.274 OA
ATOM      8  H1  UNL     1      -2.544   3.027  20.071  1.00  0.00     0.163 HD
BRANCH   6   9
HETATM    9  C6  UNL     1      -0.944   0.931  19.257  1.00  0.00     0.123 C
BRANCH   9  10
HETATM   10  C7  UNL     1       0.378   0.593  18.612  1.00  0.00     0.147 C
BRANCH  10  11
HETATM   11  N2  UNL     1       0.744  -0.786  18.682  1.00  0.00    -0.225 N
HETATM   12  C8  UNL     1       0.782  -1.623  17.706  1.00  0.00     0.695 C
HETATM   13  N3  UNL     1       1.184  -2.952  18.037  1.00  0.00    -0.217 N
HETATM   14  N4  UNL     1       0.449  -1.272  16.373  1.00  0.00    -0.049 N
ATOM     15  H3  UNL     1       0.631  -3.732  17.683  1.00  0.00     0.178 HD
ATOM     16  H4  UNL     1       0.711  -0.352  16.018  1.00  0.00     0.212 HD
ATOM     17  H2  UNL     1       1.003  -1.144  19.602  1.00  0.00     0.177 HD
BRANCH  13  18
HETATM   18  C9  UNL     1       2.347  -3.241  18.856  1.00  0.00     0.036 C
HETATM   19  C10 UNL     1       3.402  -2.182  18.746  1.00  0.00     0.038 C
HETATM   20  C11 UNL     1       2.986  -4.550  18.368  1.00  0.00     0.038 C
HETATM   21  C12 UNL     1       1.935  -3.458  20.284  1.00  0.00     0.038 C
ENDBRANCH  13  18
BRANCH  14  22
HETATM   22  N5  UNL     1      -0.238  -2.170  15.526  1.00  0.00     0.014 N
HETATM   23  C13 UNL     1      -0.433  -1.517  14.234  1.00  0.00     0.302 C
HETATM   24  C14 UNL     1       0.575  -3.348  15.275  1.00  0.00     0.302 C
HETATM   25  C15 UNL     1      -1.535  -2.514  16.044  1.00  0.00     0.302 C
ENDBRANCH  14  22
ENDBRANCH  10  11
ENDBRANCH   9  10
ENDBRANCH   6   9
ENDBRANCH   1   5
BRANCH   1  26
HETATM   26  C16 UNL     1      -1.847   3.613  22.894  1.00  0.00     0.224 C
HETATM   27  O2  UNL     1      -3.032   3.249  22.918  1.00  0.00    -0.286 OA
BRANCH  26  28
HETATM   28  C17 UNL     1      -0.995   3.609  24.043  1.00  0.00     0.207 C
BRANCH  28  29
HETATM   29  O3  UNL     1       0.041   4.429  23.960  1.00  0.00    -0.342 OA
ATOM     30  H3  UNL     1       0.733   4.130  23.381  1.00  0.00     0.219 HD
ENDBRANCH  28  29
BRANCH  28  31
HETATM   31  N6  UNL     1      -1.000   2.921  25.246  1.00  0.00    -0.257 N
HETATM   32  C18 UNL     1      -2.144   3.032  26.142  1.00  0.00     0.128 A
HETATM   33  C19 UNL     1      -1.525   3.818  27.343  1.00  0.00     0.044 A
HETATM   34  C24 UNL     1      -2.762   4.167  26.736  1.00  0.00    -0.015 A
HETATM   35  C20 UNL     1      -1.133   2.814  28.311  1.00  0.00    -0.013 C
HETATM   36  C21 UNL     1      -0.184   1.883  28.085  1.00  0.00     0.072 C
HETATM   37  C22 UNL     1       0.623   1.699  26.847  1.00  0.00     0.261 C
HETATM   38  O4  UNL     1       1.775   1.270  26.918  1.00  0.00    -0.267 OA
HETATM   39  N7  UNL     1       0.039   2.030  25.562  1.00  0.00    -0.258 N
HETATM   40  C23 UNL     1       0.627   1.245  24.464  1.00  0.00     0.181 C
HETATM   41  C25 UNL     1      -2.874   5.574  26.185  1.00  0.00     0.018 C
HETATM   42  C26 UNL     1      -3.998   3.873  27.621  1.00  0.00     0.018 C
ENDBRANCH  28  31
ENDBRANCH  26  28
ENDBRANCH   1  26
TORSDOF 11
ENDMDL