MODEL 3
REMARK VINA RESULT: -6.933874399      2.846      5.122
REMARK  12 active torsions:
REMARK  status: ('A' for Active; 'I' for Inactive)
REMARK    1  A    between atoms: C2_2  and  C4_4
REMARK    2  A    between atoms: C4_4  and  C5_5
REMARK    3  A    between atoms: C7_10  and  C8_11
REMARK    4  A    between atoms: C15_19  and  C16_20
REMARK    5  A    between atoms: C16_20  and  C17_21
REMARK    6  A    between atoms: C17_21  and  C18_22
REMARK    7  A    between atoms: C18_22  and  C19_23
REMARK    8  A    between atoms: C19_23  and  N3_24
REMARK       I    between atoms: C20_26  and  N5_28
REMARK    9  A    between atoms: C24_35  and  C25_36
REMARK   10  A    between atoms: C25_36  and  C26_37
REMARK   11  A    between atoms: C26_37  and  C27_38
REMARK   12  A    between atoms: C27_38  and  N7_39
ROOT
HETATM    1  C5  UNL     1      -2.193  19.906  20.184  1.00  0.00     0.179 C
HETATM    2  C6  UNL     1      -1.316  20.773  19.388  1.00  0.00     0.242 C
HETATM    3  O1  UNL     1      -1.454  20.759  18.101  1.00  0.00    -0.271 OA
HETATM    4  N1  UNL     1      -0.314  21.643  19.819  1.00  0.00    -0.338 N
ATOM      5  H1  UNL     1      -0.171  22.456  19.219  1.00  0.00     0.164 HD
HETATM    6  C7  UNL     1       0.541  21.588  20.954  1.00  0.00     0.186 C
HETATM    7  N2  UNL     1       1.813  20.979  20.805  1.00  0.00    -0.383 N
HETATM    8  C14 UNL     1       2.575  20.813  21.969  1.00  0.00     0.146 C
HETATM    9  C15 UNL     1       2.159  20.390  19.596  1.00  0.00     0.173 C
HETATM   10  C23 UNL     1       2.298  18.915  19.578  1.00  0.00     0.241 C
HETATM   11  O2  UNL     1       3.363  18.457  20.135  1.00  0.00    -0.271 OA
HETATM   12  N6  UNL     1       1.444  17.955  19.041  1.00  0.00    -0.346 N
ATOM     13  H6  UNL     1       1.880  17.314  18.378  1.00  0.00     0.163 HD
HETATM   14  C24 UNL     1       0.032  17.724  19.279  1.00  0.00     0.176 C
HETATM   15  C29 UNL     1      -0.417  18.144  20.613  1.00  0.00     0.243 C
HETATM   16  O3  UNL     1       0.339  17.688  21.550  1.00  0.00    -0.271 OA
HETATM   17  N10 UNL     1      -1.484  18.925  21.006  1.00  0.00    -0.341 N
HETATM   18  C30 UNL     1      -1.991  18.770  22.380  1.00  0.00     0.153 C
ENDROOT
BRANCH   9  19
HETATM   19  C16 UNL     1       3.329  21.046  18.841  1.00  0.00     0.035 C
BRANCH  19  20
HETATM   20  C17 UNL     1       2.964  21.962  17.759  1.00  0.00     0.007 C
BRANCH  20  21
HETATM   21  C18 UNL     1       1.900  21.294  16.868  1.00  0.00     0.044 C
BRANCH  21  22
HETATM   22  C19 UNL     1       2.480  20.330  15.889  1.00  0.00     0.063 C
BRANCH  22  23
HETATM   23  N3  UNL     1       2.712  20.839  14.613  1.00  0.00    -0.344 N
HETATM   24  C20 UNL     1       3.614  21.316  13.927  1.00  0.00     0.189 C
HETATM   25  N4  UNL     1       3.268  21.706  12.557  1.00  0.00    -0.063 NA
HETATM   26  N5  UNL     1       4.979  21.549  14.283  1.00  0.00    -0.364 N
HETATM   27  C21 UNL     1       5.406  22.774  14.924  1.00  0.00     0.151 C
HETATM   28  C22 UNL     1       5.948  20.506  13.958  1.00  0.00     0.151 C
ATOM     29  H3  UNL     1       1.851  20.804  14.068  1.00  0.00     0.167 HD
ENDBRANCH  22  23
ENDBRANCH  21  22
ENDBRANCH  20  21
ENDBRANCH  19  20
ENDBRANCH   9  19
BRANCH   6  30
HETATM   30  C8  UNL     1       0.733  22.968  21.551  1.00  0.00     0.028 C
HETATM   31  C9  UNL     1       1.215  24.011  20.610  1.00  0.00     0.008 C
HETATM   32  C10 UNL     1       1.641  25.220  21.456  1.00  0.00     0.001 C
HETATM   33  C11 UNL     1       0.430  25.762  22.148  1.00  0.00     0.000 C
HETATM   34  C12 UNL     1      -0.249  24.685  22.961  1.00  0.00     0.001 C
HETATM   35  C13 UNL     1      -0.614  23.496  22.096  1.00  0.00     0.008 C
ENDBRANCH   6  30
BRANCH  14  36
HETATM   36  C25 UNL     1      -0.202  16.190  19.271  1.00  0.00     0.036 C
BRANCH  36  37
HETATM   37  C26 UNL     1      -1.655  15.954  19.023  1.00  0.00     0.022 C
BRANCH  37  38
HETATM   38  C27 UNL     1      -1.771  15.025  17.820  1.00  0.00     0.122 C
BRANCH  38  39
HETATM   39  N7  UNL     1      -0.610  14.166  17.822  1.00  0.00    -0.367 N
HETATM   40  C28 UNL     1      -0.476  13.245  16.954  1.00  0.00     0.196 C
HETATM   41  N8  UNL     1      -1.478  13.059  15.971  1.00  0.00    -0.067 NA
HETATM   42  N9  UNL     1       0.663  12.411  16.967  1.00  0.00    -0.067 NA
ATOM     43  H7  UNL     1       0.112  14.300  18.529  1.00  0.00     0.161 HD
ENDBRANCH  38  39
ENDBRANCH  37  38
ENDBRANCH  36  37
ENDBRANCH  14  36
BRANCH   1  44
HETATM   44  C4  UNL     1      -3.307  20.547  20.901  1.00  0.00     0.039 C
BRANCH  44  45
HETATM   45  C2  UNL     1      -3.811  21.866  20.462  1.00  0.00    -0.020 C
HETATM   46  C1  UNL     1      -5.010  21.659  19.520  1.00  0.00     0.009 C
HETATM   47  C3  UNL     1      -4.296  22.811  21.517  1.00  0.00     0.009 C
ENDBRANCH  44  45
ENDBRANCH   1  44
TORSDOF 12
ENDMDL