MODEL 5
REMARK VINA RESULT: -6.805314042      1.368      1.661
REMARK  13 active torsions:
REMARK  status: ('A' for Active; 'I' for Inactive)
REMARK    1  A    between atoms: C2_2  and  C3_3
REMARK    2  A    between atoms: C3_3  and  C4_4
REMARK    3  A    between atoms: C4_4  and  C5_5
REMARK    4  A    between atoms: C6_8  and  O1_9
REMARK    5  A    between atoms: C11_19  and  C12_20
REMARK    6  A    between atoms: C12_20  and  C13_21
REMARK    7  A    between atoms: N4_29  and  C19_30
REMARK    8  A    between atoms: C19_30  and  C20_31
REMARK    9  A    between atoms: C20_31  and  C21_32
REMARK   10  A    between atoms: C21_32  and  C22_33
REMARK   11  A    between atoms: C22_33  and  C23_34
REMARK   12  A    between atoms: C23_34  and  C24_35
REMARK       I    between atoms: C24_35  and  N5_37
REMARK   13  A    between atoms: N5_37  and  C25_39
ROOT
HETATM    1  C5  UNL     1      -2.064  17.577  17.845  1.00  0.00     0.079 C
HETATM    2  N1  UNL     1      -2.408  17.419  19.227  1.00  0.00    -0.333 N
ATOM      3  H1  UNL     1      -3.411  17.391  19.410  1.00  0.00     0.168 HD
HETATM    4  C6  UNL     1      -1.607  17.296  20.374  1.00  0.00     0.189 C
HETATM    5  C7  UNL     1      -0.637  18.199  20.931  1.00  0.00     0.221 C
HETATM    6  O2  UNL     1       0.572  17.771  21.057  1.00  0.00    -0.286 OA
HETATM    7  C8  UNL     1      -0.826  19.598  21.400  1.00  0.00     0.159 C
HETATM    8  C9  UNL     1      -2.225  19.901  21.875  1.00  0.00     0.041 C
HETATM    9  N2  UNL     1       0.091  19.872  22.485  1.00  0.00    -0.348 N
ATOM     10  H2  UNL     1      -0.128  19.402  23.364  1.00  0.00     0.163 HD
HETATM   11  C10 UNL     1       1.225  20.676  22.515  1.00  0.00     0.241 C
HETATM   12  O3  UNL     1       2.383  20.103  22.641  1.00  0.00    -0.271 OA
HETATM   13  C11 UNL     1       1.297  22.183  22.421  1.00  0.00     0.179 C
HETATM   14  N3  UNL     1       2.525  22.466  21.775  1.00  0.00    -0.342 N
HETATM   15  C16 UNL     1       3.623  22.941  22.663  1.00  0.00     0.153 C
HETATM   16  C17 UNL     1       2.916  22.349  20.425  1.00  0.00     0.238 C
HETATM   17  O4  UNL     1       3.851  23.158  20.070  1.00  0.00    -0.272 OA
HETATM   18  C18 UNL     1       2.423  21.456  19.388  1.00  0.00     0.228 C
HETATM   19  N4  UNL     1       2.004  21.984  18.139  1.00  0.00    -0.342 N
HETATM   20  C27 UNL     1       0.836  21.459  17.500  1.00  0.00     0.242 C
HETATM   21  O6  UNL     1       0.081  22.196  16.771  1.00  0.00    -0.271 OA
HETATM   22  C28 UNL     1       0.371  20.034  17.598  1.00  0.00     0.173 C
HETATM   23  C29 UNL     1       0.967  19.341  16.391  1.00  0.00     0.042 C
HETATM   24  N6  UNL     1      -1.073  19.981  17.639  1.00  0.00    -0.343 N
ATOM     25  H6  UNL     1      -1.515  20.850  17.940  1.00  0.00     0.163 HD
HETATM   26  C30 UNL     1      -1.971  18.957  17.339  1.00  0.00     0.264 C
HETATM   27  O7  UNL     1      -2.880  19.273  16.471  1.00  0.00    -0.266 OA
ENDROOT
BRANCH  19  28
HETATM   28  C19 UNL     1       2.648  23.049  17.383  1.00  0.00     0.126 C
BRANCH  28  29
HETATM   29  C20 UNL     1       3.737  22.509  16.494  1.00  0.00     0.020 C
BRANCH  29  30
HETATM   30  C21 UNL     1       3.372  22.445  15.031  1.00  0.00     0.002 C
BRANCH  30  31
HETATM   31  C22 UNL     1       3.649  21.074  14.492  1.00  0.00     0.009 C
BRANCH  31  32
HETATM   32  C23 UNL     1       5.063  20.650  14.719  1.00  0.00     0.103 C
BRANCH  32  33
HETATM   33  C24 UNL     1       5.941  20.681  13.532  1.00  0.00     0.217 C
HETATM   34  O5  UNL     1       5.506  21.065  12.429  1.00  0.00    -0.274 OA
HETATM   35  N5  UNL     1       7.288  20.276  13.607  1.00  0.00    -0.361 N
ATOM     36  H5  UNL     1       7.665  19.959  14.500  1.00  0.00     0.162 HD
BRANCH  35  37
HETATM   37  C25 UNL     1       8.138  20.301  12.458  1.00  0.00     0.118 C
HETATM   38  C26 UNL     1       8.913  21.577  12.351  1.00  0.00     0.026 C
ENDBRANCH  35  37
ENDBRANCH  32  33
ENDBRANCH  31  32
ENDBRANCH  30  31
ENDBRANCH  29  30
ENDBRANCH  28  29
ENDBRANCH  19  28
BRANCH  13  39
HETATM   39  C12 UNL     1       0.042  22.793  22.007  1.00  0.00     0.039 C
BRANCH  39  40
HETATM   40  C13 UNL     1      -0.732  23.591  23.012  1.00  0.00    -0.020 C
HETATM   41  C14 UNL     1      -2.084  23.121  23.378  1.00  0.00     0.009 C
HETATM   42  C15 UNL     1       0.111  23.799  24.289  1.00  0.00     0.009 C
ENDBRANCH  39  40
ENDBRANCH  13  39
BRANCH   1  43
HETATM   43  C4  UNL     1      -0.965  16.660  17.357  1.00  0.00     0.063 C
BRANCH  43  44
HETATM   44  C3  UNL     1      -1.576  15.544  16.563  1.00  0.00     0.006 C
BRANCH  44  45
HETATM   45  C2  UNL     1      -1.602  14.333  17.515  1.00  0.00    -0.004 C
HETATM   46  C1  UNL     1      -0.358  14.376  18.371  1.00  0.00     0.005 C
ENDBRANCH  44  45
ENDBRANCH  43  44
ENDBRANCH   1  43
BRANCH   4  47
HETATM   47  O1  UNL     1      -1.732  16.199  21.077  1.00  0.00    -0.343 OA
ATOM     48  H1  UNL     1      -1.519  16.249  22.002  1.00  0.00     0.219 HD
ENDBRANCH   4  47
TORSDOF 13
ENDMDL