MODEL 1
REMARK VINA RESULT: -6.725622551      0.000      0.000
REMARK  15 active torsions:
REMARK  status: ('A' for Active; 'I' for Inactive)
REMARK    1  A    between atoms: C2_2  and  C3_3
REMARK    2  A    between atoms: C5_8  and  C6_9
REMARK    3  A    between atoms: C6_9  and  C7_10
REMARK    4  A    between atoms: C7_10  and  C8_11
REMARK    5  A    between atoms: C8_11  and  C9_12
REMARK    6  A    between atoms: C9_12  and  C10_13
REMARK    7  A    between atoms: C10_13  and  C11_14
REMARK    8  A    between atoms: N3_17  and  C12_18
REMARK    9  A    between atoms: C21_31  and  O4_32
REMARK   10  A    between atoms: C22_34  and  C23_35
REMARK   11  A    between atoms: C23_35  and  C24_36
REMARK   12  A    between atoms: C24_36  and  C25_37
REMARK   13  A    between atoms: C25_37  and  C26_38
REMARK   14  A    between atoms: C26_38  and  N6_39
REMARK   15  A    between atoms: C29_46  and  O5_47
ROOT
HETATM    1  C3  UNL     1      -1.400  20.000  16.738  1.00  0.00     0.159 C
HETATM    2  N1  UNL     1      -0.682  20.556  15.620  1.00  0.00    -0.344 N
ATOM      3  H1  UNL     1      -0.837  20.134  14.705  1.00  0.00     0.163 HD
HETATM    4  C4  UNL     1       0.241  21.665  15.696  1.00  0.00     0.266 C
HETATM    5  O1  UNL     1       0.128  22.446  14.712  1.00  0.00    -0.266 OA
HETATM    6  C5  UNL     1       1.209  21.904  16.755  1.00  0.00     0.097 C
HETATM    7  N3  UNL     1       0.970  22.833  17.759  1.00  0.00    -0.280 N
HETATM    8  N4  UNL     1       1.905  22.834  18.794  1.00  0.00    -0.265 N
ATOM      9  H4  UNL     1       2.620  23.559  18.719  1.00  0.00     0.190 HD
HETATM   10  C16 UNL     1       2.028  22.011  19.916  1.00  0.00     0.259 C
HETATM   11  O3  UNL     1       1.893  22.587  21.056  1.00  0.00    -0.269 OA
HETATM   12  C17 UNL     1       2.295  20.563  19.986  1.00  0.00     0.180 C
HETATM   13  C18 UNL     1       3.765  20.441  20.520  1.00  0.00     0.037 C
HETATM   14  C19 UNL     1       3.497  20.602  21.978  1.00  0.00     0.022 C
HETATM   15  C20 UNL     1       2.092  20.226  22.247  1.00  0.00     0.126 C
HETATM   16  N5  UNL     1       1.535  19.811  20.938  1.00  0.00    -0.347 N
HETATM   17  C21 UNL     1       0.518  18.857  20.723  1.00  0.00     0.162 C
HETATM   18  C22 UNL     1      -0.753  18.961  19.997  1.00  0.00     0.067 C
HETATM   19  N9  UNL     1      -0.739  18.365  18.671  1.00  0.00    -0.334 N
HETATM   20  C28 UNL     1      -0.807  16.870  18.649  1.00  0.00     0.158 C
HETATM   21  C29 UNL     1      -0.669  18.911  17.402  1.00  0.00     0.141 C
ENDROOT
BRANCH  18  22
HETATM   22  C23 UNL     1      -1.461  20.262  20.112  1.00  0.00     0.088 C
BRANCH  22  23
HETATM   23  C24 UNL     1      -2.861  20.193  20.585  1.00  0.00    -0.023 C
BRANCH  23  24
HETATM   24  C25 UNL     1      -3.281  20.473  21.945  1.00  0.00    -0.011 C
BRANCH  24  25
HETATM   25  C26 UNL     1      -3.292  19.555  23.069  1.00  0.00     0.149 C
BRANCH  25  26
HETATM   26  N6  UNL     1      -2.030  19.332  23.749  1.00  0.00    -0.363 N
HETATM   27  C27 UNL     1      -1.486  18.172  23.613  1.00  0.00     0.197 C
HETATM   28  N7  UNL     1      -2.085  17.139  22.831  1.00  0.00    -0.067 NA
HETATM   29  N8  UNL     1      -0.249  17.842  24.234  1.00  0.00    -0.067 NA
ATOM     30  H6  UNL     1      -1.593  20.063  24.311  1.00  0.00     0.162 HD
ENDBRANCH  25  26
ENDBRANCH  24  25
ENDBRANCH  23  24
ENDBRANCH  22  23
ENDBRANCH  18  22
BRANCH  17  31
HETATM   31  O4  UNL     1       0.752  17.693  21.263  1.00  0.00    -0.345 OA
ATOM     32  H4  UNL     1      -0.027  17.238  21.563  1.00  0.00     0.219 HD
ENDBRANCH  17  31
BRANCH  21  33
HETATM   33  O5  UNL     1       0.224  18.348  16.636  1.00  0.00    -0.348 OA
ATOM     34  H5  UNL     1       0.159  17.401  16.617  1.00  0.00     0.219 HD
ENDBRANCH  21  33
BRANCH   1  35
HETATM   35  C2  UNL     1      -2.739  19.518  16.169  1.00  0.00     0.029 C
HETATM   36  C1  UNL     1      -3.903  19.752  17.055  1.00  0.00     0.007 C
ENDBRANCH   1  35
BRANCH   7  37
HETATM   37  C12 UNL     1       0.194  23.963  17.712  1.00  0.00     0.043 C
HETATM   38  C13 UNL     1      -1.305  23.833  17.693  1.00  0.00     0.039 C
HETATM   39  C14 UNL     1       0.547  25.025  16.680  1.00  0.00     0.039 C
HETATM   40  C15 UNL     1       0.427  24.720  19.054  1.00  0.00     0.039 C
ENDBRANCH   7  37
BRANCH   6  41
HETATM   41  C6  UNL     1       2.659  21.730  16.323  1.00  0.00     0.065 C
BRANCH  41  42
HETATM   42  C7  UNL     1       2.979  20.661  15.401  1.00  0.00     0.006 C
BRANCH  42  43
HETATM   43  C8  UNL     1       3.767  20.938  14.173  1.00  0.00     0.001 C
BRANCH  43  44
HETATM   44  C9  UNL     1       5.199  21.262  14.294  1.00  0.00     0.009 C
BRANCH  44  45
HETATM   45  C10 UNL     1       6.236  20.238  14.029  1.00  0.00     0.099 C
BRANCH  45  46
HETATM   46  C11 UNL     1       7.029  20.641  12.793  1.00  0.00     0.231 C
HETATM   47  N2  UNL     1       8.196  19.912  12.447  1.00  0.00    -0.062 NA
HETATM   48  O2  UNL     1       6.597  21.607  12.144  1.00  0.00    -0.277 OA
ENDBRANCH  45  46
ENDBRANCH  44  45
ENDBRANCH  43  44
ENDBRANCH  42  43
ENDBRANCH  41  42
ENDBRANCH   6  41
TORSDOF 15
ENDMDL