MODEL 2
REMARK VINA RESULT: -5.203977044      2.602      6.924
REMARK  18 active torsions:
REMARK  status: ('A' for Active; 'I' for Inactive)
REMARK    1  A    between atoms: C2_2  and  C3_3
REMARK    2  A    between atoms: C5_5  and  O1_6
REMARK    3  A    between atoms: C7_10  and  C8_11
REMARK    4  A    between atoms: C8_11  and  C10_13
REMARK    5  A    between atoms: C12_15  and  O2_16
REMARK    6  A    between atoms: C13_20  and  C14_21
REMARK    7  A    between atoms: C14_21  and  O3_22
REMARK    8  A    between atoms: C14_21  and  N3_24
REMARK    9  A    between atoms: N3_24  and  C15_25
REMARK   10  A    between atoms: C15_25  and  C16_26
REMARK   11  A    between atoms: C15_25  and  C20_34
REMARK   12  A    between atoms: C16_26  and  C17_27
REMARK   13  A    between atoms: C17_27  and  C18_28
REMARK   14  A    between atoms: C18_28  and  N4_29
REMARK   15  A    between atoms: C23_37  and  N7_38
REMARK   16  A    between atoms: N7_38  and  C24_40
REMARK   17  A    between atoms: N8_44  and  N9_46
REMARK   18  A    between atoms: N9_46  and  N10_48
ROOT
HETATM    1  C3  UNL     1       2.685  20.741  23.689  1.00  0.00     0.042 C
HETATM    2  C4  UNL     1       1.425  21.213  24.321  1.00  0.00     0.094 C
HETATM    3  C5  UNL     1       0.814  20.256  25.279  1.00  0.00     0.118 C
HETATM    4  N1  UNL     1       0.005  19.130  25.041  1.00  0.00    -0.335 N
HETATM    5  C6  UNL     1       0.579  17.856  25.591  1.00  0.00     0.158 C
HETATM    6  C7  UNL     1      -1.255  18.997  24.399  1.00  0.00     0.067 C
HETATM    7  C12 UNL     1      -1.366  19.077  22.958  1.00  0.00     0.160 C
HETATM    8  N2  UNL     1      -0.540  19.598  21.965  1.00  0.00    -0.354 N
ATOM      9  H2  UNL     1      -0.975  20.277  21.340  1.00  0.00     0.162 HD
HETATM   10  C13 UNL     1       0.850  19.307  21.701  1.00  0.00     0.201 C
HETATM   11  C23 UNL     1       1.560  20.606  21.385  1.00  0.00     0.157 C
HETATM   12  C27 UNL     1       2.757  20.812  22.217  1.00  0.00     0.034 C
HETATM   13  N8  UNL     1       3.888  21.046  21.716  1.00  0.00    -0.292 N
ATOM     14  H8  UNL     1       4.598  21.150  22.441  1.00  0.00     0.188 HD
ENDROOT
BRANCH  10  15
HETATM   15  C14 UNL     1       0.859  18.386  20.489  1.00  0.00     0.215 C
BRANCH  15  16
HETATM   16  O3  UNL     1       2.019  17.795  20.317  1.00  0.00    -0.337 OA
ATOM     17  H3  UNL     1       2.241  17.691  19.399  1.00  0.00     0.220 HD
ENDBRANCH  15  16
BRANCH  15  18
HETATM   18  N3  UNL     1      -0.131  18.167  19.672  1.00  0.00    -0.391 NA
BRANCH  18  19
HETATM   19  C15 UNL     1      -1.021  17.968  18.902  1.00  0.00     0.068 C
BRANCH  19  20
HETATM   20  C16 UNL     1      -2.015  16.859  19.102  1.00  0.00     0.070 C
BRANCH  20  21
HETATM   21  C17 UNL     1      -1.402  15.603  19.562  1.00  0.00     0.026 C
BRANCH  21  22
HETATM   22  C18 UNL     1      -0.613  14.924  18.417  1.00  0.00     0.122 C
BRANCH  22  23
HETATM   23  N4  UNL     1      -1.436  14.915  17.250  1.00  0.00    -0.367 N
HETATM   24  C19 UNL     1      -1.348  13.937  16.413  1.00  0.00     0.196 C
HETATM   25  N5  UNL     1      -2.200  13.996  15.262  1.00  0.00    -0.067 NA
HETATM   26  N6  UNL     1      -0.465  12.844  16.595  1.00  0.00    -0.067 NA
ATOM     27  H4  UNL     1      -2.091  15.679  17.078  1.00  0.00     0.161 HD
ENDBRANCH  22  23
ENDBRANCH  21  22
ENDBRANCH  20  21
ENDBRANCH  19  20
BRANCH  19  28
HETATM   28  C20 UNL     1      -1.126  18.865  17.694  1.00  0.00     0.037 C
HETATM   29  C21 UNL     1       0.161  18.881  16.945  1.00  0.00     0.017 C
HETATM   30  C22 UNL     1      -2.283  18.405  16.798  1.00  0.00     0.017 C
ENDBRANCH  19  28
ENDBRANCH  18  19
ENDBRANCH  15  18
ENDBRANCH  10  15
BRANCH  11  31
HETATM   31  N7  UNL     1       1.796  20.747  19.995  1.00  0.00    -0.406 N
ATOM     32  H7  UNL     1       2.495  20.163  19.536  1.00  0.00     0.154 HD
BRANCH  31  33
HETATM   33  C24 UNL     1       1.070  21.689  19.244  1.00  0.00     0.069 C
HETATM   34  C25 UNL     1       0.627  22.800  20.222  1.00  0.00     0.031 C
HETATM   35  C26 UNL     1       1.759  22.361  18.111  1.00  0.00     0.031 C
ENDBRANCH  31  33
ENDBRANCH  11  31
BRANCH   7  36
HETATM   36  O2  UNL     1      -2.462  18.558  22.480  1.00  0.00    -0.345 OA
ATOM     37  H2  UNL     1      -3.219  19.128  22.542  1.00  0.00     0.219 HD
ENDBRANCH   7  36
BRANCH   6  38
HETATM   38  C8  UNL     1      -2.390  19.797  25.059  1.00  0.00     0.036 C
HETATM   39  C9  UNL     1      -2.360  21.246  24.799  1.00  0.00     0.016 C
BRANCH  38  40
HETATM   40  C10 UNL     1      -2.488  19.435  26.525  1.00  0.00     0.006 C
HETATM   41  C11 UNL     1      -2.421  20.655  27.411  1.00  0.00     0.006 C
ENDBRANCH  38  40
ENDBRANCH   6  38
BRANCH   1  42
HETATM   42  C2  UNL     1       3.942  21.356  24.292  1.00  0.00     0.006 C
HETATM   43  C1  UNL     1       3.687  22.651  25.015  1.00  0.00     0.006 C
ENDBRANCH   1  42
BRANCH  13  44
HETATM   44  N9  UNL     1       4.418  21.196  20.497  1.00  0.00    -0.249 N
ATOM     45  H9  UNL     1       4.049  20.604  19.753  1.00  0.00     0.207 HD
BRANCH  44  46
HETATM   46  N10 UNL     1       5.353  22.021  20.182  1.00  0.00    -0.331 N
ATOM     47 2H10 UNL     1       5.098  23.008  20.184  1.00  0.00     0.178 HD
ATOM     48 1H10 UNL     1       6.310  21.769  19.935  1.00  0.00     0.178 HD
ENDBRANCH  44  46
ENDBRANCH  13  44
BRANCH   3  49
HETATM   49  O1  UNL     1       1.070  20.500  26.533  1.00  0.00    -0.349 OA
ATOM     50  H1  UNL     1       1.101  19.731  27.090  1.00  0.00     0.219 HD
ENDBRANCH   3  49
TORSDOF 18
ENDMDL