MODEL 4
REMARK VINA RESULT: -7.010598751      1.429      1.964
REMARK  14 active torsions:
REMARK  status: ('A' for Active; 'I' for Inactive)
REMARK    1  A    between atoms: S1_2  and  C2_3
REMARK    2  A    between atoms: C2_3  and  C3_4
REMARK    3  A    between atoms: C3_4  and  C4_5
REMARK    4  A    between atoms: C4_5  and  C5_6
REMARK    5  A    between atoms: C5_6  and  C6_7
REMARK    6  A    between atoms: C6_7  and  C7_8
REMARK    7  A    between atoms: C13_19  and  O2_20
REMARK    8  A    between atoms: C14_22  and  C15_23
REMARK    9  A    between atoms: C15_23  and  C16_24
REMARK   10  A    between atoms: C16_24  and  C17_25
REMARK   11  A    between atoms: C24_35  and  C25_36
REMARK   12  A    between atoms: C25_36  and  C26_37
REMARK   13  A    between atoms: C26_37  and  C27_38
REMARK   14  A    between atoms: C27_38  and  N4_39
ROOT
HETATM    1  C7  UNL     1      -1.701  19.762  20.687  1.00  0.00     0.177 C
HETATM    2  N1  UNL     1      -0.799  18.774  20.148  1.00  0.00    -0.337 N
ATOM      3  H1  UNL     1      -1.253  18.025  19.625  1.00  0.00     0.164 HD
HETATM    4  C8  UNL     1       0.607  18.671  20.224  1.00  0.00     0.297 C
HETATM    5  O1  UNL     1       1.050  17.546  20.679  1.00  0.00    -0.258 OA
HETATM    6  C9  UNL     1       1.581  19.587  19.886  1.00  0.00    -0.001 C
HETATM    7  C10 UNL     1       2.373  20.326  19.574  1.00  0.00    -0.067 C
HETATM    8  C11 UNL     1       3.333  21.209  19.156  1.00  0.00     0.082 C
HETATM    9  C12 UNL     1       3.258  22.200  18.286  1.00  0.00     0.098 C
HETATM   10  N2  UNL     1       2.218  22.683  17.509  1.00  0.00    -0.348 N
ATOM     11  H2  UNL     1       1.945  23.624  17.791  1.00  0.00     0.167 HD
HETATM   12  C13 UNL     1       1.451  22.225  16.449  1.00  0.00     0.138 C
HETATM   13  C14 UNL     1       0.989  20.873  16.096  1.00  0.00     0.159 C
HETATM   14  N3  UNL     1      -0.343  20.951  15.514  1.00  0.00    -0.347 N
ATOM     15  H3  UNL     1      -0.398  21.088  14.505  1.00  0.00     0.163 HD
HETATM   16  C23 UNL     1      -1.566  20.856  16.212  1.00  0.00     0.241 C
HETATM   17  O3  UNL     1      -2.437  21.704  15.925  1.00  0.00    -0.271 OA
HETATM   18  C24 UNL     1      -1.903  19.844  17.250  1.00  0.00     0.178 C
HETATM   19  N7  UNL     1      -2.721  20.316  18.326  1.00  0.00    -0.341 N
HETATM   20  C29 UNL     1      -4.147  20.551  18.040  1.00  0.00     0.153 C
HETATM   21  C30 UNL     1      -2.333  20.628  19.654  1.00  0.00     0.243 C
HETATM   22  O4  UNL     1      -2.586  21.858  19.971  1.00  0.00    -0.271 OA
ENDROOT
BRANCH  13  23
HETATM   23  C15 UNL     1       1.919  20.376  14.978  1.00  0.00     0.038 C
BRANCH  23  24
HETATM   24  C16 UNL     1       3.343  20.278  15.482  1.00  0.00     0.041 C
BRANCH  24  25
HETATM   25  C17 UNL     1       4.219  20.904  14.460  1.00  0.00    -0.058 A
HETATM   26  C18 UNL     1       5.549  20.587  14.347  1.00  0.00     0.007 A
HETATM   27  C19 UNL     1       6.379  21.163  13.401  1.00  0.00     0.001 A
HETATM   28  C20 UNL     1       5.863  22.095  12.530  1.00  0.00     0.000 A
HETATM   29  C21 UNL     1       4.528  22.439  12.613  1.00  0.00     0.001 A
HETATM   30  C22 UNL     1       3.713  21.840  13.581  1.00  0.00     0.007 A
ENDBRANCH  24  25
ENDBRANCH  23  24
ENDBRANCH  13  23
BRANCH  12  31
HETATM   31  O2  UNL     1       1.045  23.134  15.591  1.00  0.00    -0.348 OA
ATOM     32  H2  UNL     1       0.483  22.827  14.890  1.00  0.00     0.219 HD
ENDBRANCH  12  31
BRANCH  18  33
HETATM   33  C25 UNL     1      -2.302  18.526  16.676  1.00  0.00     0.037 C
BRANCH  33  34
HETATM   34  C26 UNL     1      -1.465  17.339  16.975  1.00  0.00     0.022 C
BRANCH  34  35
HETATM   35  C27 UNL     1      -2.400  16.098  17.068  1.00  0.00     0.122 C
BRANCH  35  36
HETATM   36  N4  UNL     1      -2.034  15.115  16.106  1.00  0.00    -0.367 N
HETATM   37  C28 UNL     1      -1.768  13.888  16.297  1.00  0.00     0.196 C
HETATM   38  N5  UNL     1      -1.411  12.986  15.275  1.00  0.00    -0.067 NA
HETATM   39  N6  UNL     1      -1.828  13.377  17.626  1.00  0.00    -0.067 NA
ATOM     40  H4  UNL     1      -1.977  15.437  15.140  1.00  0.00     0.161 HD
ENDBRANCH  35  36
ENDBRANCH  34  35
ENDBRANCH  33  34
ENDBRANCH  18  33
BRANCH   1  41
HETATM   41  C6  UNL     1      -2.759  19.129  21.571  1.00  0.00     0.035 C
BRANCH  41  42
HETATM   42  C5  UNL     1      -2.274  18.408  22.754  1.00  0.00     0.002 C
BRANCH  42  43
HETATM   43  C4  UNL     1      -1.450  19.214  23.742  1.00  0.00     0.001 C
BRANCH  43  44
HETATM   44  C3  UNL     1      -0.101  18.587  23.954  1.00  0.00     0.010 C
BRANCH  44  45
HETATM   45  C2  UNL     1      -0.068  17.710  25.148  1.00  0.00     0.073 C
BRANCH  45  46
HETATM   46  S1  UNL     1      -0.455  18.531  26.682  1.00  0.00    -0.173 SA
HETATM   47  C1  UNL     1       0.981  18.653  27.755  1.00  0.00     0.089 C
ENDBRANCH  45  46
ENDBRANCH  44  45
ENDBRANCH  43  44
ENDBRANCH  42  43
ENDBRANCH  41  42
ENDBRANCH   1  41
TORSDOF 14
ENDMDL