MODEL 2
REMARK VINA RESULT: -6.284283955      2.639      7.225
REMARK  15 active torsions:
REMARK  status: ('A' for Active; 'I' for Inactive)
REMARK    1  A    between atoms: C2_2  and  C4_4
REMARK    2  A    between atoms: C4_4  and  C5_5
REMARK    3  A    between atoms: C6_8  and  O1_9
REMARK    4  A    between atoms: C12_18  and  C13_19
REMARK    5  A    between atoms: C13_19  and  C14_20
REMARK    6  A    between atoms: C14_20  and  C15_21
REMARK    7  A    between atoms: C15_21  and  N3_22
REMARK       I    between atoms: C16_24  and  N5_26
REMARK    8  A    between atoms: C18_31  and  C19_32
REMARK    9  A    between atoms: C19_32  and  C20_33
REMARK   10  A    between atoms: C20_33  and  C21_34
REMARK   11  A    between atoms: C21_34  and  C22_35
REMARK   12  A    between atoms: C22_35  and  N8_36
REMARK   13  A    between atoms: C24_44  and  C25_45
REMARK   14  A    between atoms: C25_45  and  C26_46
REMARK   15  A    between atoms: C30_51  and  O4_52
ROOT
HETATM    1  C5  UNL     1       1.078  21.255  21.525  1.00  0.00     0.062 C
HETATM    2  N1  UNL     1       1.003  22.082  20.350  1.00  0.00    -0.335 N
ATOM      3  H1  UNL     1       1.526  22.948  20.474  1.00  0.00     0.168 HD
HETATM    4  C6  UNL     1       0.414  22.026  19.091  1.00  0.00     0.163 C
HETATM    5  C7  UNL     1       0.652  21.400  17.807  1.00  0.00     0.065 C
HETATM    6  C8  UNL     1       1.861  22.019  17.080  1.00  0.00     0.063 C
HETATM    7  C9  UNL     1       2.435  20.837  16.392  1.00  0.00     0.026 C
HETATM    8  C10 UNL     1       1.230  19.897  16.221  1.00  0.00     0.133 C
HETATM    9  N2  UNL     1       0.607  20.003  17.585  1.00  0.00    -0.314 N
HETATM   10  C11 UNL     1       0.148  18.895  18.272  1.00  0.00     0.252 C
HETATM   11  O2  UNL     1       1.065  18.001  18.489  1.00  0.00    -0.268 OA
HETATM   12  C12 UNL     1      -1.157  18.481  18.819  1.00  0.00     0.011 C
HETATM   13  C18 UNL     1      -0.966  17.707  20.061  1.00  0.00     0.119 C
HETATM   14  N9  UNL     1      -2.005  17.814  21.060  1.00  0.00    -0.351 N
ATOM     15  H9  UNL     1      -2.969  17.844  20.726  1.00  0.00     0.163 HD
HETATM   16  C23 UNL     1      -1.806  17.881  22.456  1.00  0.00     0.241 C
HETATM   17  O3  UNL     1      -2.478  17.083  23.213  1.00  0.00    -0.271 OA
HETATM   18  C24 UNL     1      -0.856  18.824  23.155  1.00  0.00     0.178 C
HETATM   19  N10 UNL     1      -1.080  20.155  22.640  1.00  0.00    -0.351 N
HETATM   20  C29 UNL     1      -2.558  20.422  22.553  1.00  0.00     0.152 C
HETATM   21  C30 UNL     1      -0.195  21.152  22.257  1.00  0.00     0.161 C
ENDROOT
BRANCH  12  22
HETATM   22  C13 UNL     1      -2.295  19.404  18.700  1.00  0.00     0.043 C
BRANCH  22  23
HETATM   23  C14 UNL     1      -3.237  19.067  17.555  1.00  0.00     0.024 C
BRANCH  23  24
HETATM   24  C15 UNL     1      -2.832  19.782  16.282  1.00  0.00     0.122 C
BRANCH  24  25
HETATM   25  N3  UNL     1      -2.586  21.158  16.670  1.00  0.00    -0.364 N
HETATM   26  C16 UNL     1      -2.175  22.022  15.808  1.00  0.00     0.190 C
HETATM   27  N4  UNL     1      -1.922  23.380  16.141  1.00  0.00    -0.063 NA
HETATM   28  N5  UNL     1      -1.963  21.616  14.465  1.00  0.00    -0.307 N
HETATM   29  C17 UNL     1      -2.334  22.445  13.543  1.00  0.00     0.203 C
ATOM     30  H5  UNL     1      -1.539  20.717  14.237  1.00  0.00     0.170 HD
HETATM   31  N6  UNL     1      -2.126  22.048  12.193  1.00  0.00    -0.066 NA
HETATM   32  N7  UNL     1      -2.923  23.697  13.777  1.00  0.00    -0.066 NA
ATOM     33  H3  UNL     1      -2.741  21.444  17.637  1.00  0.00     0.162 HD
ENDBRANCH  24  25
ENDBRANCH  23  24
ENDBRANCH  22  23
ENDBRANCH  12  22
BRANCH  13  34
HETATM   34  C19 UNL     1      -0.785  16.195  19.844  1.00  0.00     0.030 C
BRANCH  34  35
HETATM   35  C20 UNL     1      -1.742  15.615  18.860  1.00  0.00     0.004 C
BRANCH  35  36
HETATM   36  C21 UNL     1      -1.002  14.868  17.741  1.00  0.00     0.027 C
BRANCH  36  37
HETATM   37  C22 UNL     1      -1.904  14.599  16.567  1.00  0.00     0.229 C
BRANCH  37  38
HETATM   38  N8  UNL     1      -1.785  13.185  16.204  1.00  0.00    -0.079 N
ATOM     39  H83 UNL     1      -1.995  12.562  16.985  1.00  0.00     0.274 HD
ATOM     40  H82 UNL     1      -2.528  12.878  15.576  1.00  0.00     0.274 HD
ATOM     41  H81 UNL     1      -0.854  13.028  15.817  1.00  0.00     0.274 HD
ENDBRANCH  37  38
ENDBRANCH  36  37
ENDBRANCH  35  36
ENDBRANCH  34  35
ENDBRANCH  13  34
BRANCH   4  42
HETATM   42  O1  UNL     1      -0.691  22.760  19.010  1.00  0.00    -0.345 OA
ATOM     43  H1  UNL     1      -0.545  23.596  18.581  1.00  0.00     0.219 HD
ENDBRANCH   4  42
BRANCH  18  44
HETATM   44  C25 UNL     1      -1.285  18.823  24.641  1.00  0.00     0.038 C
BRANCH  44  45
HETATM   45  C26 UNL     1      -0.166  18.438  25.555  1.00  0.00    -0.020 C
HETATM   46  C27 UNL     1      -0.590  18.402  27.005  1.00  0.00     0.009 C
HETATM   47  C28 UNL     1       0.965  19.455  25.407  1.00  0.00     0.009 C
ENDBRANCH  44  45
ENDBRANCH  18  44
BRANCH   1  48
HETATM   48  C4  UNL     1       2.044  20.155  21.595  1.00  0.00     0.065 C
BRANCH  48  49
HETATM   49  C2  UNL     1       3.195  20.187  20.611  1.00  0.00    -0.017 C
HETATM   50  C1  UNL     1       3.566  18.900  19.995  1.00  0.00     0.010 C
HETATM   51  C3  UNL     1       4.371  20.948  21.185  1.00  0.00     0.010 C
ENDBRANCH  48  49
ENDBRANCH   1  48
BRANCH  21  52
HETATM   52  O4  UNL     1      -0.606  22.333  22.655  1.00  0.00    -0.345 OA
ATOM     53  H4  UNL     1      -1.171  22.258  23.415  1.00  0.00     0.219 HD
ENDBRANCH  21  52
TORSDOF 15
ENDMDL