MODEL 2
REMARK VINA RESULT: -6.276305220      3.783      6.029
REMARK  13 active torsions:
REMARK  status: ('A' for Active; 'I' for Inactive)
REMARK    1  A    between atoms: C2_2  and  C3_3
REMARK    2  A    between atoms: C3_3  and  C4_4
REMARK    3  A    between atoms: C4_4  and  C5_5
REMARK    4  A    between atoms: C5_5  and  C6_6
REMARK    5  A    between atoms: C6_6  and  C7_7
REMARK    6  A    between atoms: C9_12  and  C10_13
REMARK    7  A    between atoms: C10_13  and  C11_14
REMARK    8  A    between atoms: C16_21  and  C17_22
REMARK    9  A    between atoms: C17_22  and  C18_23
REMARK   10  A    between atoms: C22_30  and  C23_31
REMARK   11  A    between atoms: C23_31  and  C24_32
REMARK   12  A    between atoms: C26_39  and  C27_40
REMARK   13  A    between atoms: C29_42  and  O6_43
REMARK       I    between atoms: N6_45  and  C30_46
ROOT
HETATM    1  C7  UNL     1       0.098  17.771  19.911  1.00  0.00     0.090 C
HETATM    2  C8  UNL     1      -1.087  18.186  20.631  1.00  0.00     0.265 C
HETATM    3  O1  UNL     1      -2.242  17.826  20.180  1.00  0.00    -0.266 OA
HETATM    4  N1  UNL     1      -1.195  18.963  21.814  1.00  0.00    -0.343 N
ATOM      5  H1  UNL     1      -1.697  18.529  22.589  1.00  0.00     0.163 HD
HETATM    6  C9  UNL     1      -0.685  20.290  22.056  1.00  0.00     0.177 C
HETATM    7  C14 UNL     1      -1.638  21.109  22.895  1.00  0.00     0.243 C
HETATM    8  O2  UNL     1      -1.635  20.758  24.130  1.00  0.00    -0.271 OA
HETATM    9  N2  UNL     1      -2.466  22.144  22.492  1.00  0.00    -0.341 N
HETATM   10  C15 UNL     1      -2.492  23.324  23.414  1.00  0.00     0.153 C
HETATM   11  C16 UNL     1      -3.268  22.267  21.300  1.00  0.00     0.179 C
HETATM   12  C21 UNL     1      -2.346  22.669  20.183  1.00  0.00     0.241 C
HETATM   13  O3  UNL     1      -1.677  23.732  20.512  1.00  0.00    -0.271 OA
HETATM   14  N3  UNL     1      -2.107  22.134  18.952  1.00  0.00    -0.346 N
ATOM     15  H3  UNL     1      -1.131  21.875  18.806  1.00  0.00     0.163 HD
HETATM   16  C22 UNL     1      -2.956  21.858  17.808  1.00  0.00     0.185 C
HETATM   17  C25 UNL     1      -2.136  21.647  16.586  1.00  0.00     0.241 C
HETATM   18  O5  UNL     1      -1.993  22.515  15.677  1.00  0.00    -0.271 OA
HETATM   19  N5  UNL     1      -1.466  20.431  16.399  1.00  0.00    -0.347 N
ATOM     20  H5  UNL     1      -0.879  20.313  15.573  1.00  0.00     0.163 HD
HETATM   21  C26 UNL     1      -1.580  19.318  17.355  1.00  0.00     0.159 C
HETATM   22  C29 UNL     1      -0.213  18.802  17.580  1.00  0.00     0.149 C
HETATM   23  N6  UNL     1       0.509  18.565  18.756  1.00  0.00    -0.246 N
HETATM   24  C30 UNL     1       1.845  19.134  18.763  1.00  0.00     0.341 C
HETATM   25  N7  UNL     1       2.646  18.822  19.928  1.00  0.00    -0.039 NA
HETATM   26  O7  UNL     1       2.315  19.839  17.860  1.00  0.00    -0.250 OA
ENDROOT
BRANCH   1  27
HETATM   27  C6  UNL     1       0.258  16.293  19.593  1.00  0.00     0.064 C
BRANCH  27  28
HETATM   28  C5  UNL     1      -0.565  15.713  18.536  1.00  0.00     0.006 C
BRANCH  28  29
HETATM   29  C4  UNL     1      -0.421  14.320  18.097  1.00  0.00     0.000 C
BRANCH  29  30
HETATM   30  C3  UNL     1      -1.733  13.778  17.565  1.00  0.00    -0.000 C
BRANCH  30  31
HETATM   31  C2  UNL     1      -2.073  14.454  16.238  1.00  0.00    -0.005 C
HETATM   32  C1  UNL     1      -1.702  13.608  15.060  1.00  0.00     0.005 C
ENDBRANCH  30  31
ENDBRANCH  29  30
ENDBRANCH  28  29
ENDBRANCH  27  28
ENDBRANCH   1  27
BRANCH  22  33
HETATM   33  O6  UNL     1       0.365  18.546  16.439  1.00  0.00    -0.347 OA
ATOM     34  H6  UNL     1      -0.271  18.215  15.817  1.00  0.00     0.219 HD
ENDBRANCH  22  33
BRANCH   6  35
HETATM   35  C10 UNL     1       0.562  20.092  22.946  1.00  0.00     0.038 C
BRANCH  35  36
HETATM   36  C11 UNL     1       1.497  21.254  22.849  1.00  0.00    -0.020 C
HETATM   37  C12 UNL     1       1.592  21.876  21.494  1.00  0.00     0.009 C
HETATM   38  C13 UNL     1       2.882  20.736  23.235  1.00  0.00     0.009 C
ENDBRANCH  35  36
ENDBRANCH   6  35
BRANCH  21  39
HETATM   39  C27 UNL     1      -2.412  18.275  16.638  1.00  0.00     0.029 C
HETATM   40  C28 UNL     1      -3.879  18.390  16.839  1.00  0.00     0.007 C
ENDBRANCH  21  39
BRANCH  11  41
HETATM   41  C17 UNL     1      -4.275  21.266  20.994  1.00  0.00     0.039 C
BRANCH  41  42
HETATM   42  C18 UNL     1      -5.717  21.547  21.252  1.00  0.00    -0.020 C
HETATM   43  C19 UNL     1      -6.324  20.879  22.439  1.00  0.00     0.009 C
HETATM   44  C20 UNL     1      -6.010  23.045  21.259  1.00  0.00     0.009 C
ENDBRANCH  41  42
ENDBRANCH  11  41
BRANCH  16  45
HETATM   45  C23 UNL     1      -3.913  22.990  17.508  1.00  0.00     0.134 C
BRANCH  45  46
HETATM   46  C24 UNL     1      -5.298  22.483  17.597  1.00  0.00     0.233 C
HETATM   47  N4  UNL     1      -6.394  23.417  17.566  1.00  0.00    -0.062 NA
HETATM   48  O4  UNL     1      -5.642  21.282  17.702  1.00  0.00    -0.277 OA
ENDBRANCH  45  46
ENDBRANCH  16  45
TORSDOF 13
ENDMDL