MODEL 5
REMARK VINA RESULT: -6.620872907      0.878      1.405
REMARK  14 active torsions:
REMARK  status: ('A' for Active; 'I' for Inactive)
REMARK    1  A    between atoms: C2_2  and  C3_3
REMARK    2  A    between atoms: C3_3  and  C4_4
REMARK    3  A    between atoms: C4_4  and  O1_5
REMARK    4  A    between atoms: C4_4  and  C5_7
REMARK    5  A    between atoms: C5_7  and  C6_8
REMARK    6  A    between atoms: C6_8  and  C7_9
REMARK    7  A    between atoms: C7_9  and  C8_10
REMARK    8  A    between atoms: C8_10  and  C9_11
REMARK    9  A    between atoms: C9_11  and  C10_12
REMARK   10  A    between atoms: N3_24  and  N4_26
REMARK   11  A    between atoms: C18_35  and  C19_36
REMARK   12  A    between atoms: C19_36  and  C20_37
REMARK   13  A    between atoms: C24_44  and  C25_45
REMARK   14  A    between atoms: C25_45  and  C27_47
ROOT
HETATM    1  C10 UNL     1       2.419  22.286  18.669  1.00  0.00     0.176 C
HETATM    2  N1  UNL     1       1.038  22.700  18.798  1.00  0.00    -0.346 N
ATOM      3  H1  UNL     1       0.799  23.274  19.607  1.00  0.00     0.163 HD
HETATM    4  C11 UNL     1      -0.009  22.382  17.903  1.00  0.00     0.241 C
HETATM    5  O2  UNL     1      -0.720  23.308  17.370  1.00  0.00    -0.271 OA
HETATM    6  C12 UNL     1      -0.365  20.997  17.514  1.00  0.00     0.175 C
HETATM    7  C13 UNL     1      -0.310  20.820  16.006  1.00  0.00     0.042 C
HETATM    8  N2  UNL     1      -1.694  20.663  18.023  1.00  0.00    -0.337 N
HETATM    9  C14 UNL     1      -2.323  21.647  18.919  1.00  0.00     0.154 C
HETATM   10  C15 UNL     1      -2.413  19.499  17.725  1.00  0.00     0.289 C
HETATM   11  O3  UNL     1      -3.693  19.664  17.653  1.00  0.00    -0.264 OA
HETATM   12  C16 UNL     1      -1.930  18.150  17.487  1.00  0.00     0.193 C
HETATM   13  N3  UNL     1      -2.367  17.666  16.310  1.00  0.00    -0.267 N
ATOM     14  H3  UNL     1      -2.961  18.258  15.730  1.00  0.00     0.190 HD
HETATM   15  N6  UNL     1      -1.105  17.374  18.320  1.00  0.00    -0.306 N
ATOM     16  H6  UNL     1      -0.358  16.891  17.822  1.00  0.00     0.170 HD
HETATM   17  C17 UNL     1      -1.106  17.135  19.699  1.00  0.00     0.246 C
HETATM   18  O4  UNL     1      -1.051  15.933  20.184  1.00  0.00    -0.271 OA
HETATM   19  C18 UNL     1      -1.166  18.123  20.805  1.00  0.00     0.177 C
HETATM   20  N7  UNL     1       0.196  18.159  21.347  1.00  0.00    -0.346 N
ATOM     21  H7  UNL     1       0.454  17.389  21.964  1.00  0.00     0.163 HD
HETATM   22  C23 UNL     1       1.172  19.113  21.120  1.00  0.00     0.241 C
HETATM   23  O5  UNL     1       2.327  18.701  20.728  1.00  0.00    -0.271 OA
HETATM   24  C24 UNL     1       1.052  20.588  21.277  1.00  0.00     0.180 C
HETATM   25  N8  UNL     1       2.316  21.259  21.042  1.00  0.00    -0.346 N
ATOM     26  H8  UNL     1       2.818  21.586  21.868  1.00  0.00     0.163 HD
HETATM   27  C29 UNL     1       2.924  21.508  19.806  1.00  0.00     0.241 C
HETATM   28  O6  UNL     1       4.090  20.990  19.616  1.00  0.00    -0.271 OA
ENDROOT
BRANCH   1  29
HETATM   29  C9  UNL     1       3.208  23.521  18.324  1.00  0.00     0.035 C
BRANCH  29  30
HETATM   30  C8  UNL     1       3.306  23.814  16.872  1.00  0.00     0.002 C
BRANCH  30  31
HETATM   31  C7  UNL     1       4.757  23.882  16.401  1.00  0.00     0.000 C
BRANCH  31  32
HETATM   32  C6  UNL     1       4.873  24.319  14.989  1.00  0.00     0.006 C
BRANCH  32  33
HETATM   33  C5  UNL     1       5.910  23.571  14.162  1.00  0.00     0.064 C
BRANCH  33  34
HETATM   34  C4  UNL     1       5.807  22.125  14.229  1.00  0.00     0.043 C
BRANCH  34  35
HETATM   35  C3  UNL     1       4.799  21.292  13.694  1.00  0.00     0.027 C
BRANCH  35  36
HETATM   36  C2  UNL     1       3.598  21.085  14.115  1.00  0.00    -0.029 C
HETATM   37  C1  UNL     1       3.202  20.492  15.398  1.00  0.00     0.036 C
ENDBRANCH  35  36
ENDBRANCH  34  35
BRANCH  34  38
HETATM   38  O1  UNL     1       6.769  21.511  14.862  1.00  0.00    -0.365 OA
ATOM     39  H1  UNL     1       6.745  20.562  14.822  1.00  0.00     0.217 HD
ENDBRANCH  34  38
ENDBRANCH  33  34
ENDBRANCH  32  33
ENDBRANCH  31  32
ENDBRANCH  30  31
ENDBRANCH  29  30
ENDBRANCH   1  29
BRANCH  24  40
HETATM   40  C25 UNL     1       0.567  20.918  22.695  1.00  0.00     0.013 C
HETATM   41  C26 UNL     1       0.072  22.320  22.742  1.00  0.00     0.012 C
BRANCH  40  42
HETATM   42  C27 UNL     1       1.648  20.590  23.677  1.00  0.00     0.002 C
HETATM   43  C28 UNL     1       1.103  19.924  24.918  1.00  0.00     0.005 C
ENDBRANCH  40  42
ENDBRANCH  24  40
BRANCH  19  44
HETATM   44  C19 UNL     1      -2.020  17.566  21.941  1.00  0.00     0.038 C
BRANCH  44  45
HETATM   45  C20 UNL     1      -1.820  18.284  23.243  1.00  0.00    -0.020 C
HETATM   46  C21 UNL     1      -2.013  17.418  24.439  1.00  0.00     0.009 C
HETATM   47  C22 UNL     1      -2.859  19.401  23.282  1.00  0.00     0.009 C
ENDBRANCH  44  45
ENDBRANCH  19  44
BRANCH  13  48
HETATM   48  N4  UNL     1      -2.047  16.413  15.859  1.00  0.00    -0.248 N
HETATM   49  N5  UNL     1      -2.740  15.414  16.202  1.00  0.00    -0.331 N
ATOM     50  H52 UNL     1      -3.540  15.559  16.818  1.00  0.00     0.178 HD
ATOM     51  H51 UNL     1      -2.502  14.481  15.865  1.00  0.00     0.178 HD
ATOM     52  H4  UNL     1      -1.244  16.287  15.242  1.00  0.00     0.207 HD
ENDBRANCH  13  48
TORSDOF 14
ENDMDL