MODEL 1
REMARK VINA RESULT: -6.256274854      0.000      0.000
REMARK  16 active torsions:
REMARK  status: ('A' for Active; 'I' for Inactive)
REMARK    1  A    between atoms: C2_2  and  C4_4
REMARK    2  A    between atoms: C4_4  and  C5_5
REMARK    3  A    between atoms: N2_12  and  C9_13
REMARK    4  A    between atoms: C9_13  and  C10_14
REMARK    5  A    between atoms: C13_17  and  O2_18
REMARK    6  A    between atoms: C14_20  and  C15_21
REMARK    7  A    between atoms: C15_21  and  C16_22
REMARK    8  A    between atoms: C16_22  and  C17_23
REMARK    9  A    between atoms: C17_23  and  C18_24
REMARK   10  A    between atoms: C18_24  and  N3_25
REMARK   11  A    between atoms: C19_31  and  O3_32
REMARK   12  A    between atoms: N5_34  and  C20_35
REMARK   13  A    between atoms: C20_35  and  C22_37
REMARK   14  A    between atoms: C24_42  and  C25_43
REMARK   15  A    between atoms: C25_43  and  C26_44
REMARK   16  A    between atoms: C29_49  and  O6_50
ROOT
HETATM    1  C5  UNL     1       1.240  21.333  22.097  1.00  0.00     0.159 C
HETATM    2  N1  UNL     1       1.455  19.936  21.893  1.00  0.00    -0.347 N
ATOM      3  H1  UNL     1       1.723  19.419  22.731  1.00  0.00     0.163 HD
HETATM    4  C6  UNL     1       1.359  19.169  20.747  1.00  0.00     0.241 C
HETATM    5  O1  UNL     1       1.963  18.046  20.717  1.00  0.00    -0.271 OA
HETATM    6  C7  UNL     1       0.608  19.528  19.518  1.00  0.00     0.178 C
HETATM    7  C8  UNL     1       0.867  18.589  18.398  1.00  0.00     0.043 C
HETATM    8  N2  UNL     1      -0.766  19.853  19.766  1.00  0.00    -0.330 N
HETATM    9  C13 UNL     1      -1.596  19.363  20.811  1.00  0.00     0.141 C
HETATM   10  C14 UNL     1      -1.929  18.052  21.334  1.00  0.00     0.160 C
HETATM   11  N4  UNL     1      -1.471  17.732  22.654  1.00  0.00    -0.344 N
ATOM     12  H4  UNL     1      -0.537  17.324  22.658  1.00  0.00     0.164 HD
HETATM   13  C19 UNL     1      -2.012  17.852  23.933  1.00  0.00     0.223 C
HETATM   14  N5  UNL     1      -2.275  19.003  24.751  1.00  0.00    -0.265 N
HETATM   15  C23 UNL     1      -1.348  20.086  24.934  1.00  0.00     0.274 C
HETATM   16  O5  UNL     1      -1.886  21.241  24.707  1.00  0.00    -0.266 OA
HETATM   17  C24 UNL     1       0.036  20.147  25.314  1.00  0.00     0.080 C
HETATM   18  N7  UNL     1       0.890  21.115  24.685  1.00  0.00    -0.338 N
ATOM     19  H7  UNL     1       1.660  21.398  25.292  1.00  0.00     0.167 HD
HETATM   20  C29 UNL     1       0.931  21.757  23.471  1.00  0.00     0.139 C
ENDROOT
BRANCH  10  21
HETATM   21  C15 UNL     1      -1.626  16.869  20.394  1.00  0.00     0.034 C
BRANCH  21  22
HETATM   22  C16 UNL     1      -2.371  17.200  19.081  1.00  0.00     0.004 C
BRANCH  22  23
HETATM   23  C17 UNL     1      -2.367  16.042  18.137  1.00  0.00     0.027 C
BRANCH  23  24
HETATM   24  C18 UNL     1      -1.645  16.343  16.840  1.00  0.00     0.229 C
BRANCH  24  25
HETATM   25  N3  UNL     1      -2.255  17.517  16.203  1.00  0.00    -0.079 N
ATOM     26  H33 UNL     1      -2.903  17.258  15.458  1.00  0.00     0.274 HD
ATOM     27  H32 UNL     1      -2.920  17.987  16.817  1.00  0.00     0.274 HD
ATOM     28  H31 UNL     1      -1.521  18.145  15.874  1.00  0.00     0.274 HD
ENDBRANCH  24  25
ENDBRANCH  23  24
ENDBRANCH  22  23
ENDBRANCH  21  22
ENDBRANCH  10  21
BRANCH   9  29
HETATM   29  O2  UNL     1      -2.192  20.366  21.432  1.00  0.00    -0.348 OA
ATOM     30  H2  UNL     1      -2.217  20.206  22.368  1.00  0.00     0.219 HD
ENDBRANCH   9  29
BRANCH   8  31
HETATM   31  C9  UNL     1      -1.333  20.921  18.947  1.00  0.00     0.070 C
BRANCH  31  32
HETATM   32  C10 UNL     1      -2.161  20.650  17.796  1.00  0.00     0.016 C
HETATM   33  C11 UNL     1      -3.617  21.072  18.205  1.00  0.00     0.015 C
HETATM   34  C12 UNL     1      -1.934  21.445  16.545  1.00  0.00     0.015 C
ENDBRANCH  31  32
ENDBRANCH   8  31
BRANCH  13  35
HETATM   35  O3  UNL     1      -2.359  16.740  24.559  1.00  0.00    -0.332 OA
ATOM     36  H3  UNL     1      -3.261  16.659  24.846  1.00  0.00     0.220 HD
ENDBRANCH  13  35
BRANCH  14  37
HETATM   37  C20 UNL     1      -3.568  19.024  25.423  1.00  0.00     0.181 C
HETATM   38  C21 UNL     1      -3.676  18.075  26.591  1.00  0.00     0.042 C
BRANCH  37  39
HETATM   39  C22 UNL     1      -4.748  18.755  24.578  1.00  0.00     0.254 C
HETATM   40  N6  UNL     1      -5.598  17.627  24.834  1.00  0.00    -0.060 NA
HETATM   41  O4  UNL     1      -5.042  19.483  23.630  1.00  0.00    -0.275 OA
ENDBRANCH  37  39
ENDBRANCH  14  37
BRANCH  17  42
HETATM   42  C25 UNL     1       0.799  18.939  25.683  1.00  0.00     0.067 C
BRANCH  42  43
HETATM   43  C26 UNL     1       1.006  18.742  27.157  1.00  0.00    -0.017 C
HETATM   44  C27 UNL     1      -0.314  18.372  27.801  1.00  0.00     0.010 C
HETATM   45  C28 UNL     1       1.408  20.091  27.783  1.00  0.00     0.010 C
ENDBRANCH  42  43
ENDBRANCH  17  42
BRANCH   1  46
HETATM   46  C4  UNL     1       2.406  22.078  21.485  1.00  0.00     0.037 C
BRANCH  46  47
HETATM   47  C2  UNL     1       3.748  21.486  21.643  1.00  0.00    -0.020 C
HETATM   48  C1  UNL     1       4.364  21.423  20.223  1.00  0.00     0.009 C
HETATM   49  C3  UNL     1       4.718  22.238  22.512  1.00  0.00     0.009 C
ENDBRANCH  46  47
ENDBRANCH   1  46
BRANCH  20  50
HETATM   50  O6  UNL     1       0.638  23.027  23.495  1.00  0.00    -0.348 OA
ATOM     51  H6  UNL     1       0.313  23.273  24.353  1.00  0.00     0.219 HD
ENDBRANCH  20  50
TORSDOF 16
ENDMDL