MODEL 1
REMARK VINA RESULT: -6.708034415      0.000      0.000
REMARK  11 active torsions:
REMARK  status: ('A' for Active; 'I' for Inactive)
REMARK    1  A    between atoms: C2_2  and  C3_3
REMARK    2  A    between atoms: C3_3  and  C4_4
REMARK    3  A    between atoms: C4_4  and  C5_5
REMARK    4  A    between atoms: C12_17  and  C13_18
REMARK    5  A    between atoms: C17_25  and  C18_26
REMARK    6  A    between atoms: C18_26  and  C19_27
REMARK    7  A    between atoms: C19_27  and  C20_28
REMARK    8  A    between atoms: C24_34  and  C25_35
REMARK    9  A    between atoms: C25_35  and  C26_36
REMARK   10  A    between atoms: C26_36  and  C27_37
REMARK   11  A    between atoms: C27_37  and  N5_38
ROOT
HETATM    1  C5  UNL     1      -1.403  19.193  23.428  1.00  0.00     0.178 C
HETATM    2  N1  UNL     1       0.046  19.193  23.392  1.00  0.00    -0.346 N
ATOM      3  H1  UNL     1       0.501  18.302  23.192  1.00  0.00     0.163 HD
HETATM    4  C6  UNL     1       0.883  20.296  23.604  1.00  0.00     0.241 C
HETATM    5  O1  UNL     1       1.922  20.056  24.315  1.00  0.00    -0.271 OA
HETATM    6  C7  UNL     1       0.695  21.654  23.109  1.00  0.00     0.179 C
HETATM    7  C8  UNL     1      -0.140  22.518  24.078  1.00  0.00     0.037 C
HETATM    8  C9  UNL     1       0.848  22.558  25.222  1.00  0.00     0.022 C
HETATM    9  C10 UNL     1       2.157  22.724  24.527  1.00  0.00     0.127 C
HETATM   10  N2  UNL     1       1.869  22.490  23.107  1.00  0.00    -0.337 N
HETATM   11  C11 UNL     1       2.563  22.999  21.997  1.00  0.00     0.243 C
HETATM   12  O2  UNL     1       2.811  24.273  21.915  1.00  0.00    -0.271 OA
HETATM   13  C12 UNL     1       3.088  22.255  20.835  1.00  0.00     0.180 C
HETATM   14  N3  UNL     1       2.875  20.837  20.858  1.00  0.00    -0.346 N
ATOM     15  H3  UNL     1       3.274  20.356  21.665  1.00  0.00     0.163 HD
HETATM   16  C16 UNL     1       2.208  20.009  19.949  1.00  0.00     0.241 C
HETATM   17  O3  UNL     1       2.874  19.029  19.437  1.00  0.00    -0.271 OA
HETATM   18  C17 UNL     1       0.795  20.102  19.476  1.00  0.00     0.178 C
HETATM   19  N4  UNL     1       0.514  19.119  18.459  1.00  0.00    -0.342 N
HETATM   20  C22 UNL     1       0.866  19.432  17.088  1.00  0.00     0.153 C
HETATM   21  C23 UNL     1      -0.059  17.834  18.672  1.00  0.00     0.241 C
HETATM   22  O4  UNL     1       0.259  16.916  17.810  1.00  0.00    -0.271 OA
HETATM   23  C24 UNL     1      -0.951  17.382  19.712  1.00  0.00     0.191 C
HETATM   24  N8  UNL     1      -1.853  18.340  20.284  1.00  0.00    -0.124 NA
HETATM   25  N9  UNL     1      -2.448  17.900  21.457  1.00  0.00    -0.271 N
ATOM     26  H9  UNL     1      -3.369  17.473  21.357  1.00  0.00     0.185 HD
HETATM   27  C29 UNL     1      -1.944  17.968  22.754  1.00  0.00     0.256 C
HETATM   28  O5  UNL     1      -1.938  16.888  23.443  1.00  0.00    -0.270 OA
ENDROOT
BRANCH  23  29
HETATM   29  C25 UNL     1      -1.820  16.243  19.194  1.00  0.00     0.034 C
BRANCH  29  30
HETATM   30  C26 UNL     1      -2.786  16.653  18.136  1.00  0.00     0.022 C
BRANCH  30  31
HETATM   31  C27 UNL     1      -2.703  15.614  17.016  1.00  0.00     0.122 C
BRANCH  31  32
HETATM   32  N5  UNL     1      -1.707  14.619  17.301  1.00  0.00    -0.367 N
HETATM   33  C28 UNL     1      -1.328  13.777  16.402  1.00  0.00     0.196 C
HETATM   34  N6  UNL     1      -1.890  13.811  15.096  1.00  0.00    -0.067 NA
HETATM   35  N7  UNL     1      -0.346  12.791  16.675  1.00  0.00    -0.067 NA
ATOM     36  H5  UNL     1      -1.292  14.579  18.232  1.00  0.00     0.161 HD
ENDBRANCH  31  32
ENDBRANCH  30  31
ENDBRANCH  29  30
ENDBRANCH  23  29
BRANCH  18  37
HETATM   37  C18 UNL     1       0.433  21.482  18.979  1.00  0.00     0.035 C
BRANCH  37  38
HETATM   38  C19 UNL     1      -1.012  21.797  19.299  1.00  0.00     0.002 C
BRANCH  38  39
HETATM   39  C20 UNL     1      -1.818  21.954  17.999  1.00  0.00    -0.004 C
HETATM   40  C21 UNL     1      -2.688  20.737  17.774  1.00  0.00     0.005 C
ENDBRANCH  38  39
ENDBRANCH  37  38
ENDBRANCH  18  37
BRANCH   1  41
HETATM   41  C4  UNL     1      -1.772  19.096  24.920  1.00  0.00     0.035 C
BRANCH  41  42
HETATM   42  C3  UNL     1      -3.130  19.782  25.046  1.00  0.00     0.002 C
BRANCH  42  43
HETATM   43  C2  UNL     1      -4.044  18.829  25.818  1.00  0.00    -0.004 C
HETATM   44  C1  UNL     1      -5.074  18.226  24.880  1.00  0.00     0.005 C
ENDBRANCH  42  43
ENDBRANCH  41  42
ENDBRANCH   1  41
BRANCH  13  45
HETATM   45  C13 UNL     1       4.610  22.432  20.747  1.00  0.00     0.009 C
HETATM   46  C14 UNL     1       5.235  21.446  21.710  1.00  0.00     0.012 C
HETATM   47  C15 UNL     1       5.153  22.183  19.385  1.00  0.00     0.012 C
ENDBRANCH  13  45
TORSDOF 11
ENDMDL