MODEL 1
REMARK VINA RESULT: -6.355047578      0.000      0.000
REMARK  13 active torsions:
REMARK  status: ('A' for Active; 'I' for Inactive)
REMARK    1  A    between atoms: C3_3  and  C4_4
REMARK    2  A    between atoms: C4_4  and  C5_5
REMARK    3  A    between atoms: C5_5  and  N1_6
REMARK    4  A    between atoms: C8_9  and  C9_10
REMARK       I    between atoms: C9_10  and  N2_12
REMARK    5  A    between atoms: N2_12  and  C10_14
REMARK    6  A    between atoms: C10_14  and  C11_15
REMARK    7  A    between atoms: C10_14  and  C19_28
REMARK    8  A    between atoms: C12_16  and  C13_17
REMARK       I    between atoms: C13_17  and  N3_19
REMARK       I    between atoms: N3_19  and  C14_21
REMARK    9  A    between atoms: C14_21  and  C15_23
REMARK   10  A    between atoms: C15_23  and  N4_24
REMARK   11  A    between atoms: C19_28  and  C20_29
REMARK   12  A    between atoms: C20_29  and  C21_30
REMARK   13  A    between atoms: C21_30  and  N5_31
ROOT
HETATM    1  C1  UNL     1      45.617  17.910  54.898  1.00  0.00     0.012 C
HETATM    2  C2  UNL     1      45.815  18.416  53.824  1.00  0.00    -0.117 C
HETATM    3  C3  UNL     1      46.051  19.018  52.492  1.00  0.00     0.095 C
ENDROOT
BRANCH   3   4
HETATM    4  C4  UNL     1      44.772  19.269  51.782  1.00  0.00     0.034 C
BRANCH   4   5
HETATM    5  C5  UNL     1      44.868  20.200  50.606  1.00  0.00     0.149 C
BRANCH   5   6
HETATM    6  N1  UNL     1      44.168  21.436  50.906  1.00  0.00    -0.303 N
HETATM    7  C6  UNL     1      44.181  22.074  52.101  1.00  0.00     0.112 A
HETATM    8  C7  UNL     1      43.395  23.176  51.957  1.00  0.00     0.055 A
HETATM    9  C8  UNL     1      42.894  23.220  50.672  1.00  0.00     0.117 A
HETATM   10  N8  UNL     1      43.413  22.106  50.067  1.00  0.00    -0.294 N
ATOM     11  H8  UNL     1      43.238  21.835  49.099  1.00  0.00     0.187 HD
BRANCH   9  12
HETATM   12  C9  UNL     1      42.016  24.204  50.065  1.00  0.00     0.270 C
HETATM   13  O1  UNL     1      40.792  23.963  49.976  1.00  0.00    -0.266 OA
HETATM   14  N2  UNL     1      42.527  25.400  49.586  1.00  0.00    -0.341 N
ATOM     15  H2  UNL     1      43.527  25.583  49.665  1.00  0.00     0.164 HD
BRANCH  14  16
HETATM   16  C10 UNL     1      41.644  26.425  48.958  1.00  0.00     0.165 C
BRANCH  16  17
HETATM   17  C11 UNL     1      40.857  26.906  50.147  1.00  0.00    -0.071 C
HETATM   18  C12 UNL     1      40.196  27.254  51.126  1.00  0.00    -0.003 C
BRANCH  18  19
HETATM   19  C13 UNL     1      39.409  27.646  52.254  1.00  0.00     0.303 C
HETATM   20  O2  UNL     1      38.524  28.525  52.118  1.00  0.00    -0.258 OA
HETATM   21  N3  UNL     1      39.580  27.082  53.551  1.00  0.00    -0.285 N
HETATM   22  C14 UNL     1      38.818  27.458  54.654  1.00  0.00     0.251 C
ATOM     23  H3  UNL     1      40.295  26.366  53.677  1.00  0.00     0.172 HD
HETATM   24  O3  UNL     1      37.929  28.330  54.549  1.00  0.00    -0.271 OA
BRANCH  22  25
HETATM   25  C15 UNL     1      39.047  26.831  55.972  1.00  0.00     0.338 C
BRANCH  25  26
HETATM   26  N4  UNL     1      38.607  25.446  55.998  1.00  0.00    -0.070 N
HETATM   27  C16 UNL     1      39.636  24.582  55.473  1.00  0.00     0.272 C
HETATM   28  C17 UNL     1      38.416  25.106  57.411  1.00  0.00     0.272 C
HETATM   29  C18 UNL     1      37.369  25.372  55.272  1.00  0.00     0.272 C
ENDBRANCH  25  26
ENDBRANCH  22  25
ENDBRANCH  18  19
ENDBRANCH  16  17
BRANCH  16  30
HETATM   30  C19 UNL     1      42.454  27.538  48.441  1.00  0.00     0.039 C
BRANCH  30  31
HETATM   31  C20 UNL     1      43.919  27.344  48.498  1.00  0.00     0.023 C
BRANCH  31  32
HETATM   32  C21 UNL     1      44.577  26.818  47.291  1.00  0.00     0.122 C
BRANCH  32  33
HETATM   33  N5  UNL     1      45.381  25.654  47.747  1.00  0.00    -0.367 N
HETATM   34  C22 UNL     1      44.966  24.479  47.463  1.00  0.00     0.196 C
HETATM   35  N6  UNL     1      43.772  24.310  46.733  1.00  0.00    -0.067 NA
HETATM   36  N7  UNL     1      45.721  23.340  47.892  1.00  0.00    -0.067 NA
ATOM     37  H5  UNL     1      46.243  25.790  48.274  1.00  0.00     0.161 HD
ENDBRANCH  32  33
ENDBRANCH  31  32
ENDBRANCH  30  31
ENDBRANCH  16  30
ENDBRANCH  14  16
ENDBRANCH   9  12
ENDBRANCH   5   6
ENDBRANCH   4   5
ENDBRANCH   3   4
TORSDOF 13
ENDMDL