MODEL 3
REMARK VINA RESULT: -6.057512731      2.467      3.343
REMARK  13 active torsions:
REMARK  status: ('A' for Active; 'I' for Inactive)
REMARK    1  A    between atoms: C2_2  and  C3_3
REMARK    2  A    between atoms: C2_2  and  N2_11
REMARK    3  A    between atoms: C3_3  and  C4_4
REMARK       I    between atoms: N2_11  and  C10_13
REMARK    4  A    between atoms: C10_13  and  C11_15
REMARK    5  A    between atoms: C11_15  and  N3_17
REMARK       I    between atoms: N3_17  and  C13_19
REMARK    6  A    between atoms: C13_19  and  C14_21
REMARK    7  A    between atoms: C14_21  and  N4_22
REMARK    8  A    between atoms: N4_22  and  C15_24
REMARK    9  A    between atoms: C15_24  and  C16_28
REMARK   10  A    between atoms: C16_28  and  N6_29
REMARK   11  A    between atoms: N7_32  and  C19_33
REMARK   12  A    between atoms: C19_33  and  C20_34
REMARK   13  A    between atoms: C20_34  and  N8_35
ROOT
HETATM    1  C14 UNL     1      42.877  24.148  49.440  1.00  0.00     0.224 C
ENDROOT
BRANCH   1   2
HETATM    2  C13 UNL     1      41.522  24.592  49.917  1.00  0.00     0.235 C
HETATM    3  N3  UNL     1      41.204  25.970  49.986  1.00  0.00    -0.347 N
ATOM      4  H3  UNL     1      41.901  26.661  49.710  1.00  0.00     0.163 HD
HETATM    5  O2  UNL     1      40.652  23.763  50.261  1.00  0.00    -0.272 OA
BRANCH   3   6
HETATM    6  C11 UNL     1      39.918  26.406  50.438  1.00  0.00     0.172 C
HETATM    7  C12 UNL     1      39.294  27.399  49.450  1.00  0.00     0.042 C
BRANCH   6   8
HETATM    8  C10 UNL     1      39.988  27.013  51.790  1.00  0.00     0.240 C
HETATM    9  N2  UNL     1      38.858  27.634  52.345  1.00  0.00    -0.355 N
ATOM     10  H2  UNL     1      37.995  27.665  51.803  1.00  0.00     0.162 HD
HETATM   11  O1  UNL     1      41.061  26.972  52.436  1.00  0.00    -0.271 OA
BRANCH   9  12
HETATM   12  C2  UNL     1      38.878  28.233  53.660  1.00  0.00     0.086 C
HETATM   13  C1  UNL     1      39.149  29.731  53.614  1.00  0.00     0.032 C
BRANCH  12  14
HETATM   14  C3  UNL     1      37.796  27.817  54.566  1.00  0.00     0.082 C
BRANCH  14  15
HETATM   15  C4  UNL     1      37.903  26.612  55.340  1.00  0.00     0.012 A
HETATM   16  C5  UNL     1      37.697  25.341  54.898  1.00  0.00     0.025 A
HETATM   17  C6  UNL     1      37.823  24.224  55.733  1.00  0.00     0.003 A
HETATM   18  C7  UNL     1      38.166  24.459  57.036  1.00  0.00     0.017 A
HETATM   19  C8  UNL     1      38.375  25.743  57.488  1.00  0.00     0.090 A
HETATM   20  N1  UNL     1      38.248  26.792  56.664  1.00  0.00    -0.364 N
HETATM   21  C9  UNL     1      38.478  28.136  57.192  1.00  0.00     0.155 C
ENDBRANCH  14  15
ENDBRANCH  12  14
ENDBRANCH   9  12
ENDBRANCH   6   8
ENDBRANCH   3   6
ENDBRANCH   1   2
BRANCH   1  22
HETATM   22  N4  UNL     1      43.147  22.779  49.867  1.00  0.00    -0.367 N
ATOM     23  H4  UNL     1      42.521  22.025  49.583  1.00  0.00     0.161 HD
BRANCH  22  24
HETATM   24  C15 UNL     1      44.278  22.494  50.679  1.00  0.00     0.118 C
HETATM   25  N5  UNL     1      45.396  22.257  50.074  1.00  0.00    -0.385 N
ATOM     26  H52 UNL     1      45.438  22.282  49.055  1.00  0.00     0.157 HD
ATOM     27  H51 UNL     1      46.208  22.053  50.656  1.00  0.00     0.157 HD
BRANCH  24  28
HETATM   28  C16 UNL     1      44.218  22.459  52.126  1.00  0.00     0.252 C
BRANCH  28  29
HETATM   29  N6  UNL     1      44.161  23.706  52.777  1.00  0.00    -0.016 N
HETATM   30  C17 UNL     1      44.768  24.838  52.162  1.00  0.00     0.273 C
HETATM   31  C18 UNL     1      45.051  25.801  53.333  1.00  0.00     0.268 C
HETATM   32  N7  UNL     1      44.603  25.057  54.453  1.00  0.00    -0.038 N
HETATM   33  C21 UNL     1      43.161  24.984  54.432  1.00  0.00     0.268 C
HETATM   34  C23 UNL     1      44.915  23.683  54.057  1.00  0.00     0.479 C
HETATM   35  C22 UNL     1      42.848  24.074  53.260  1.00  0.00     0.273 C
BRANCH  32  36
HETATM   36  C19 UNL     1      45.191  25.361  55.714  1.00  0.00     0.266 C
BRANCH  36  37
HETATM   37  C20 UNL     1      44.240  25.905  56.716  1.00  0.00     0.257 C
BRANCH  37  38
HETATM   38  N8  UNL     1      44.244  24.990  57.870  1.00  0.00    -0.078 N
ATOM     39  H83 UNL     1      45.027  24.337  57.857  1.00  0.00     0.274 HD
ATOM     40  H82 UNL     1      44.474  25.456  58.747  1.00  0.00     0.274 HD
ATOM     41  H81 UNL     1      43.337  24.525  57.894  1.00  0.00     0.274 HD
ENDBRANCH  37  38
ENDBRANCH  36  37
ENDBRANCH  32  36
ENDBRANCH  28  29
ENDBRANCH  24  28
ENDBRANCH  22  24
ENDBRANCH   1  22
TORSDOF 13
ENDMDL