MODEL 2
REMARK VINA RESULT: -7.452622268      3.197      8.221
REMARK  12 active torsions:
REMARK  status: ('A' for Active; 'I' for Inactive)
REMARK    1  A    between atoms: N1_2  and  C2_4
REMARK       I    between atoms: N2_6  and  C4_8
REMARK    2  A    between atoms: C4_8  and  C5_10
REMARK    3  A    between atoms: C5_10  and  C6_11
REMARK    4  A    between atoms: C6_11  and  C7_12
REMARK    5  A    between atoms: C6_11  and  C14_20
REMARK    6  A    between atoms: C7_12  and  C8_13
REMARK       I    between atoms: C14_20  and  N4_22
REMARK    7  A    between atoms: N4_22  and  C15_24
REMARK    8  A    between atoms: C15_24  and  C16_25
REMARK    9  A    between atoms: C15_24  and  C22_38
REMARK   10  A    between atoms: C16_25  and  C17_26
REMARK   11  A    between atoms: C19_30  and  C20_31
REMARK   12  A    between atoms: C20_31  and  N6_32
ROOT
HETATM    1  C14 UNL     1      43.530  23.775  52.692  1.00  0.00     0.223 C
HETATM    2  O2  UNL     1      42.357  23.583  52.276  1.00  0.00    -0.273 OA
HETATM    3  N4  UNL     1      44.577  23.187  51.940  1.00  0.00    -0.348 N
ATOM      4  H4  UNL     1      45.537  23.329  52.256  1.00  0.00     0.163 HD
ENDROOT
BRANCH   1   5
HETATM    5  C6  UNL     1      43.790  24.574  53.904  1.00  0.00     0.091 C
BRANCH   5   6
HETATM    6  C5  UNL     1      45.128  25.194  54.011  1.00  0.00     0.117 C
BRANCH   6   7
HETATM    7  C4  UNL     1      46.036  24.694  55.030  1.00  0.00     0.223 C
HETATM    8  N2  UNL     1      47.437  24.458  54.772  1.00  0.00    -0.317 N
HETATM    9  C2  UNL     1      48.351  25.050  55.446  1.00  0.00     0.074 C
ATOM     10  H2  UNL     1      47.705  23.804  54.036  1.00  0.00     0.170 HD
HETATM   11  C3  UNL     1      47.954  25.999  56.512  1.00  0.00     0.089 C
HETATM   12  O1  UNL     1      45.675  24.433  56.198  1.00  0.00    -0.273 OA
BRANCH   9  13
HETATM   13  N1  UNL     1      49.724  24.817  55.192  1.00  0.00    -0.384 N
HETATM   14  C1  UNL     1      50.791  25.107  56.125  1.00  0.00     0.147 C
ATOM     15  H1  UNL     1      49.978  24.417  54.290  1.00  0.00     0.160 HD
ENDBRANCH   9  13
ENDBRANCH   6   7
ENDBRANCH   5   6
BRANCH   5  16
HETATM   16  C7  UNL     1      42.665  25.586  54.044  1.00  0.00     0.054 C
BRANCH  16  17
HETATM   17  C8  UNL     1      41.701  25.274  55.105  1.00  0.00    -0.042 A
HETATM   18  C9  UNL     1      42.096  25.271  56.423  1.00  0.00     0.010 A
HETATM   19  C10 UNL     1      41.234  24.985  57.459  1.00  0.00     0.018 A
HETATM   20  C11 UNL     1      39.918  24.689  57.182  1.00  0.00     0.090 A
HETATM   21  N3  UNL     1      39.526  24.690  55.896  1.00  0.00    -0.370 N
HETATM   22  C12 UNL     1      38.121  24.370  55.634  1.00  0.00     0.154 C
HETATM   23  C13 UNL     1      40.375  24.969  54.884  1.00  0.00     0.097 A
ENDBRANCH  16  17
ENDBRANCH   5  16
ENDBRANCH   1   5
BRANCH   3  24
HETATM   24  C15 UNL     1      44.361  22.399  50.753  1.00  0.00     0.178 C
BRANCH  24  25
HETATM   25  C16 UNL     1      45.430  21.325  50.595  1.00  0.00     0.074 C
BRANCH  25  26
HETATM   26  C17 UNL     1      45.108  20.101  51.366  1.00  0.00    -0.038 A
HETATM   27  C18 UNL     1      44.078  19.199  51.154  1.00  0.00     0.095 A
HETATM   28  N5  UNL     1      44.157  18.219  52.102  1.00  0.00    -0.367 N
HETATM   29  C19 UNL     1      45.196  18.455  52.914  1.00  0.00     0.029 A
ATOM     30  H5  UNL     1      43.520  17.427  52.180  1.00  0.00     0.165 HD
HETATM   31  C21 UNL     1      45.783  19.613  52.464  1.00  0.00     0.035 A
BRANCH  29  32
HETATM   32  C20 UNL     1      45.647  17.651  54.071  1.00  0.00     0.195 C
BRANCH  32  33
HETATM   33  N6  UNL     1      46.048  18.479  55.166  1.00  0.00    -0.337 N
HETATM   34  N7  UNL     1      45.919  18.057  56.322  1.00  0.00    -0.349 N
ATOM     35  H72 UNL     1      45.529  17.127  56.476  1.00  0.00     0.176 HD
ATOM     36  H71 UNL     1      46.206  18.648  57.103  1.00  0.00     0.176 HD
ATOM     37  H6  UNL     1      46.436  19.407  54.995  1.00  0.00     0.179 HD
ENDBRANCH  32  33
ENDBRANCH  29  32
ENDBRANCH  25  26
ENDBRANCH  24  25
BRANCH  24  38
HETATM   38  C22 UNL     1      44.212  23.167  49.513  1.00  0.00     0.254 C
HETATM   39  N8  UNL     1      45.358  23.480  48.732  1.00  0.00    -0.060 NA
HETATM   40  O3  UNL     1      43.105  23.578  49.083  1.00  0.00    -0.275 OA
ENDBRANCH  24  38
ENDBRANCH   3  24
TORSDOF 12
ENDMDL