MODEL 3
REMARK VINA RESULT: -6.794110124      2.982      4.678
REMARK  12 active torsions:
REMARK  status: ('A' for Active; 'I' for Inactive)
REMARK    1  A    between atoms: C3_3  and  C17_29
REMARK    2  A    between atoms: C4_4  and  C5_5
REMARK       I    between atoms: C5_5  and  N1_7
REMARK    3  A    between atoms: N1_7  and  C6_9
REMARK    4  A    between atoms: C6_9  and  C7_10
REMARK    5  A    between atoms: C6_9  and  C8_18
REMARK    6  A    between atoms: C7_10  and  N2_11
REMARK    7  A    between atoms: N2_11  and  N3_13
REMARK    8  A    between atoms: C8_18  and  C9_19
REMARK    9  A    between atoms: C17_29  and  O2_30
REMARK   10  A    between atoms: C17_29  and  C18_32
REMARK   11  A    between atoms: C18_32  and  S1_33
REMARK   12  A    between atoms: C20_35  and  C21_36
ROOT
HETATM    1  C1  UNL     1      41.332  24.472  50.652  1.00  0.00     0.017 C
HETATM    2  C2  UNL     1      42.204  24.281  51.478  1.00  0.00    -0.079 C
HETATM    3  C3  UNL     1      43.256  24.041  52.410  1.00  0.00     0.029 C
HETATM    4  C4  UNL     1      43.349  24.311  53.665  1.00  0.00     0.092 C
ENDROOT
BRANCH   3   5
HETATM    5  C17 UNL     1      44.458  23.346  51.753  1.00  0.00     0.170 C
BRANCH   5   6
HETATM    6  O2  UNL     1      45.001  24.209  50.833  1.00  0.00    -0.389 OA
ATOM      7  H2  UNL     1      44.367  24.339  50.138  1.00  0.00     0.210 HD
ENDBRANCH   5   6
BRANCH   5   8
HETATM    8  C18 UNL     1      43.864  22.116  51.102  1.00  0.00     0.129 C
BRANCH   8   9
HETATM    9  S1  UNL     1      44.541  20.647  51.768  1.00  0.00    -0.082 SA
HETATM   10  C19 UNL     1      43.932  19.122  51.108  1.00  0.00     0.134 C
HETATM   11  C20 UNL     1      45.399  18.735  51.331  1.00  0.00     0.236 C
HETATM   12  O4  UNL     1      45.739  19.979  50.806  1.00  0.00    -0.316 OA
BRANCH  11  13
HETATM   13  C21 UNL     1      45.724  18.645  52.760  1.00  0.00     0.262 C
HETATM   14  N6  UNL     1      46.649  19.495  53.420  1.00  0.00    -0.060 NA
HETATM   15  O3  UNL     1      45.146  17.755  53.446  1.00  0.00    -0.274 OA
ENDBRANCH  11  13
ENDBRANCH   8   9
ENDBRANCH   5   8
ENDBRANCH   3   5
BRANCH   4  16
HETATM   16  C5  UNL     1      42.452  24.947  54.600  1.00  0.00     0.242 C
HETATM   17  O1  UNL     1      42.452  26.244  54.563  1.00  0.00    -0.269 OA
HETATM   18  N1  UNL     1      41.605  24.371  55.519  1.00  0.00    -0.351 N
ATOM     19  H1  UNL     1      41.638  23.352  55.543  1.00  0.00     0.163 HD
BRANCH  18  20
HETATM   20  C6  UNL     1      40.694  24.952  56.439  1.00  0.00     0.108 C
BRANCH  20  21
HETATM   21  C7  UNL     1      40.800  24.554  57.880  1.00  0.00     0.166 C
BRANCH  21  22
HETATM   22  N2  UNL     1      42.023  23.877  58.186  1.00  0.00    -0.321 N
ATOM     23  H2  UNL     1      42.141  22.877  58.022  1.00  0.00     0.181 HD
BRANCH  22  24
HETATM   24  N3  UNL     1      43.057  24.672  58.729  1.00  0.00    -0.254 N
HETATM   25  N4  UNL     1      44.004  25.041  57.983  1.00  0.00    -0.331 N
ATOM     26  H42 UNL     1      44.009  24.760  57.003  1.00  0.00     0.178 HD
ATOM     27  H41 UNL     1      44.750  25.615  58.375  1.00  0.00     0.178 HD
ATOM     28  H3  UNL     1      43.037  24.945  59.711  1.00  0.00     0.207 HD
ENDBRANCH  22  24
ENDBRANCH  21  22
ENDBRANCH  20  21
BRANCH  20  29
HETATM   29  C8  UNL     1      39.258  24.858  56.000  1.00  0.00     0.067 C
BRANCH  29  30
HETATM   30  C9  UNL     1      38.738  26.175  55.586  1.00  0.00    -0.028 A
HETATM   31  C10 UNL     1      38.058  27.022  56.442  1.00  0.00     0.096 A
HETATM   32  N5  UNL     1      37.723  28.125  55.771  1.00  0.00    -0.365 N
HETATM   33  C11 UNL     1      38.162  28.023  54.509  1.00  0.00     0.042 A
ATOM     34  H5  UNL     1      37.214  28.920  56.157  1.00  0.00     0.165 HD
HETATM   35  C12 UNL     1      38.092  28.859  53.406  1.00  0.00     0.030 A
HETATM   36  C16 UNL     1      38.810  26.795  54.363  1.00  0.00    -0.002 A
HETATM   37  C13 UNL     1      38.635  28.510  52.205  1.00  0.00     0.002 A
HETATM   38  C14 UNL     1      39.270  27.299  52.075  1.00  0.00     0.001 A
HETATM   39  C15 UNL     1      39.360  26.431  53.165  1.00  0.00     0.014 A
ENDBRANCH  29  30
ENDBRANCH  20  29
ENDBRANCH  18  20
ENDBRANCH   4  16
TORSDOF 12
ENDMDL