MODEL 1
REMARK VINA RESULT: -8.582390732      0.000      0.000
REMARK  12 active torsions:
REMARK  status: ('A' for Active; 'I' for Inactive)
REMARK       I    between atoms: C2_2  and  N1_4
REMARK    1  A    between atoms: N1_4  and  C3_6
REMARK    2  A    between atoms: C3_6  and  C4_7
REMARK    3  A    between atoms: C3_6  and  C8_21
REMARK    4  A    between atoms: C4_7  and  C5_8
REMARK    5  A    between atoms: C5_8  and  C6_9
REMARK    6  A    between atoms: C6_9  and  N2_10
REMARK       I    between atoms: C7_12  and  N4_14
REMARK    7  A    between atoms: N4_14  and  N5_16
REMARK       I    between atoms: C8_21  and  N7_23
REMARK    8  A    between atoms: N7_23  and  C9_25
REMARK    9  A    between atoms: C9_25  and  C10_26
REMARK   10  A    between atoms: N8_30  and  C14_31
REMARK   11  A    between atoms: C14_31  and  C15_32
REMARK   12  A    between atoms: C15_32  and  C16_33
ROOT
HETATM    1  C3  UNL     1      43.223  23.824  49.709  1.00  0.00     0.176 C
ENDROOT
BRANCH   1   2
HETATM    2  N1  UNL     1      44.060  24.811  49.068  1.00  0.00    -0.348 N
HETATM    3  C2  UNL     1      44.276  24.963  47.694  1.00  0.00     0.214 C
HETATM    4  C1  UNL     1      45.178  26.034  47.160  1.00  0.00     0.117 C
HETATM    5  O1  UNL     1      43.726  24.212  46.864  1.00  0.00    -0.274 OA
ATOM      6  H1  UNL     1      44.545  25.466  49.681  1.00  0.00     0.163 HD
ENDBRANCH   1   2
BRANCH   1   7
HETATM    7  C4  UNL     1      43.954  23.150  50.814  1.00  0.00     0.036 C
BRANCH   7   8
HETATM    8  C5  UNL     1      44.628  21.863  50.366  1.00  0.00     0.022 C
BRANCH   8   9
HETATM    9  C6  UNL     1      44.230  20.703  51.252  1.00  0.00     0.122 C
BRANCH   9  10
HETATM   10  N2  UNL     1      45.215  20.496  52.289  1.00  0.00    -0.363 N
HETATM   11  C7  UNL     1      45.884  19.383  52.379  1.00  0.00     0.204 C
HETATM   12  N3  UNL     1      45.648  18.341  51.440  1.00  0.00    -0.062 NA
HETATM   13  N4  UNL     1      46.843  19.193  53.394  1.00  0.00    -0.260 N
ATOM     14  H4  UNL     1      47.680  19.774  53.421  1.00  0.00     0.191 HD
ATOM     15  H2  UNL     1      45.389  21.239  52.966  1.00  0.00     0.162 HD
BRANCH  13  16
HETATM   16  N5  UNL     1      46.648  18.217  54.355  1.00  0.00    -0.247 N
HETATM   17  N6  UNL     1      45.967  17.183  54.077  1.00  0.00    -0.331 N
ATOM     18  H62 UNL     1      45.572  17.087  53.142  1.00  0.00     0.178 HD
ATOM     19  H61 UNL     1      45.823  16.463  54.785  1.00  0.00     0.178 HD
ATOM     20  H5  UNL     1      47.051  18.328  55.285  1.00  0.00     0.207 HD
ENDBRANCH  13  16
ENDBRANCH   9  10
ENDBRANCH   8   9
ENDBRANCH   7   8
ENDBRANCH   1   7
BRANCH   1  21
HETATM   21  C8  UNL     1      41.992  24.468  50.285  1.00  0.00     0.240 C
HETATM   22  O2  UNL     1      40.845  24.147  49.911  1.00  0.00    -0.271 OA
HETATM   23  N7  UNL     1      42.131  25.466  51.280  1.00  0.00    -0.355 N
ATOM     24  H7  UNL     1      43.061  25.739  51.600  1.00  0.00     0.162 HD
BRANCH  23  25
HETATM   25  C9  UNL     1      40.973  26.093  51.838  1.00  0.00     0.162 C
BRANCH  25  26
HETATM   26  C10 UNL     1      40.707  25.709  53.256  1.00  0.00    -0.025 A
HETATM   27  C11 UNL     1      41.559  24.873  53.942  1.00  0.00     0.011 A
HETATM   28  C12 UNL     1      41.243  24.551  55.269  1.00  0.00     0.018 A
HETATM   29  C13 UNL     1      40.115  25.061  55.862  1.00  0.00     0.090 A
HETATM   30  N8  UNL     1      39.282  25.878  55.194  1.00  0.00    -0.365 N
HETATM   31  C22 UNL     1      39.588  26.181  53.926  1.00  0.00     0.099 A
BRANCH  30  32
HETATM   32  C14 UNL     1      38.089  26.407  55.852  1.00  0.00     0.133 C
BRANCH  32  33
HETATM   33  C15 UNL     1      38.182  26.271  57.347  1.00  0.00     0.077 C
BRANCH  33  34
HETATM   34  C16 UNL     1      37.015  25.483  57.816  1.00  0.00     0.012 A
HETATM   35  C17 UNL     1      36.944  24.108  57.550  1.00  0.00     0.025 A
HETATM   36  C18 UNL     1      35.889  23.345  57.960  1.00  0.00     0.003 A
HETATM   37  C19 UNL     1      34.882  23.994  58.657  1.00  0.00     0.017 A
HETATM   38  C20 UNL     1      34.932  25.331  58.926  1.00  0.00     0.090 A
HETATM   39  N9  UNL     1      36.012  26.034  58.488  1.00  0.00    -0.364 N
HETATM   40  C21 UNL     1      36.045  27.450  58.781  1.00  0.00     0.155 C
ENDBRANCH  33  34
ENDBRANCH  32  33
ENDBRANCH  30  32
ENDBRANCH  25  26
ENDBRANCH  23  25
ENDBRANCH   1  21
TORSDOF 12
ENDMDL