MODEL 2
REMARK VINA RESULT: -6.323876546      1.263      2.166
REMARK  11 active torsions:
REMARK  status: ('A' for Active; 'I' for Inactive)
REMARK    1  A    between atoms: C3_3  and  C4_4
REMARK    2  A    between atoms: C3_3  and  C6_6
REMARK    3  A    between atoms: C3_3  and  C9_11
REMARK    4  A    between atoms: C6_6  and  C7_7
REMARK    5  A    between atoms: C7_7  and  S1_8
REMARK    6  A    between atoms: N1_13  and  C11_14
REMARK    7  A    between atoms: C11_14  and  C12_15
REMARK    8  A    between atoms: C12_15  and  C13_16
REMARK    9  A    between atoms: C13_16  and  N2_17
REMARK   10  A    between atoms: N2_17  and  C14_18
REMARK   11  A    between atoms: C14_18  and  C15_19
ROOT
HETATM    1  C1  UNL     1      37.428  23.913  55.546  1.00  0.00     0.013 C
HETATM    2  C2  UNL     1      38.410  24.610  55.635  1.00  0.00    -0.097 C
HETATM    3  C3  UNL     1      39.600  25.456  55.785  1.00  0.00     0.086 C
ENDROOT
BRANCH   3   4
HETATM    4  C4  UNL     1      40.787  24.621  56.118  1.00  0.00     0.029 C
HETATM    5  C5  UNL     1      41.281  24.607  57.513  1.00  0.00     0.007 C
ENDBRANCH   3   4
BRANCH   3   6
HETATM    6  C6  UNL     1      39.400  26.739  56.478  1.00  0.00     0.011 C
BRANCH   6   7
HETATM    7  C7  UNL     1      38.114  27.247  56.922  1.00  0.00     0.076 C
BRANCH   7   8
HETATM    8  S1  UNL     1      37.414  26.769  58.410  1.00  0.00     0.034 S
HETATM    9  C8  UNL     1      37.451  27.842  59.764  1.00  0.00     0.132 C
HETATM   10  O1  UNL     1      36.095  25.788  58.380  1.00  0.00    -0.254 OA
ENDBRANCH   7   8
ENDBRANCH   6   7
ENDBRANCH   3   6
BRANCH   3  11
HETATM   11  C9  UNL     1      39.896  25.898  54.333  1.00  0.00     0.069 A
HETATM   12  C10 UNL     1      40.902  25.576  53.478  1.00  0.00     0.145 A
HETATM   13  N1  UNL     1      40.702  26.172  52.288  1.00  0.00    -0.264 N
HETATM   14  N6  UNL     1      39.551  26.873  52.438  1.00  0.00    -0.233 N
HETATM   15  C19 UNL     1      38.902  27.681  51.416  1.00  0.00     0.200 C
HETATM   16  N7  UNL     1      39.075  26.707  53.647  1.00  0.00    -0.285 N
ATOM     17  H7  UNL     1      38.218  27.126  54.009  1.00  0.00     0.188 HD
BRANCH  13  18
HETATM   18  C11 UNL     1      41.398  26.104  51.077  1.00  0.00     0.092 C
BRANCH  18  19
HETATM   19  C12 UNL     1      41.165  24.869  50.182  1.00  0.00     0.077 C
BRANCH  19  20
HETATM   20  C13 UNL     1      42.251  23.887  50.515  1.00  0.00     0.272 C
BRANCH  20  21
HETATM   21  N2  UNL     1      43.522  23.971  49.948  1.00  0.00     0.044 N
HETATM   22  C16 UNL     1      44.521  24.325  51.039  1.00  0.00     0.369 C
HETATM   23  C17 UNL     1      44.207  23.478  52.230  1.00  0.00     0.264 C
HETATM   24  O4  UNL     1      44.058  23.952  53.368  1.00  0.00    -0.271 OA
HETATM   25  N3  UNL     1      44.085  22.081  52.002  1.00  0.00    -0.157 N
HETATM   26  C18 UNL     1      43.969  21.694  50.631  1.00  0.00     0.699 C
ATOM     27  H3  UNL     1      44.080  21.402  52.763  1.00  0.00     0.187 HD
HETATM   28  N4  UNL     1      43.857  20.448  50.275  1.00  0.00    -0.233 N
HETATM   29  N5  UNL     1      43.981  22.690  49.579  1.00  0.00    -0.047 N
ATOM     30  H42 UNL     1      43.848  19.747  51.016  1.00  0.00     0.174 HD
ATOM     31  H41 UNL     1      43.774  20.171  49.297  1.00  0.00     0.174 HD
ATOM     32  H5  UNL     1      44.302  22.479  48.634  1.00  0.00     0.213 HD
BRANCH  21  33
HETATM   33  C14 UNL     1      43.814  24.888  48.922  1.00  0.00     0.378 C
BRANCH  33  34
HETATM   34  C15 UNL     1      44.490  24.453  47.719  1.00  0.00     0.202 C
HETATM   35  O2  UNL     1      43.751  24.225  46.697  1.00  0.00    -0.647 OA
HETATM   36  O3  UNL     1      45.824  24.251  47.527  1.00  0.00    -0.647 OA
ENDBRANCH  33  34
ENDBRANCH  21  33
ENDBRANCH  20  21
ENDBRANCH  19  20
ENDBRANCH  18  19
ENDBRANCH  13  18
ENDBRANCH   3  11
TORSDOF 11
ENDMDL