MODEL 2
REMARK VINA RESULT: -6.359243992      3.220      5.825
REMARK  13 active torsions:
REMARK  status: ('A' for Active; 'I' for Inactive)
REMARK    1  A    between atoms: C3_3  and  C4_4
REMARK    2  A    between atoms: C3_3  and  N5_29
REMARK    3  A    between atoms: C4_4  and  C5_5
REMARK    4  A    between atoms: C9_16  and  N4_17
REMARK       I    between atoms: N4_17  and  C10_19
REMARK    5  A    between atoms: C10_19  and  O2_21
REMARK    6  A    between atoms: O2_21  and  C11_22
REMARK    7  A    between atoms: C11_22  and  C12_23
REMARK    8  A    between atoms: N5_29  and  C19_31
REMARK    9  A    between atoms: N5_29  and  C20_33
REMARK   10  A    between atoms: C20_33  and  C21_34
REMARK   11  A    between atoms: C21_34  and  N6_35
REMARK   12  A    between atoms: N6_35  and  C22_37
REMARK   13  A    between atoms: N7_38  and  N8_40
ROOT
HETATM    1  C1  UNL     1      41.626  25.654  49.188  1.00  0.00     0.014 C
HETATM    2  C2  UNL     1      42.814  25.863  49.305  1.00  0.00    -0.083 C
HETATM    3  C3  UNL     1      44.225  26.128  49.403  1.00  0.00     0.280 C
ENDROOT
BRANCH   3   4
HETATM    4  C4  UNL     1      44.966  25.391  50.442  1.00  0.00     0.090 C
BRANCH   4   5
HETATM    5  C5  UNL     1      44.429  24.079  50.848  1.00  0.00     0.004 A
HETATM    6  C6  UNL     1      44.743  22.813  50.489  1.00  0.00     0.087 A
HETATM    7  N1  UNL     1      45.385  21.819  49.852  1.00  0.00    -0.189 N
HETATM    8  C8  UNL     1      43.825  22.213  51.315  1.00  0.00     0.104 A
HETATM    9  C7  UNL     1      44.907  20.613  50.241  1.00  0.00     0.677 A
ATOM     10  H1  UNL     1      46.129  21.955  49.168  1.00  0.00     0.184 HD
HETATM   11  N2  UNL     1      45.317  19.447  49.809  1.00  0.00    -0.234 N
HETATM   12  N3  UNL     1      43.949  20.887  51.140  1.00  0.00    -0.188 N
ATOM     13  H22 UNL     1      46.045  19.239  49.126  1.00  0.00     0.174 HD
ATOM     14  H21 UNL     1      44.957  18.539  50.102  1.00  0.00     0.174 HD
ATOM     15  H3  UNL     1      43.391  20.184  51.624  1.00  0.00     0.184 HD
HETATM   16  C9  UNL     1      43.457  23.438  51.718  1.00  0.00     0.075 A
BRANCH  16  17
HETATM   17  N4  UNL     1      42.488  23.891  52.620  1.00  0.00    -0.300 N
HETATM   18  C10 UNL     1      42.829  24.500  53.856  1.00  0.00     0.365 C
HETATM   19  O1  UNL     1      44.004  24.693  54.259  1.00  0.00    -0.238 OA
ATOM     20  H4  UNL     1      41.503  23.779  52.382  1.00  0.00     0.171 HD
BRANCH  18  21
HETATM   21  O2  UNL     1      41.834  24.945  54.746  1.00  0.00    -0.299 OA
BRANCH  21  22
HETATM   22  C11 UNL     1      40.483  25.037  54.346  1.00  0.00     0.219 C
BRANCH  22  23
HETATM   23  C12 UNL     1      39.557  24.763  55.463  1.00  0.00    -0.034 A
HETATM   24  C13 UNL     1      38.246  24.375  55.269  1.00  0.00     0.009 A
HETATM   25  C14 UNL     1      37.383  24.118  56.324  1.00  0.00     0.001 A
HETATM   26  C15 UNL     1      37.858  24.258  57.608  1.00  0.00     0.000 A
HETATM   27  C16 UNL     1      39.179  24.649  57.829  1.00  0.00     0.001 A
HETATM   28  C17 UNL     1      40.026  24.901  56.749  1.00  0.00     0.009 A
ENDBRANCH  22  23
ENDBRANCH  21  22
ENDBRANCH  18  21
ENDBRANCH  16  17
ENDBRANCH   4   5
ENDBRANCH   3   4
BRANCH   3  29
HETATM   29  N5  UNL     1      44.839  26.057  48.090  1.00  0.00    -0.001 N
HETATM   30  C18 UNL     1      46.284  26.169  48.171  1.00  0.00     0.284 C
BRANCH  29  31
HETATM   31  C19 UNL     1      44.363  27.152  47.328  1.00  0.00     0.460 C
HETATM   32  O3  UNL     1      44.188  27.044  46.135  1.00  0.00    -0.276 OA
ENDBRANCH  29  31
BRANCH  29  33
HETATM   33  C20 UNL     1      44.526  24.855  47.388  1.00  0.00     0.267 C
BRANCH  33  34
HETATM   34  C21 UNL     1      45.762  24.028  47.038  1.00  0.00     0.149 C
BRANCH  34  35
HETATM   35  N6  UNL     1      45.739  23.898  45.581  1.00  0.00    -0.383 N
ATOM     36  H6  UNL     1      45.161  23.193  45.123  1.00  0.00     0.160 HD
BRANCH  35  37
HETATM   37  C22 UNL     1      46.551  24.786  44.829  1.00  0.00     0.192 C
HETATM   38  N7  UNL     1      45.987  25.533  43.945  1.00  0.00    -0.303 N
ATOM     39  H7  UNL     1      46.561  26.175  43.398  1.00  0.00     0.187 HD
BRANCH  38  40
HETATM   40  N8  UNL     1      44.608  25.487  43.715  1.00  0.00    -0.344 N
ATOM     41  H82 UNL     1      44.233  24.690  43.200  1.00  0.00     0.176 HD
ATOM     42  H81 UNL     1      43.985  26.223  44.048  1.00  0.00     0.176 HD
ENDBRANCH  38  40
ENDBRANCH  35  37
ENDBRANCH  34  35
ENDBRANCH  33  34
ENDBRANCH  29  33
ENDBRANCH   3  29
TORSDOF 13
ENDMDL