MODEL 1
REMARK VINA RESULT: -8.168456121      0.000      0.000
REMARK  13 active torsions:
REMARK  status: ('A' for Active; 'I' for Inactive)
REMARK    1  A    between atoms: N1_2  and  C4_5
REMARK    2  A    between atoms: C4_5  and  C5_6
REMARK    3  A    between atoms: C7_8  and  N2_9
REMARK    4  A    between atoms: N4_15  and  C9_16
REMARK    5  A    between atoms: C9_16  and  C10_17
REMARK    6  A    between atoms: C10_17  and  C11_18
REMARK    7  A    between atoms: C11_18  and  C12_19
REMARK    8  A    between atoms: C12_19  and  C13_20
REMARK    9  A    between atoms: C13_20  and  C14_21
REMARK   10  A    between atoms: C14_21  and  N5_22
REMARK   11  A    between atoms: C17_25  and  C18_26
REMARK       I    between atoms: C18_26  and  N6_28
REMARK   12  A    between atoms: N6_28  and  N7_30
REMARK       I    between atoms: C19_32  and  N9_34
REMARK   13  A    between atoms: N9_34  and  N10_36
ROOT
HETATM    1  N5  UNL     1      42.058  24.923  50.034  1.00  0.00    -0.366 N
HETATM    2  C15 UNL     1      43.077  24.346  49.415  1.00  0.00     0.091 A
HETATM    3  C16 UNL     1      43.852  23.418  50.082  1.00  0.00     0.034 A
HETATM    4  C17 UNL     1      43.612  23.057  51.381  1.00  0.00     0.036 A
HETATM    5  C20 UNL     1      42.536  23.668  52.029  1.00  0.00     0.034 A
HETATM    6  C21 UNL     1      41.803  24.582  51.316  1.00  0.00     0.091 A
ENDROOT
BRANCH   1   7
HETATM    7  C14 UNL     1      41.188  25.907  49.429  1.00  0.00     0.128 C
BRANCH   7   8
HETATM    8  C13 UNL     1      39.785  25.843  50.038  1.00  0.00     0.020 C
BRANCH   8   9
HETATM    9  C12 UNL     1      39.384  27.243  50.373  1.00  0.00     0.002 C
BRANCH   9  10
HETATM   10  C11 UNL     1      39.861  27.678  51.746  1.00  0.00     0.005 C
BRANCH  10  11
HETATM   11  C10 UNL     1      39.019  27.177  52.846  1.00  0.00     0.045 C
BRANCH  11  12
HETATM   12  C9  UNL     1      39.828  26.544  53.945  1.00  0.00     0.071 C
BRANCH  12  13
HETATM   13  N4  UNL     1      39.058  25.785  54.848  1.00  0.00    -0.324 N
HETATM   14  C5  UNL     1      39.549  24.968  55.778  1.00  0.00     0.046 A
HETATM   15  C6  UNL     1      38.655  24.351  56.638  1.00  0.00     0.075 A
HETATM   16  C7  UNL     1      37.295  24.535  56.580  1.00  0.00     0.101 A
HETATM   17  N3  UNL     1      36.846  25.370  55.620  1.00  0.00    -0.339 N
HETATM   18  C8  UNL     1      37.715  25.962  54.795  1.00  0.00     0.189 A
ATOM     19  H3  UNL     1      35.846  25.549  55.524  1.00  0.00     0.168 HD
BRANCH  14  20
HETATM   20  C4  UNL     1      40.980  24.627  55.932  1.00  0.00     0.293 C
BRANCH  20  21
HETATM   21  N1  UNL     1      41.605  25.353  57.019  1.00  0.00    -0.073 N
HETATM   22  C1  UNL     1      40.914  26.568  57.368  1.00  0.00     0.272 C
HETATM   23  C2  UNL     1      41.731  24.545  58.214  1.00  0.00     0.272 C
HETATM   24  C3  UNL     1      42.941  25.724  56.607  1.00  0.00     0.272 C
ENDBRANCH  20  21
ENDBRANCH  14  20
BRANCH  16  25
HETATM   25  N2  UNL     1      36.480  23.937  57.406  1.00  0.00    -0.385 N
ATOM     26  H22 UNL     1      36.756  23.706  58.361  1.00  0.00     0.157 HD
ATOM     27  H21 UNL     1      35.532  23.674  57.135  1.00  0.00     0.157 HD
ENDBRANCH  16  25
ENDBRANCH  12  13
ENDBRANCH  11  12
ENDBRANCH  10  11
ENDBRANCH   9  10
ENDBRANCH   8   9
ENDBRANCH   7   8
ENDBRANCH   1   7
BRANCH   4  28
HETATM   28  C18 UNL     1      44.399  22.091  52.116  1.00  0.00     0.270 C
HETATM   29  O1  UNL     1      44.390  22.114  53.365  1.00  0.00    -0.266 OA
HETATM   30  N6  UNL     1      45.170  21.132  51.441  1.00  0.00    -0.263 N
ATOM     31  H6  UNL     1      45.180  21.109  50.421  1.00  0.00     0.190 HD
BRANCH  30  32
HETATM   32  N7  UNL     1      45.921  20.211  52.165  1.00  0.00    -0.270 N
HETATM   33  C19 UNL     1      45.495  19.014  52.357  1.00  0.00     0.223 C
HETATM   34  N8  UNL     1      44.238  18.643  51.816  1.00  0.00    -0.061 NA
HETATM   35  N9  UNL     1      46.228  18.040  53.089  1.00  0.00    -0.258 N
ATOM     36  H9  UNL     1      46.480  17.160  52.639  1.00  0.00     0.191 HD
ATOM     37  H7  UNL     1      46.823  20.490  52.549  1.00  0.00     0.190 HD
BRANCH  35  38
HETATM   38  N10 UNL     1      46.608  18.265  54.414  1.00  0.00    -0.247 N
HETATM   39  N11 UNL     1      45.830  17.982  55.382  1.00  0.00    -0.331 N
ATOM     40 2H11 UNL     1      44.916  17.583  55.169  1.00  0.00     0.178 HD
ATOM     41 1H11 UNL     1      46.107  18.147  56.350  1.00  0.00     0.178 HD
ATOM     42  H10 UNL     1      47.526  18.665  54.610  1.00  0.00     0.207 HD
ENDBRANCH  35  38
ENDBRANCH  30  32
ENDBRANCH   4  28
TORSDOF 13
ENDMDL