MODEL 5
REMARK VINA RESULT: -6.621570772      1.164      2.113
REMARK  13 active torsions:
REMARK  status: ('A' for Active; 'I' for Inactive)
REMARK    1  A    between atoms: C3_3  and  N1_4
REMARK    2  A    between atoms: N1_4  and  C6_7
REMARK    3  A    between atoms: C6_7  and  C7_8
REMARK    4  A    between atoms: C7_8  and  C8_9
REMARK    5  A    between atoms: C8_9  and  C9_10
REMARK       I    between atoms: C9_10  and  N2_12
REMARK    6  A    between atoms: N2_12  and  N3_14
REMARK    7  A    between atoms: N3_14  and  C10_15
REMARK    8  A    between atoms: N3_14  and  N7_37
REMARK    9  A    between atoms: C10_15  and  C11_16
REMARK   10  A    between atoms: C11_16  and  N4_17
REMARK   11  A    between atoms: C11_16  and  C15_28
REMARK       I    between atoms: N4_17  and  C12_18
REMARK       I    between atoms: C12_18  and  N5_20
REMARK   12  A    between atoms: C14_23  and  N6_24
REMARK   13  A    between atoms: C20_33  and  C21_34
ROOT
HETATM    1  C1  UNL     1      42.841  28.113  52.181  1.00  0.00     0.013 C
HETATM    2  C2  UNL     1      42.069  28.094  53.117  1.00  0.00    -0.089 C
HETATM    3  C3  UNL     1      41.146  28.056  54.245  1.00  0.00     0.328 C
ENDROOT
BRANCH   3   4
HETATM    4  N1  UNL     1      39.818  27.610  53.844  1.00  0.00    -0.065 N
HETATM    5  C4  UNL     1      39.913  27.309  52.412  1.00  0.00     0.273 C
HETATM    6  C5  UNL     1      38.947  28.726  54.015  1.00  0.00     0.273 C
BRANCH   4   7
HETATM    7  C6  UNL     1      39.535  26.442  54.595  1.00  0.00     0.238 C
BRANCH   7   8
HETATM    8  C7  UNL     1      40.176  25.169  54.279  1.00  0.00     0.037 C
BRANCH   8   9
HETATM    9  C8  UNL     1      41.042  24.451  55.207  1.00  0.00     0.106 C
BRANCH   9  10
HETATM   10  C9  UNL     1      42.490  24.686  54.900  1.00  0.00     0.237 C
HETATM   11  O1  UNL     1      43.164  25.479  55.558  1.00  0.00    -0.272 OA
HETATM   12  N2  UNL     1      43.120  23.969  53.802  1.00  0.00    -0.252 N
ATOM     13  H2  UNL     1      42.572  23.308  53.252  1.00  0.00     0.191 HD
BRANCH  12  14
HETATM   14  N3  UNL     1      44.460  24.175  53.494  1.00  0.00    -0.214 N
BRANCH  14  15
HETATM   15  C10 UNL     1      44.808  24.309  52.127  1.00  0.00     0.215 C
BRANCH  15  16
HETATM   16  C11 UNL     1      43.866  23.806  51.091  1.00  0.00     0.224 C
BRANCH  16  17
HETATM   17  N4  UNL     1      44.063  22.420  50.921  1.00  0.00    -0.384 NA
HETATM   18  C12 UNL     1      44.243  21.067  50.726  1.00  0.00     0.400 C
HETATM   19  O2  UNL     1      43.907  20.423  49.684  1.00  0.00    -0.230 OA
HETATM   20  N5  UNL     1      44.860  20.215  51.705  1.00  0.00    -0.216 N
HETATM   21  C13 UNL     1      45.455  20.201  53.062  1.00  0.00     0.281 A
HETATM   22  C14 UNL     1      45.387  19.016  52.297  1.00  0.00     0.389 A
HETATM   23  O3  UNL     1      45.773  20.830  54.099  1.00  0.00    -0.268 OA
BRANCH  22  24
HETATM   24  N6  UNL     1      44.541  17.911  52.707  1.00  0.00    -0.049 N
ATOM     25  H63 UNL     1      43.631  18.039  52.264  1.00  0.00     0.277 HD
ATOM     26  H62 UNL     1      44.889  17.070  52.247  1.00  0.00     0.277 HD
ATOM     27  H61 UNL     1      44.376  17.681  53.687  1.00  0.00     0.277 HD
ENDBRANCH  22  24
ENDBRANCH  16  17
BRANCH  16  28
HETATM   28  C15 UNL     1      44.186  24.321  49.708  1.00  0.00    -0.010 A
HETATM   29  C16 UNL     1      45.436  23.912  49.211  1.00  0.00     0.011 A
HETATM   30  C17 UNL     1      45.672  24.067  47.814  1.00  0.00     0.001 A
HETATM   31  C18 UNL     1      44.727  24.600  46.998  1.00  0.00     0.001 A
HETATM   32  C19 UNL     1      43.466  25.015  47.500  1.00  0.00     0.012 A
HETATM   33  C20 UNL     1      43.274  24.846  48.860  1.00  0.00    -0.022 A
BRANCH  33  34
HETATM   34  C21 UNL     1      42.016  25.357  49.409  1.00  0.00    -0.060 C
HETATM   35  C22 UNL     1      41.660  26.579  49.068  1.00  0.00     0.019 C
HETATM   36  C23 UNL     1      41.191  24.561  50.293  1.00  0.00     0.048 C
ENDBRANCH  33  34
ENDBRANCH  16  28
ENDBRANCH  15  16
ENDBRANCH  14  15
BRANCH  14  37
HETATM   37  N7  UNL     1      45.331  23.511  54.324  1.00  0.00    -0.232 N
HETATM   38  N8  UNL     1      45.830  24.001  55.328  1.00  0.00    -0.330 N
ATOM     39  H82 UNL     1      45.573  24.963  55.548  1.00  0.00     0.178 HD
ATOM     40  H81 UNL     1      46.476  23.508  55.944  1.00  0.00     0.178 HD
ATOM     41  H7  UNL     1      45.577  22.550  54.087  1.00  0.00     0.209 HD
ENDBRANCH  14  37
ENDBRANCH  12  14
ENDBRANCH   9  10
ENDBRANCH   8   9
ENDBRANCH   7   8
ENDBRANCH   4   7
ENDBRANCH   3   4
TORSDOF 13
ENDMDL