MODEL 4
REMARK VINA RESULT: -6.750038979      2.186      8.440
REMARK  11 active torsions:
REMARK  status: ('A' for Active; 'I' for Inactive)
REMARK    1  A    between atoms: C2_2  and  N1_3
REMARK       I    between atoms: N1_3  and  C3_4
REMARK    2  A    between atoms: N1_3  and  C5_14
REMARK    3  A    between atoms: C3_4  and  C4_6
REMARK    4  A    between atoms: C4_6  and  N2_7
REMARK    5  A    between atoms: N2_7  and  N3_9
REMARK    6  A    between atoms: C5_14  and  C7_16
REMARK       I    between atoms: C7_16  and  N5_18
REMARK    7  A    between atoms: N5_18  and  C8_20
REMARK    8  A    between atoms: N6_22  and  C10_23
REMARK    9  A    between atoms: C10_23  and  C11_24
REMARK   10  A    between atoms: C11_24  and  C12_25
REMARK   11  A    between atoms: C18_38  and  C19_39
ROOT
HETATM    1  C8  UNL     1      41.100  25.547  54.190  1.00  0.00     0.141 C
HETATM    2  C9  UNL     1      41.475  26.962  54.354  1.00  0.00     0.156 C
HETATM    3  N6  UNL     1      40.255  27.746  54.360  1.00  0.00    -0.346 N
HETATM    4  C16 UNL     1      39.148  26.824  54.204  1.00  0.00     0.251 C
HETATM    5  O3  UNL     1      38.009  27.090  53.796  1.00  0.00    -0.268 OA
HETATM    6  C17 UNL     1      39.652  25.525  54.626  1.00  0.00     0.031 C
HETATM    7  C18 UNL     1      39.032  24.559  55.249  1.00  0.00    -0.007 C
ENDROOT
BRANCH   1   8
HETATM    8  N5  UNL     1      41.217  25.022  52.848  1.00  0.00    -0.349 N
HETATM    9  C7  UNL     1      42.181  24.036  52.522  1.00  0.00     0.240 C
HETATM   10  O2  UNL     1      42.964  23.590  53.399  1.00  0.00    -0.271 OA
ATOM     11  H5  UNL     1      40.592  25.369  52.120  1.00  0.00     0.163 HD
BRANCH   9  12
HETATM   12  C5  UNL     1      42.218  23.549  51.091  1.00  0.00     0.175 C
HETATM   13  C6  UNL     1      41.265  24.337  50.280  1.00  0.00     0.042 C
BRANCH  12  14
HETATM   14  N1  UNL     1      43.568  23.523  50.581  1.00  0.00    -0.338 N
HETATM   15  C3  UNL     1      44.423  22.402  50.582  1.00  0.00     0.239 C
HETATM   16  O1  UNL     1      45.552  22.487  49.978  1.00  0.00    -0.271 OA
BRANCH  14  17
HETATM   17  C2  UNL     1      44.094  24.745  49.953  1.00  0.00     0.122 C
HETATM   18  C1  UNL     1      44.907  25.541  50.966  1.00  0.00     0.026 C
ENDBRANCH  14  17
BRANCH  15  19
HETATM   19  C4  UNL     1      44.125  21.112  51.235  1.00  0.00     0.243 C
BRANCH  19  20
HETATM   20  N2  UNL     1      44.909  20.951  52.459  1.00  0.00    -0.314 N
ATOM     21  H2  UNL     1      45.181  20.013  52.752  1.00  0.00     0.182 HD
BRANCH  20  22
HETATM   22  N3  UNL     1      45.296  22.041  53.237  1.00  0.00    -0.253 N
HETATM   23  N4  UNL     1      46.001  21.819  54.268  1.00  0.00    -0.331 N
ATOM     24  H42 UNL     1      46.269  20.864  54.506  1.00  0.00     0.178 HD
ATOM     25  H41 UNL     1      46.284  22.617  54.837  1.00  0.00     0.178 HD
ATOM     26  H3  UNL     1      45.021  22.990  52.984  1.00  0.00     0.207 HD
ENDBRANCH  20  22
ENDBRANCH  19  20
ENDBRANCH  15  19
ENDBRANCH  12  14
ENDBRANCH   9  12
ENDBRANCH   1   8
BRANCH   3  27
HETATM   27  C10 UNL     1      40.187  29.163  54.518  1.00  0.00     0.132 C
BRANCH  27  28
HETATM   28  C11 UNL     1      40.401  29.959  53.249  1.00  0.00     0.079 C
BRANCH  28  29
HETATM   29  C12 UNL     1      39.175  29.932  52.412  1.00  0.00     0.044 A
HETATM   30  C13 UNL     1      38.067  30.711  52.576  1.00  0.00     0.131 A
HETATM   31  N7  UNL     1      37.159  30.387  51.615  1.00  0.00    -0.200 N
HETATM   32  C14 UNL     1      37.708  29.401  50.852  1.00  0.00     0.677 A
ATOM     33  H7  UNL     1      36.237  30.805  51.489  1.00  0.00     0.183 HD
HETATM   34  N8  UNL     1      37.128  28.827  49.832  1.00  0.00    -0.230 N
HETATM   35  N9  UNL     1      38.929  29.148  51.361  1.00  0.00    -0.194 N
HETATM   36  C15 UNL     1      37.855  27.791  49.129  1.00  0.00     0.165 C
ATOM     37  H8  UNL     1      36.190  29.101  49.540  1.00  0.00     0.177 HD
ATOM     38  H9  UNL     1      39.577  28.452  50.992  1.00  0.00     0.184 HD
ENDBRANCH  28  29
ENDBRANCH  27  28
ENDBRANCH   3  27
BRANCH   7  39
HETATM   39  C19 UNL     1      37.611  24.566  55.662  1.00  0.00     0.009 A
HETATM   40  C20 UNL     1      37.103  25.354  56.784  1.00  0.00     0.009 A
HETATM   41  C21 UNL     1      37.369  23.871  56.989  1.00  0.00     0.009 A
ENDBRANCH   7  39
TORSDOF 11
ENDMDL