MODEL 2
REMARK VINA RESULT: -8.051009683      3.008      5.043
REMARK  17 active torsions:
REMARK  status: ('A' for Active; 'I' for Inactive)
REMARK    1  A    between atoms: N1_5  and  C5_6
REMARK    2  A    between atoms: C5_6  and  C6_7
REMARK    3  A    between atoms: C7_8  and  C8_9
REMARK    4  A    between atoms: C8_9  and  C10_11
REMARK    5  A    between atoms: C11_12  and  C12_13
REMARK    6  A    between atoms: C12_13  and  C13_14
REMARK    7  A    between atoms: C13_14  and  C14_15
REMARK    8  A    between atoms: C14_15  and  O1_16
REMARK    9  A    between atoms: C14_15  and  N2_18
REMARK   10  A    between atoms: N2_18  and  C15_20
REMARK   11  A    between atoms: C15_20  and  C16_21
REMARK   12  A    between atoms: C15_20  and  C22_38
REMARK   13  A    between atoms: C16_21  and  N3_22
REMARK   14  A    between atoms: N3_22  and  C19_25
REMARK   15  A    between atoms: C19_25  and  C20_26
REMARK   16  A    between atoms: C21_29  and  N5_30
REMARK   17  A    between atoms: N7_35  and  O2_36
ROOT
HETATM    1  N2  UNL     1      14.395 -14.607  19.453  1.00  0.00    -0.356 N
ATOM      2  H2  UNL     1      13.967 -15.198  18.740  1.00  0.00     0.162 HD
ENDROOT
BRANCH   1   3
HETATM    3  C14 UNL     1      15.666 -14.129  19.280  1.00  0.00     0.136 C
BRANCH   3   4
HETATM    4  C13 UNL     1      16.193 -13.128  18.440  1.00  0.00     0.055 C
BRANCH   4   5
HETATM    5  C12 UNL     1      16.812 -12.029  18.620  1.00  0.00     0.004 C
BRANCH   5   6
HETATM    6  C11 UNL     1      17.286 -11.445  19.856  1.00  0.00    -0.003 C
HETATM    7  C10 UNL     1      18.438 -11.713  20.429  1.00  0.00    -0.010 C
BRANCH   7   8
HETATM    8  C8  UNL     1      19.420 -12.651  19.907  1.00  0.00     0.083 C
HETATM    9  C9  UNL     1      20.337 -11.916  18.924  1.00  0.00     0.027 C
BRANCH   8  10
HETATM   10  C7  UNL     1      20.299 -12.994  21.086  1.00  0.00    -0.097 C
HETATM   11  C6  UNL     1      20.972 -13.269  22.045  1.00  0.00    -0.084 C
BRANCH  11  12
HETATM   12  C5  UNL     1      21.751 -13.613  23.230  1.00  0.00     0.241 C
BRANCH  12  13
HETATM   13  N1  UNL     1      20.922 -13.758  24.406  1.00  0.00    -0.292 N
HETATM   14  C4  UNL     1      21.058 -12.966  25.504  1.00  0.00     0.113 A
HETATM   15  C3  UNL     1      20.130 -13.379  26.448  1.00  0.00     0.045 A
HETATM   16  C2  UNL     1      19.450 -14.430  25.863  1.00  0.00     0.023 A
HETATM   17  C1  UNL     1      18.350 -15.176  26.543  1.00  0.00     0.070 C
HETATM   18  N9  UNL     1      19.943 -14.640  24.639  1.00  0.00    -0.303 N
ATOM     19  H9  UNL     1      19.624 -15.356  23.988  1.00  0.00     0.186 HD
ENDBRANCH  12  13
ENDBRANCH  11  12
ENDBRANCH   8  10
ENDBRANCH   7   8
ENDBRANCH   5   6
ENDBRANCH   4   5
ENDBRANCH   3   4
BRANCH   3  20
HETATM   20  O1  UNL     1      16.561 -14.735  20.065  1.00  0.00    -0.346 OA
ATOM     21  H1  UNL     1      17.124 -14.149  20.558  1.00  0.00     0.219 HD
ENDBRANCH   3  20
ENDBRANCH   1   3
BRANCH   1  22
HETATM   22  C15 UNL     1      13.616 -14.248  20.733  1.00  0.00     0.199 C
BRANCH  22  23
HETATM   23  C16 UNL     1      12.814 -13.084  20.290  1.00  0.00     0.271 C
BRANCH  23  24
HETATM   24  N3  UNL     1      12.957 -11.813  20.868  1.00  0.00    -0.066 N
HETATM   25  C17 UNL     1      13.491 -10.860  19.843  1.00  0.00     0.272 C
HETATM   26  C18 UNL     1      13.902 -11.699  21.965  1.00  0.00     0.272 C
BRANCH  24  27
HETATM   27  C19 UNL     1      11.717 -11.226  21.280  1.00  0.00     0.317 C
BRANCH  27  28
HETATM   28  C20 UNL     1      11.739 -10.434  22.515  1.00  0.00     0.170 A
HETATM   29  N4  UNL     1      12.310  -9.244  22.673  1.00  0.00    -0.174 N
HETATM   30  C21 UNL     1      12.120  -8.882  23.977  1.00  0.00     0.694 A
ATOM     31  H4  UNL     1      12.797  -8.704  21.957  1.00  0.00     0.185 HD
HETATM   32  N6  UNL     1      11.437  -9.866  24.565  1.00  0.00    -0.104 N
HETATM   33  N7  UNL     1      11.207 -10.806  23.678  1.00  0.00    -0.134 N
ATOM     34  H6  UNL     1      11.143  -9.885  25.542  1.00  0.00     0.208 HD
BRANCH  30  35
HETATM   35  N5  UNL     1      12.524  -7.779  24.514  1.00  0.00    -0.233 N
ATOM     36  H52 UNL     1      12.655  -6.878  24.054  1.00  0.00     0.174 HD
ATOM     37  H51 UNL     1      12.784  -7.659  25.494  1.00  0.00     0.174 HD
ENDBRANCH  30  35
BRANCH  33  38
HETATM   38  O2  UNL     1      10.519 -11.994  23.936  1.00  0.00    -0.266 OA
ATOM     39  H2  UNL     1       9.919 -12.156  24.655  1.00  0.00     0.247 HD
ENDBRANCH  33  38
ENDBRANCH  27  28
ENDBRANCH  24  27
ENDBRANCH  23  24
ENDBRANCH  22  23
BRANCH  22  40
HETATM   40  C22 UNL     1      12.911 -15.508  21.005  1.00  0.00     0.255 C
HETATM   41  N8  UNL     1      13.249 -16.375  22.073  1.00  0.00    -0.060 NA
HETATM   42  O3  UNL     1      11.925 -15.894  20.264  1.00  0.00    -0.275 OA
ENDBRANCH  22  40
ENDBRANCH   1  22
TORSDOF 17
ENDMDL