MODEL 3
REMARK VINA RESULT: -7.393885708      1.094      1.265
REMARK  13 active torsions:
REMARK  status: ('A' for Active; 'I' for Inactive)
REMARK       I    between atoms: C2_2  and  N1_4
REMARK    1  A    between atoms: N1_4  and  C3_6
REMARK    2  A    between atoms: C3_6  and  O2_7
REMARK    3  A    between atoms: C3_6  and  C4_9
REMARK    4  A    between atoms: C3_6  and  C10_16
REMARK    5  A    between atoms: C4_9  and  C5_10
REMARK    6  A    between atoms: C5_10  and  C6_11
REMARK    7  A    between atoms: C6_11  and  N2_12
REMARK       I    between atoms: C10_16  and  N3_18
REMARK    8  A    between atoms: N3_18  and  C11_20
REMARK    9  A    between atoms: C11_20  and  C14_23
REMARK   10  A    between atoms: C14_23  and  C15_24
REMARK       I    between atoms: N4_27  and  C18_29
REMARK   11  A    between atoms: C18_29  and  C19_31
REMARK   12  A    between atoms: C19_31  and  N5_32
REMARK   13  A    between atoms: N5_32  and  N6_34
ROOT
HETATM    1  C11 UNL     1      18.119 -13.267  20.545  1.00  0.00     0.031 C
HETATM    2  C12 UNL     1      18.473 -14.720  20.461  1.00  0.00     0.038 C
HETATM    3  C13 UNL     1      18.787 -12.529  19.391  1.00  0.00     0.038 C
ENDROOT
BRANCH   1   4
HETATM    4  N3  UNL     1      16.644 -13.185  20.343  1.00  0.00    -0.348 N
HETATM    5  C10 UNL     1      16.078 -11.968  19.912  1.00  0.00     0.274 C
HETATM    6  O3  UNL     1      16.797 -10.980  19.705  1.00  0.00    -0.268 OA
ATOM      7  H3  UNL     1      16.052 -13.998  20.515  1.00  0.00     0.163 HD
BRANCH   5   8
HETATM    8  C3  UNL     1      14.617 -11.856  19.702  1.00  0.00     0.217 C
BRANCH   8   9
HETATM    9  N1  UNL     1      13.924 -11.424  20.883  1.00  0.00    -0.322 N
HETATM   10  C2  UNL     1      13.738 -10.047  21.127  1.00  0.00     0.216 C
HETATM   11  C1  UNL     1      13.031  -9.531  22.335  1.00  0.00     0.117 C
HETATM   12  O1  UNL     1      14.173  -9.199  20.315  1.00  0.00    -0.274 OA
ATOM     13  H1  UNL     1      13.567 -12.113  21.544  1.00  0.00     0.166 HD
ENDBRANCH   8   9
BRANCH   8  14
HETATM   14  O2  UNL     1      14.418 -11.022  18.604  1.00  0.00    -0.363 OA
ATOM     15  H2  UNL     1      15.204 -10.566  18.328  1.00  0.00     0.213 HD
ENDBRANCH   8  14
BRANCH   8  16
HETATM   16  C4  UNL     1      14.188 -13.265  19.291  1.00  0.00     0.073 C
BRANCH  16  17
HETATM   17  C5  UNL     1      12.911 -13.679  19.921  1.00  0.00     0.033 C
BRANCH  17  18
HETATM   18  C6  UNL     1      12.481 -15.004  19.419  1.00  0.00     0.236 C
BRANCH  18  19
HETATM   19  N2  UNL     1      12.641 -16.125  20.274  1.00  0.00    -0.079 N
HETATM   20  C7  UNL     1      12.852 -15.646  21.641  1.00  0.00     0.271 C
HETATM   21  C8  UNL     1      13.696 -17.042  19.924  1.00  0.00     0.271 C
HETATM   22  C9  UNL     1      11.406 -16.882  20.313  1.00  0.00     0.271 C
ENDBRANCH  18  19
ENDBRANCH  17  18
ENDBRANCH  16  17
ENDBRANCH   8  16
ENDBRANCH   5   8
ENDBRANCH   1   4
BRANCH   1  23
HETATM   23  C14 UNL     1      18.459 -12.591  21.813  1.00  0.00     0.087 C
BRANCH  23  24
HETATM   24  C15 UNL     1      18.493 -13.340  23.044  1.00  0.00     0.013 A
HETATM   25  C16 UNL     1      19.729 -13.542  23.677  1.00  0.00     0.054 A
HETATM   26  C17 UNL     1      19.880 -14.227  24.835  1.00  0.00     0.037 A
HETATM   27  N4  UNL     1      21.054 -14.392  25.387  1.00  0.00    -0.326 N
HETATM   28  C20 UNL     1      18.749 -14.751  25.417  1.00  0.00     0.046 A
HETATM   29  C18 UNL     1      22.187 -13.830  24.738  1.00  0.00     0.241 C
ATOM     30  H4  UNL     1      21.154 -14.909  26.260  1.00  0.00     0.169 HD
HETATM   31  O4  UNL     1      22.389 -12.598  24.869  1.00  0.00    -0.271 OA
HETATM   32  C21 UNL     1      17.530 -14.565  24.815  1.00  0.00     0.090 A
HETATM   33  N8  UNL     1      17.430 -13.864  23.641  1.00  0.00    -0.369 N
ATOM     34  H8  UNL     1      16.512 -13.740  23.214  1.00  0.00     0.165 HD
BRANCH  29  35
HETATM   35  C19 UNL     1      23.102 -14.689  23.928  1.00  0.00     0.243 C
BRANCH  35  36
HETATM   36  N5  UNL     1      24.440 -14.096  23.903  1.00  0.00    -0.314 N
ATOM     37  H5  UNL     1      24.551 -13.113  24.152  1.00  0.00     0.182 HD
BRANCH  36  38
HETATM   38  N6  UNL     1      25.564 -14.835  23.552  1.00  0.00    -0.253 N
HETATM   39  N7  UNL     1      25.568 -15.324  22.365  1.00  0.00    -0.331 N
ATOM     40  H72 UNL     1      24.785 -15.171  21.730  1.00  0.00     0.178 HD
ATOM     41  H71 UNL     1      26.393 -15.866  22.108  1.00  0.00     0.178 HD
ATOM     42  H6  UNL     1      26.339 -14.978  24.198  1.00  0.00     0.207 HD
ENDBRANCH  36  38
ENDBRANCH  35  36
ENDBRANCH  29  35
ENDBRANCH  23  24
ENDBRANCH   1  23
TORSDOF 13
ENDMDL