MODEL 4
REMARK VINA RESULT: -7.675091618      2.940      6.348
REMARK  12 active torsions:
REMARK  status: ('A' for Active; 'I' for Inactive)
REMARK    1  A    between atoms: N1_2  and  C2_3
REMARK    2  A    between atoms: C2_3  and  C3_4
REMARK       I    between atoms: C3_4  and  N2_6
REMARK    3  A    between atoms: N2_6  and  C4_8
REMARK    4  A    between atoms: C5_11  and  C6_12
REMARK    5  A    between atoms: C6_12  and  C7_13
REMARK    6  A    between atoms: C7_13  and  C8_14
REMARK    7  A    between atoms: C8_14  and  C9_15
REMARK    8  A    between atoms: C9_15  and  C10_16
REMARK    9  A    between atoms: C13_23  and  C14_24
REMARK   10  A    between atoms: C14_24  and  N6_25
REMARK   11  A    between atoms: C17_28  and  C18_29
REMARK   12  A    between atoms: N7_30  and  N8_32
ROOT
HETATM    1  C4  UNL     1      16.035 -13.543  20.294  1.00  0.00     0.119 A
HETATM    2  N3  UNL     1      17.392 -13.460  20.150  1.00  0.00    -0.345 N
ATOM      3  H3  UNL     1      17.783 -12.669  19.638  1.00  0.00     0.167 HD
HETATM    4  C5  UNL     1      18.229 -14.376  20.655  1.00  0.00     0.011 A
HETATM    5  C11 UNL     1      17.640 -15.439  21.348  1.00  0.00     0.026 A
HETATM    6  C12 UNL     1      16.281 -15.531  21.500  1.00  0.00     0.018 A
HETATM    7  C13 UNL     1      15.448 -14.554  20.956  1.00  0.00     0.024 A
ENDROOT
BRANCH   7   8
HETATM    8  C14 UNL     1      14.007 -14.801  21.159  1.00  0.00     0.111 C
BRANCH   8   9
HETATM    9  N6  UNL     1      13.356 -15.663  20.255  1.00  0.00    -0.342 N
HETATM   10  C15 UNL     1      12.533 -16.629  20.794  1.00  0.00     0.096 A
HETATM   11  C16 UNL     1      11.836 -17.465  19.962  1.00  0.00     0.030 A
HETATM   12  C17 UNL     1      11.898 -17.405  18.599  1.00  0.00    -0.017 A
HETATM   13  C19 UNL     1      12.720 -16.435  18.065  1.00  0.00     0.030 A
HETATM   14  C20 UNL     1      13.425 -15.592  18.945  1.00  0.00     0.096 A
BRANCH  12  15
HETATM   15  C18 UNL     1      11.138 -18.322  17.743  1.00  0.00     0.120 C
HETATM   16  N7  UNL     1      10.454 -19.243  18.322  1.00  0.00    -0.297 N
ATOM     17  H7  UNL     1      10.481 -19.280  19.341  1.00  0.00     0.187 HD
BRANCH  16  18
HETATM   18  N8  UNL     1       9.713 -20.154  17.694  1.00  0.00    -0.250 N
HETATM   19  N9  UNL     1       9.335 -20.775  16.744  1.00  0.00    -0.331 N
ATOM     20  H92 UNL     1       9.920 -20.362  16.018  1.00  0.00     0.178 HD
ATOM     21  H91 UNL     1       8.767 -21.473  16.263  1.00  0.00     0.178 HD
ATOM     22  H8  UNL     1       9.147 -20.540  18.451  1.00  0.00     0.207 HD
ENDBRANCH  16  18
ENDBRANCH  12  15
ENDBRANCH   8   9
ENDBRANCH   7   8
BRANCH   1  23
HETATM   23  N2  UNL     1      15.264 -12.618  19.781  1.00  0.00    -0.311 N
HETATM   24  C3  UNL     1      15.422 -11.294  20.259  1.00  0.00     0.251 C
HETATM   25  O1  UNL     1      16.251 -10.523  19.755  1.00  0.00    -0.271 OA
ATOM     26  H2  UNL     1      14.576 -12.843  19.062  1.00  0.00     0.170 HD
BRANCH  24  27
HETATM   27  C2  UNL     1      14.579 -10.856  21.375  1.00  0.00     0.372 C
BRANCH  27  28
HETATM   28  N1  UNL     1      13.249 -10.462  21.056  1.00  0.00     0.080 N
HETATM   29  C1  UNL     1      13.093  -9.435  20.039  1.00  0.00     0.308 C
HETATM   30  N10 UNL     1      12.575 -11.633  20.537  1.00  0.00    -0.029 NA
HETATM   31  C21 UNL     1      11.948 -11.899  21.814  1.00  0.00     0.256 C
HETATM   32  C22 UNL     1      12.268 -10.456  22.068  1.00  0.00     0.354 C
HETATM   33  O2  UNL     1      11.859  -9.596  22.834  1.00  0.00    -0.262 OA
ENDBRANCH  27  28
ENDBRANCH  24  27
ENDBRANCH   1  23
BRANCH   4  34
HETATM   34  C6  UNL     1      19.701 -14.280  20.518  1.00  0.00     0.057 C
BRANCH  34  35
HETATM   35  C7  UNL     1      20.312 -13.177  21.343  1.00  0.00     0.006 C
BRANCH  35  36
HETATM   36  C8  UNL     1      20.247 -13.512  22.820  1.00  0.00     0.007 C
BRANCH  36  37
HETATM   37  C9  UNL     1      21.622 -13.633  23.443  1.00  0.00     0.072 C
BRANCH  37  38
HETATM   38  C10 UNL     1      21.622 -13.287  24.875  1.00  0.00     0.086 C
HETATM   39  N4  UNL     1      22.257 -14.038  25.730  1.00  0.00    -0.391 N
ATOM     40  H42 UNL     1      22.740 -14.863  25.372  1.00  0.00     0.157 HD
ATOM     41  H41 UNL     1      22.257 -13.799  26.721  1.00  0.00     0.157 HD
HETATM   42  N5  UNL     1      20.949 -12.138  25.373  1.00  0.00    -0.088 NA
ENDBRANCH  37  38
ENDBRANCH  36  37
ENDBRANCH  35  36
ENDBRANCH  34  35
ENDBRANCH   4  34
TORSDOF 12
ENDMDL