MODEL 1
REMARK VINA RESULT: -8.336100834      0.000      0.000
REMARK  11 active torsions:
REMARK  status: ('A' for Active; 'I' for Inactive)
REMARK    1  A    between atoms: C3_3  and  C4_4
REMARK    2  A    between atoms: C4_4  and  N1_5
REMARK    3  A    between atoms: N1_5  and  N2_7
REMARK    4  A    between atoms: C5_9  and  C6_10
REMARK    5  A    between atoms: C5_9  and  N6_25
REMARK    6  A    between atoms: C6_10  and  C7_11
REMARK    7  A    between atoms: C7_11  and  C8_12
REMARK    8  A    between atoms: C8_12  and  N3_13
REMARK    9  A    between atoms: N6_25  and  S1_27
REMARK   10  A    between atoms: S1_27  and  C15_30
REMARK   11  A    between atoms: N7_33  and  C18_34
ROOT
HETATM    1  C1  UNL     1      20.336 -12.580  20.658  1.00  0.00     0.097 C
HETATM    2  C2  UNL     1      19.950 -12.259  19.538  1.00  0.00    -0.186 C
HETATM    3  C3  UNL     1      19.469 -11.862  18.225  1.00  0.00     0.100 C
ENDROOT
BRANCH   3   4
HETATM    4  C4  UNL     1      17.942 -11.910  18.250  1.00  0.00     0.150 C
BRANCH   4   5
HETATM    5  N1  UNL     1      17.543 -11.741  19.648  1.00  0.00    -0.334 N
ATOM      6  H1  UNL     1      18.173 -11.333  20.339  1.00  0.00     0.180 HD
BRANCH   5   7
HETATM    7  N2  UNL     1      16.272 -12.162  19.986  1.00  0.00    -0.293 N
HETATM    8  C5  UNL     1      15.995 -13.263  20.556  1.00  0.00     0.105 C
ATOM      9  H2  UNL     1      15.495 -11.540  19.762  1.00  0.00     0.188 HD
BRANCH   8  10
HETATM   10  C6  UNL     1      17.091 -14.239  20.919  1.00  0.00     0.080 C
BRANCH  10  11
HETATM   11  C7  UNL     1      17.289 -14.134  22.386  1.00  0.00     0.028 C
BRANCH  11  12
HETATM   12  C8  UNL     1      17.984 -15.317  23.040  1.00  0.00     0.147 C
BRANCH  12  13
HETATM   13  N3  UNL     1      19.341 -14.870  23.436  1.00  0.00    -0.193 N
HETATM   14  C9  UNL     1      19.487 -13.868  24.309  1.00  0.00     0.117 A
HETATM   15  C10 UNL     1      20.747 -13.413  24.600  1.00  0.00    -0.023 A
HETATM   16  C11 UNL     1      20.935 -12.306  25.577  1.00  0.00     0.052 C
HETATM   17  C12 UNL     1      21.870 -13.955  24.020  1.00  0.00     0.030 A
HETATM   18  C13 UNL     1      23.212 -13.418  24.364  1.00  0.00     0.069 C
HETATM   19  N4  UNL     1      21.690 -14.954  23.156  1.00  0.00    -0.196 N
HETATM   20  C14 UNL     1      20.425 -15.432  22.848  1.00  0.00     0.678 A
ATOM     21  H4  UNL     1      22.504 -15.377  22.710  1.00  0.00     0.184 HD
HETATM   22  N5  UNL     1      20.323 -16.394  22.124  1.00  0.00    -0.234 N
ATOM     23  H52 UNL     1      19.393 -16.745  21.898  1.00  0.00     0.174 HD
ATOM     24  H51 UNL     1      21.138 -16.817  21.682  1.00  0.00     0.174 HD
ENDBRANCH  12  13
ENDBRANCH  11  12
ENDBRANCH  10  11
ENDBRANCH   8  10
BRANCH   8  25
HETATM   25  N6  UNL     1      14.628 -13.609  20.865  1.00  0.00    -0.268 N
ATOM     26  H6  UNL     1      14.446 -14.455  21.404  1.00  0.00     0.180 HD
BRANCH  25  27
HETATM   27  S1  UNL     1      13.304 -12.652  20.360  1.00  0.00     0.264 S
HETATM   28  O1  UNL     1      13.752 -11.907  19.102  1.00  0.00    -0.200 OA
HETATM   29  O2  UNL     1      12.115 -13.534  20.008  1.00  0.00    -0.200 OA
BRANCH  27  30
HETATM   30  C15 UNL     1      12.767 -11.495  21.545  1.00  0.00     0.082 A
HETATM   31  C16 UNL     1      13.288 -10.231  21.649  1.00  0.00     0.042 A
HETATM   32  C17 UNL     1      12.822  -9.313  22.599  1.00  0.00     0.092 A
HETATM   33  N7  UNL     1      11.845  -9.665  23.430  1.00  0.00    -0.367 N
HETATM   34  C20 UNL     1      11.308 -10.879  23.372  1.00  0.00     0.092 A
HETATM   35  C21 UNL     1      11.741 -11.815  22.447  1.00  0.00     0.042 A
BRANCH  33  36
HETATM   36  C18 UNL     1      11.302  -8.695  24.408  1.00  0.00     0.123 C
HETATM   37  C19 UNL     1      12.270  -7.499  24.394  1.00  0.00     0.027 C
ENDBRANCH  33  36
ENDBRANCH  27  30
ENDBRANCH  25  27
ENDBRANCH   8  25
ENDBRANCH   5   7
ENDBRANCH   4   5
ENDBRANCH   3   4
TORSDOF 11
ENDMDL