MODEL 1
REMARK VINA RESULT: -7.342053200      0.000      0.000
REMARK  13 active torsions:
REMARK  status: ('A' for Active; 'I' for Inactive)
REMARK    1  A    between atoms: N1_3  and  C3_5
REMARK    2  A    between atoms: C3_5  and  N2_6
REMARK    3  A    between atoms: N2_6  and  N3_7
REMARK    4  A    between atoms: N2_6  and  C4_10
REMARK    5  A    between atoms: C4_10  and  C5_11
REMARK    6  A    between atoms: C6_12  and  C7_13
REMARK    7  A    between atoms: C7_13  and  C8_14
REMARK    8  A    between atoms: C14_23  and  C15_24
REMARK    9  A    between atoms: N5_26  and  C17_27
REMARK   10  A    between atoms: C17_27  and  C18_28
REMARK   11  A    between atoms: C18_28  and  C19_29
REMARK   12  A    between atoms: C19_29  and  C20_30
REMARK   13  A    between atoms: C20_30  and  N6_31
ROOT
HETATM    1  C1  UNL     1      13.052 -14.184  21.279  1.00  0.00     0.037 C
HETATM    2  C2  UNL     1      12.468 -13.326  21.915  1.00  0.00    -0.004 C
HETATM    3  N1  UNL     1      11.802 -12.328  22.629  1.00  0.00    -0.337 N
ATOM      4  H1  UNL     1      11.355 -12.560  23.516  1.00  0.00     0.171 HD
ENDROOT
BRANCH   3   5
HETATM    5  C3  UNL     1      11.734 -10.952  22.128  1.00  0.00     0.243 C
BRANCH   5   6
HETATM    6  N2  UNL     1      12.851 -10.177  22.628  1.00  0.00    -0.209 NA
BRANCH   6   7
HETATM    7  N3  UNL     1      12.361  -9.194  23.467  1.00  0.00    -0.361 NA
ATOM      8  H32 UNL     1      12.163  -9.579  24.390  1.00  0.00     0.171 HD
ATOM      9  H31 UNL     1      13.039  -8.432  23.502  1.00  0.00     0.171 HD
ENDBRANCH   6   7
BRANCH   6  10
HETATM   10  C4  UNL     1      13.625  -9.595  21.573  1.00  0.00     0.208 C
BRANCH  10  11
HETATM   11  C5  UNL     1      14.615 -10.543  21.041  1.00  0.00    -0.090 C
HETATM   12  C6  UNL     1      15.409 -11.330  20.598  1.00  0.00    -0.103 C
BRANCH  12  13
HETATM   13  C7  UNL     1      16.393 -12.326  20.066  1.00  0.00     0.124 C
BRANCH  13  14
HETATM   14  C8  UNL     1      17.772 -11.781  20.167  1.00  0.00     0.135 C
HETATM   15  N4  UNL     1      18.579 -12.057  18.949  1.00  0.00    -0.347 N
HETATM   16  C9  UNL     1      19.702 -11.894  19.807  1.00  0.00     0.251 C
ATOM     17  H4  UNL     1      18.409 -12.264  17.965  1.00  0.00     0.163 HD
HETATM   18  O1  UNL     1      20.862 -11.462  19.793  1.00  0.00    -0.268 OA
HETATM   19  C10 UNL     1      18.822 -12.526  20.857  1.00  0.00     0.045 C
HETATM   20  C11 UNL     1      19.214 -13.323  21.798  1.00  0.00     0.024 C
HETATM   21  C12 UNL     1      20.661 -13.768  21.980  1.00  0.00     0.047 C
HETATM   22  C24 UNL     1      18.319 -13.884  22.813  1.00  0.00     0.254 C
HETATM   23  C13 UNL     1      20.998 -13.353  23.378  1.00  0.00     0.030 C
HETATM   24  C14 UNL     1      20.143 -14.005  24.451  1.00  0.00     0.092 C
HETATM   25  N5  UNL     1      18.925 -14.553  23.965  1.00  0.00    -0.323 N
HETATM   26  O2  UNL     1      17.103 -13.786  22.680  1.00  0.00    -0.267 OA
BRANCH  24  27
HETATM   27  C15 UNL     1      20.060 -12.977  25.540  1.00  0.00     0.021 C
HETATM   28  C16 UNL     1      21.204 -13.044  26.521  1.00  0.00     0.007 C
ENDBRANCH  24  27
BRANCH  25  29
HETATM   29  C17 UNL     1      18.311 -15.719  24.436  1.00  0.00     0.068 C
BRANCH  29  30
HETATM   30  C18 UNL     1      18.463 -17.028  23.808  1.00  0.00     0.046 C
BRANCH  30  31
HETATM   31  C19 UNL     1      19.698 -17.394  23.079  1.00  0.00     0.025 C
BRANCH  31  32
HETATM   32  C20 UNL     1      20.736 -18.044  23.971  1.00  0.00     0.129 C
BRANCH  32  33
HETATM   33  N6  UNL     1      21.830 -17.193  24.321  1.00  0.00    -0.352 N
HETATM   34  C21 UNL     1      22.768 -16.642  23.536  1.00  0.00     0.108 A
HETATM   35  C22 UNL     1      23.603 -15.899  24.337  1.00  0.00     0.106 A
HETATM   36  N7  UNL     1      23.134 -16.027  25.602  1.00  0.00    -0.361 N
HETATM   37  C23 UNL     1      22.049 -16.816  25.604  1.00  0.00     0.182 A
ATOM     38  H7  UNL     1      23.544 -15.590  26.428  1.00  0.00     0.166 HD
ENDBRANCH  32  33
ENDBRANCH  31  32
ENDBRANCH  30  31
ENDBRANCH  29  30
ENDBRANCH  25  29
ENDBRANCH  13  14
ENDBRANCH  12  13
ENDBRANCH  10  11
ENDBRANCH   6  10
ENDBRANCH   5   6
ENDBRANCH   3   5
TORSDOF 13
ENDMDL