MODEL 5
REMARK VINA RESULT: -7.202031556      2.535      4.663
REMARK  12 active torsions:
REMARK  status: ('A' for Active; 'I' for Inactive)
REMARK    1  A    between atoms: C2_2  and  N1_3
REMARK    2  A    between atoms: C4_5  and  N2_6
REMARK    3  A    between atoms: C4_5  and  C18_25
REMARK    4  A    between atoms: C5_8  and  C6_9
REMARK    5  A    between atoms: C5_8  and  C15_20
REMARK    6  A    between atoms: C6_9  and  C7_10
REMARK       I    between atoms: C15_20  and  N4_22
REMARK    7  A    between atoms: C18_25  and  N5_26
REMARK    8  A    between atoms: C18_25  and  C21_38
REMARK       I    between atoms: N5_26  and  C19_28
REMARK    9  A    between atoms: C19_28  and  C20_30
REMARK   10  A    between atoms: C20_30  and  N6_31
REMARK   11  A    between atoms: N6_31  and  N7_33
REMARK   12  A    between atoms: N7_33  and  N8_35
ROOT
HETATM    1  N1  UNL     1      16.422 -16.090  20.444  1.00  0.00    -0.373 N
HETATM    2  C3  UNL     1      17.762 -16.717  20.499  1.00  0.00     0.150 C
HETATM    3  C4  UNL     1      15.835 -15.670  21.516  1.00  0.00     0.111 C
ENDROOT
BRANCH   3   4
HETATM    4  N2  UNL     1      16.562 -15.849  22.705  1.00  0.00    -0.343 N
HETATM    5  C5  UNL     1      17.313 -15.008  23.353  1.00  0.00     0.083 C
ATOM      6  H2  UNL     1      16.491 -16.777  23.122  1.00  0.00     0.167 HD
BRANCH   5   7
HETATM    7  C6  UNL     1      17.430 -13.679  22.779  1.00  0.00     0.104 C
BRANCH   7   8
HETATM    8  C7  UNL     1      18.664 -13.323  22.066  1.00  0.00    -0.025 A
HETATM    9  C8  UNL     1      19.969 -13.419  22.483  1.00  0.00     0.096 A
HETATM   10  N3  UNL     1      20.770 -13.055  21.483  1.00  0.00    -0.365 N
HETATM   11  C9  UNL     1      20.054 -12.713  20.399  1.00  0.00     0.042 A
ATOM     12  H3  UNL     1      21.789 -13.038  21.534  1.00  0.00     0.165 HD
HETATM   13  C10 UNL     1      20.418 -12.243  19.142  1.00  0.00     0.030 A
HETATM   14  C14 UNL     1      18.714 -12.878  20.749  1.00  0.00    -0.002 A
HETATM   15  C11 UNL     1      19.412 -11.941  18.262  1.00  0.00     0.002 A
HETATM   16  C12 UNL     1      18.070 -12.094  18.587  1.00  0.00     0.001 A
HETATM   17  C13 UNL     1      17.736 -12.556  19.819  1.00  0.00     0.014 A
ENDBRANCH   7   8
ENDBRANCH   5   7
BRANCH   5  18
HETATM   18  C15 UNL     1      17.977 -15.562  24.508  1.00  0.00     0.265 C
HETATM   19  O1  UNL     1      17.543 -15.284  25.690  1.00  0.00    -0.266 OA
HETATM   20  N4  UNL     1      19.096 -16.410  24.492  1.00  0.00    -0.356 N
HETATM   21  C16 UNL     1      19.677 -16.924  25.743  1.00  0.00     0.152 C
HETATM   22  C17 UNL     1      19.750 -16.818  23.283  1.00  0.00     0.152 C
ENDBRANCH   5  18
ENDBRANCH   3   4
BRANCH   3  23
HETATM   23  C18 UNL     1      14.496 -15.061  21.586  1.00  0.00     0.241 C
BRANCH  23  24
HETATM   24  N5  UNL     1      14.127 -14.161  20.549  1.00  0.00    -0.340 N
HETATM   25  C19 UNL     1      13.982 -12.783  20.817  1.00  0.00     0.237 C
HETATM   26  O2  UNL     1      14.179 -12.359  21.979  1.00  0.00    -0.272 OA
ATOM     27  H5  UNL     1      13.966 -14.514  19.606  1.00  0.00     0.163 HD
BRANCH  25  28
HETATM   28  C20 UNL     1      13.604 -11.793  19.762  1.00  0.00     0.243 C
BRANCH  28  29
HETATM   29  N6  UNL     1      14.715 -10.895  19.572  1.00  0.00    -0.314 N
ATOM     30  H6  UNL     1      15.220 -10.935  18.686  1.00  0.00     0.182 HD
BRANCH  29  31
HETATM   31  N7  UNL     1      15.139  -9.976  20.527  1.00  0.00    -0.253 N
ATOM     32  H7  UNL     1      16.137  -9.876  20.713  1.00  0.00     0.207 HD
BRANCH  31  33
HETATM   33  N8  UNL     1      14.300  -9.247  21.183  1.00  0.00    -0.331 N
ATOM     34  H82 UNL     1      13.322  -9.537  21.202  1.00  0.00     0.178 HD
ATOM     35  H81 UNL     1      14.595  -8.402  21.673  1.00  0.00     0.178 HD
ENDBRANCH  31  33
ENDBRANCH  29  31
ENDBRANCH  28  29
ENDBRANCH  25  28
ENDBRANCH  23  24
BRANCH  23  36
HETATM   36  C21 UNL     1      13.405 -16.073  21.825  1.00  0.00     0.261 C
HETATM   37  N9  UNL     1      13.778 -17.319  22.376  1.00  0.00    -0.060 NA
HETATM   38  O3  UNL     1      12.204 -15.813  21.544  1.00  0.00    -0.274 OA
ENDBRANCH  23  36
ENDBRANCH   3  23
BRANCH   1  39
HETATM   39  C2  UNL     1      15.902 -16.027  19.099  1.00  0.00     0.119 C
HETATM   40  C1  UNL     1      15.273 -17.361  18.704  1.00  0.00     0.026 C
ENDBRANCH   1  39
TORSDOF 12
ENDMDL