MODEL 1
REMARK VINA RESULT: -8.020530002      0.000      0.000
REMARK  12 active torsions:
REMARK  status: ('A' for Active; 'I' for Inactive)
REMARK    1  A    between atoms: C2_2  and  C3_3
REMARK    2  A    between atoms: C3_3  and  C4_4
REMARK    3  A    between atoms: C4_4  and  C5_5
REMARK    4  A    between atoms: C5_5  and  C6_6
REMARK    5  A    between atoms: C6_6  and  C7_7
REMARK    6  A    between atoms: C7_7  and  N1_8
REMARK       I    between atoms: N1_8  and  C9_10
REMARK    7  A    between atoms: C9_10  and  C10_12
REMARK    8  A    between atoms: C10_12  and  C11_13
REMARK    9  A    between atoms: C11_13  and  C12_14
REMARK   10  A    between atoms: C12_14  and  N2_15
REMARK   11  A    between atoms: N4_19  and  N5_21
REMARK   12  A    between atoms: C19_27  and  O3_28
ROOT
HETATM    1  N2  UNL     1      16.654 -12.473  19.954  1.00  0.00     0.159 N
HETATM    2  N3  UNL     1      16.879 -13.718  19.349  1.00  0.00    -0.022 NA
HETATM    3  C13 UNL     1      16.275 -14.849  20.048  1.00  0.00     0.198 C
HETATM    4  C14 UNL     1      14.788 -14.704  20.238  1.00  0.00     0.031 C
HETATM    5  N4  UNL     1      14.053 -15.707  20.325  1.00  0.00    -0.326 N
ATOM      6  H4  UNL     1      14.555 -16.592  20.258  1.00  0.00     0.180 HD
HETATM    7  C17 UNL     1      14.431 -13.345  20.283  1.00  0.00     0.167 C
HETATM    8  C18 UNL     1      15.703 -12.788  20.931  1.00  0.00     0.362 C
HETATM    9  O2  UNL     1      15.720 -12.700  22.104  1.00  0.00    -0.262 OA
HETATM   10  C19 UNL     1      13.395 -12.560  20.825  1.00  0.00     0.159 C
HETATM   11  C20 UNL     1      13.654 -11.130  20.326  1.00  0.00     0.112 C
HETATM   12  C21 UNL     1      14.057 -10.197  21.430  1.00  0.00     0.035 C
HETATM   13  N6  UNL     1      14.585 -11.037  19.210  1.00  0.00    -0.328 N
ATOM     14  H6  UNL     1      14.267 -10.466  18.427  1.00  0.00     0.164 HD
HETATM   15  C22 UNL     1      15.875 -11.623  19.047  1.00  0.00     0.444 C
HETATM   16  O4  UNL     1      16.466 -11.401  17.981  1.00  0.00    -0.237 OA
ENDROOT
BRANCH   1  17
HETATM   17  C12 UNL     1      17.768 -11.700  20.290  1.00  0.00     0.284 C
BRANCH  17  18
HETATM   18  C11 UNL     1      19.135 -12.044  19.925  1.00  0.00     0.040 C
BRANCH  18  19
HETATM   19  C10 UNL     1      20.049 -12.693  20.914  1.00  0.00     0.105 C
BRANCH  19  20
HETATM   20  C9  UNL     1      19.864 -14.158  21.070  1.00  0.00     0.219 C
HETATM   21  N1  UNL     1      19.253 -14.718  22.211  1.00  0.00    -0.356 N
HETATM   22  C8  UNL     1      19.124 -16.183  22.259  1.00  0.00     0.152 C
HETATM   23  O1  UNL     1      20.258 -14.924  20.167  1.00  0.00    -0.273 OA
BRANCH  21  24
HETATM   24  C7  UNL     1      18.765 -13.903  23.307  1.00  0.00     0.125 C
BRANCH  24  25
HETATM   25  C6  UNL     1      17.899 -14.653  24.263  1.00  0.00     0.020 C
BRANCH  25  26
HETATM   26  C5  UNL     1      18.375 -14.594  25.683  1.00  0.00     0.002 C
BRANCH  26  27
HETATM   27  C4  UNL     1      19.862 -14.432  25.730  1.00  0.00     0.000 C
BRANCH  27  28
HETATM   28  C3  UNL     1      20.306 -13.313  26.630  1.00  0.00    -0.000 C
BRANCH  28  29
HETATM   29  C2  UNL     1      20.982 -12.246  25.784  1.00  0.00    -0.005 C
HETATM   30  C1  UNL     1      21.988 -12.900  24.892  1.00  0.00     0.005 C
ENDBRANCH  28  29
ENDBRANCH  27  28
ENDBRANCH  26  27
ENDBRANCH  25  26
ENDBRANCH  24  25
ENDBRANCH  21  24
ENDBRANCH  19  20
ENDBRANCH  18  19
ENDBRANCH  17  18
ENDBRANCH   1  17
BRANCH  10  31
HETATM   31  O3  UNL     1      13.429 -12.499  22.232  1.00  0.00    -0.392 OA
ATOM     32  H3  UNL     1      13.271 -11.625  22.569  1.00  0.00     0.210 HD
ENDBRANCH  10  31
BRANCH   5  33
HETATM   33  N5  UNL     1      12.717 -15.845  20.493  1.00  0.00    -0.240 NA
HETATM   34  C15 UNL     1      12.291 -17.076  21.119  1.00  0.00     0.135 C
HETATM   35  C16 UNL     1      12.079 -15.703  19.175  1.00  0.00     0.135 C
ENDBRANCH   5  33
TORSDOF 12
ENDMDL