MODEL 4
REMARK VINA RESULT: -8.393960172      1.825      3.159
REMARK  12 active torsions:
REMARK  status: ('A' for Active; 'I' for Inactive)
REMARK    1  A    between atoms: C3_3  and  N1_4
REMARK       I    between atoms: N1_4  and  C4_6
REMARK    2  A    between atoms: C4_6  and  C5_8
REMARK    3  A    between atoms: C5_8  and  N2_9
REMARK    4  A    between atoms: C5_8  and  C6_13
REMARK    5  A    between atoms: C6_13  and  N3_14
REMARK    6  A    between atoms: N3_14  and  N4_16
REMARK    7  A    between atoms: N6_23  and  C8_24
REMARK    8  A    between atoms: C8_24  and  C10_26
REMARK    9  A    between atoms: C10_26  and  C11_27
REMARK   10  A    between atoms: N8_36  and  C18_37
REMARK   11  A    between atoms: C18_37  and  C19_38
REMARK   12  A    between atoms: C22_41  and  C23_42
ROOT
HETATM    1  C1  UNL     1      14.914 -15.974  21.473  1.00  0.00     0.015 C
HETATM    2  C2  UNL     1      14.986 -14.843  21.055  1.00  0.00    -0.075 C
HETATM    3  C3  UNL     1      15.062 -13.466  20.519  1.00  0.00     0.189 C
HETATM    4  C7  UNL     1      16.322 -12.891  21.037  1.00  0.00     0.262 C
HETATM    5  O2  UNL     1      16.502 -12.385  22.172  1.00  0.00    -0.269 OA
HETATM    6  N6  UNL     1      17.375 -12.967  20.079  1.00  0.00    -0.344 N
HETATM    7  C21 UNL     1      16.705 -13.079  18.794  1.00  0.00     0.141 C
HETATM    8  C22 UNL     1      15.304 -13.525  19.037  1.00  0.00     0.115 C
ENDROOT
BRANCH   3   9
HETATM    9  N1  UNL     1      13.905 -12.707  20.888  1.00  0.00    -0.331 N
HETATM   10  C4  UNL     1      13.785 -11.342  20.543  1.00  0.00     0.251 C
HETATM   11  O1  UNL     1      14.712 -10.791  19.904  1.00  0.00    -0.271 OA
ATOM     12  H1  UNL     1      13.155 -13.160  21.409  1.00  0.00     0.164 HD
BRANCH  10  13
HETATM   13  C5  UNL     1      12.601 -10.528  20.908  1.00  0.00     0.293 C
BRANCH  13  14
HETATM   14  N2  UNL     1      12.566  -9.312  20.158  1.00  0.00    -0.065 N
ATOM     15  H23 UNL     1      12.808  -8.507  20.735  1.00  0.00     0.275 HD
ATOM     16  H22 UNL     1      13.334  -9.260  19.489  1.00  0.00     0.275 HD
ATOM     17  H21 UNL     1      11.662  -9.191  19.703  1.00  0.00     0.275 HD
ENDBRANCH  13  14
BRANCH  13  18
HETATM   18  C6  UNL     1      12.661 -10.294  22.403  1.00  0.00     0.183 C
BRANCH  18  19
HETATM   19  N3  UNL     1      11.365  -9.950  22.928  1.00  0.00    -0.320 N
ATOM     20  H3  UNL     1      10.857  -9.142  22.569  1.00  0.00     0.181 HD
BRANCH  19  21
HETATM   21  N4  UNL     1      10.817 -10.742  23.936  1.00  0.00    -0.254 N
HETATM   22  N5  UNL     1      10.451 -11.938  23.757  1.00  0.00    -0.331 N
ATOM     23  H52 UNL     1      10.569 -12.329  22.823  1.00  0.00     0.178 HD
ATOM     24  H51 UNL     1      10.050 -12.518  24.495  1.00  0.00     0.178 HD
ATOM     25  H4  UNL     1      10.706 -10.335  24.865  1.00  0.00     0.207 HD
ENDBRANCH  19  21
ENDBRANCH  18  19
ENDBRANCH  13  18
ENDBRANCH  10  13
ENDBRANCH   3   9
BRANCH   8  26
HETATM   26  C23 UNL     1      15.092 -14.932  18.550  1.00  0.00     0.241 C
HETATM   27  O3  UNL     1      13.988 -15.166  18.084  1.00  0.00    -0.306 OA
ENDBRANCH   8  26
BRANCH   6  28
HETATM   28  C8  UNL     1      18.779 -12.945  20.236  1.00  0.00     0.090 C
HETATM   29  C9  UNL     1      19.450 -12.700  18.886  1.00  0.00     0.033 C
BRANCH  28  30
HETATM   30  C10 UNL     1      19.409 -14.136  20.870  1.00  0.00     0.101 C
BRANCH  30  31
HETATM   31  C11 UNL     1      19.674 -13.933  22.317  1.00  0.00     0.086 A
HETATM   32  N7  UNL     1      20.662 -13.139  22.820  1.00  0.00    -0.344 N
HETATM   33  C12 UNL     1      20.638 -13.176  24.160  1.00  0.00     0.060 A
ATOM     34  H7  UNL     1      21.322 -12.598  22.261  1.00  0.00     0.167 HD
HETATM   35  C13 UNL     1      21.367 -12.600  25.178  1.00  0.00     0.032 A
HETATM   36  C17 UNL     1      19.613 -14.011  24.527  1.00  0.00     0.063 A
HETATM   37  C14 UNL     1      21.121 -12.816  26.515  1.00  0.00     0.002 A
HETATM   38  C15 UNL     1      20.070 -13.672  26.845  1.00  0.00     0.002 A
HETATM   39  C16 UNL     1      19.324 -14.264  25.849  1.00  0.00     0.032 A
HETATM   40  N8  UNL     1      19.036 -14.464  23.374  1.00  0.00    -0.331 N
BRANCH  40  41
HETATM   41  C18 UNL     1      17.918 -15.364  23.365  1.00  0.00     0.157 C
BRANCH  41  42
HETATM   42  C19 UNL     1      18.293 -16.800  23.323  1.00  0.00    -0.017 C
HETATM   43  C20 UNL     1      18.246 -17.466  22.178  1.00  0.00     0.008 C
ENDBRANCH  41  42
ENDBRANCH  40  41
ENDBRANCH  30  31
ENDBRANCH  28  30
ENDBRANCH   6  28
TORSDOF 12
ENDMDL