MODEL 2
REMARK VINA RESULT: -7.919383178      1.942      2.352
REMARK  12 active torsions:
REMARK  status: ('A' for Active; 'I' for Inactive)
REMARK    1  A    between atoms: C3_5  and  C4_6
REMARK    2  A    between atoms: C4_6  and  N2_7
REMARK    3  A    between atoms: C6_13  and  C7_14
REMARK    4  A    between atoms: C8_15  and  C9_16
REMARK    5  A    between atoms: C9_16  and  C10_17
REMARK    6  A    between atoms: C9_16  and  N5_22
REMARK    7  A    between atoms: C10_17  and  C11_18
REMARK    8  A    between atoms: C11_18  and  C12_19
REMARK       I    between atoms: N5_22  and  C13_24
REMARK    9  A    between atoms: C13_24  and  C14_26
REMARK   10  A    between atoms: C14_26  and  N7_29
REMARK       I    between atoms: N7_29  and  C16_31
REMARK   11  A    between atoms: C16_31  and  C17_33
REMARK   12  A    between atoms: C17_33  and  N8_34
ROOT
HETATM    1  C14 UNL     1      16.069 -13.814  20.236  1.00  0.00     0.284 C
HETATM    2  C15 UNL     1      15.970 -15.131  19.608  1.00  0.00     0.094 C
HETATM    3  N6  UNL     1      15.897 -16.180  19.123  1.00  0.00    -0.195 NA
ENDROOT
BRANCH   1   4
HETATM    4  C13 UNL     1      16.407 -13.907  21.668  1.00  0.00     0.255 C
HETATM    5  N5  UNL     1      16.945 -15.108  22.185  1.00  0.00    -0.351 N
ATOM      6  H5  UNL     1      17.088 -15.891  21.548  1.00  0.00     0.163 HD
HETATM    7  O2  UNL     1      16.209 -12.914  22.405  1.00  0.00    -0.270 OA
BRANCH   5   8
HETATM    8  C9  UNL     1      17.301 -15.276  23.580  1.00  0.00     0.108 C
BRANCH   8   9
HETATM    9  C8  UNL     1      18.771 -15.114  23.689  1.00  0.00    -0.001 C
HETATM   10  C7  UNL     1      19.243 -13.987  24.221  1.00  0.00     0.012 C
BRANCH  10  11
HETATM   11  C6  UNL     1      20.679 -13.791  24.344  1.00  0.00    -0.008 A
HETATM   12  C2  UNL     1      21.329 -13.217  25.415  1.00  0.00     0.033 A
HETATM   13  C1  UNL     1      20.767 -12.745  26.508  1.00  0.00     0.044 C
HETATM   14  N1  UNL     1      22.658 -13.198  25.192  1.00  0.00    -0.355 N
HETATM   15  C3  UNL     1      22.906 -13.751  23.988  1.00  0.00     0.050 A
ATOM     16  H1  UNL     1      23.361 -12.825  25.829  1.00  0.00     0.166 HD
HETATM   17  C5  UNL     1      21.676 -14.123  23.456  1.00  0.00     0.044 A
BRANCH  15  18
HETATM   18  C4  UNL     1      24.084 -13.911  23.421  1.00  0.00     0.136 C
BRANCH  18  19
HETATM   19  N2  UNL     1      25.153 -14.466  24.177  1.00  0.00    -0.316 N
HETATM   20  N3  UNL     1      25.175 -15.705  24.474  1.00  0.00    -0.345 N
ATOM     21  H32 UNL     1      24.405 -16.294  24.158  1.00  0.00     0.176 HD
ATOM     22  H31 UNL     1      25.941 -16.103  25.017  1.00  0.00     0.176 HD
ATOM     23  H2  UNL     1      25.914 -13.863  24.487  1.00  0.00     0.185 HD
ENDBRANCH  18  19
ENDBRANCH  15  18
ENDBRANCH  10  11
ENDBRANCH   8   9
BRANCH   8  24
HETATM   24  C10 UNL     1      16.972 -16.689  24.023  1.00  0.00     0.038 C
BRANCH  24  25
HETATM   25  C11 UNL     1      16.340 -17.485  22.903  1.00  0.00     0.102 C
BRANCH  25  26
HETATM   26  C12 UNL     1      14.890 -17.556  23.127  1.00  0.00     0.231 C
HETATM   27  N4  UNL     1      14.022 -16.686  22.400  1.00  0.00    -0.062 NA
HETATM   28  O1  UNL     1      14.350 -18.352  23.936  1.00  0.00    -0.277 OA
ENDBRANCH  25  26
ENDBRANCH  24  25
ENDBRANCH   8  24
ENDBRANCH   5   8
ENDBRANCH   1   4
BRANCH   1  29
HETATM   29  N7  UNL     1      14.830 -13.082  20.100  1.00  0.00    -0.335 N
HETATM   30  C16 UNL     1      14.751 -11.711  19.821  1.00  0.00     0.237 C
HETATM   31  O3  UNL     1      15.823 -11.051  19.675  1.00  0.00    -0.272 OA
ATOM     32  H7  UNL     1      13.957 -13.597  20.215  1.00  0.00     0.164 HD
BRANCH  30  33
HETATM   33  C17 UNL     1      13.427 -11.066  19.704  1.00  0.00     0.230 C
BRANCH  33  34
HETATM   34  N8  UNL     1      12.807 -10.850  20.992  1.00  0.00    -0.358 N
HETATM   35  C18 UNL     1      13.007  -9.689  21.647  1.00  0.00     0.091 A
HETATM   36  C19 UNL     1      12.424  -9.450  22.892  1.00  0.00     0.017 A
HETATM   37  C20 UNL     1      11.624 -10.397  23.488  1.00  0.00     0.003 A
HETATM   38  C21 UNL     1      11.431 -11.584  22.800  1.00  0.00     0.017 A
HETATM   39  C22 UNL     1      12.033 -11.775  21.565  1.00  0.00     0.091 A
ENDBRANCH  33  34
ENDBRANCH  30  33
ENDBRANCH   1  29
TORSDOF 12
ENDMDL