MODEL 2
REMARK VINA RESULT: -7.867690135      2.138      3.848
REMARK  10 active torsions:
REMARK  status: ('A' for Active; 'I' for Inactive)
REMARK    1  A    between atoms: C5_6  and  C6_7
REMARK    2  A    between atoms: C6_7  and  C7_8
REMARK       I    between atoms: C7_8  and  N2_10
REMARK    3  A    between atoms: N2_10  and  S1_12
REMARK    4  A    between atoms: S1_12  and  C9_14
REMARK    5  A    between atoms: C9_14  and  C10_15
REMARK    6  A    between atoms: C10_15  and  C11_16
REMARK    7  A    between atoms: C11_16  and  C12_17
REMARK    8  A    between atoms: C12_17  and  C13_18
REMARK    9  A    between atoms: N3_19  and  C14_21
REMARK   10  A    between atoms: C16_23  and  N4_24
REMARK       I    between atoms: N4_24  and  C17_26
ROOT
HETATM    1  C13 UNL     1      18.003 -12.487  20.856  1.00  0.00     0.057 C
HETATM    2  N3  UNL     1      17.519 -12.841  19.741  1.00  0.00    -0.382 N
ATOM      3  H3  UNL     1      18.020 -13.510  19.158  1.00  0.00     0.160 HD
ENDROOT
BRANCH   1   4
HETATM    4  C12 UNL     1      19.276 -12.953  21.442  1.00  0.00     0.044 C
BRANCH   4   5
HETATM    5  C11 UNL     1      19.878 -14.040  20.603  1.00  0.00     0.006 C
BRANCH   5   6
HETATM    6  C10 UNL     1      19.819 -15.316  21.375  1.00  0.00     0.011 C
BRANCH   6   7
HETATM    7  C9  UNL     1      18.683 -16.233  20.962  1.00  0.00     0.084 C
BRANCH   7   8
HETATM    8  S1  UNL     1      17.415 -16.281  22.167  1.00  0.00    -0.129 SA
HETATM    9  C8  UNL     1      15.846 -15.720  21.626  1.00  0.00     0.101 C
BRANCH   8  10
HETATM   10  N2  UNL     1      17.910 -15.442  23.578  1.00  0.00    -0.310 N
HETATM   11  C7  UNL     1      18.406 -16.176  24.684  1.00  0.00     0.231 C
HETATM   12  O1  UNL     1      18.476 -17.433  24.607  1.00  0.00    -0.272 OA
ATOM     13  H2  UNL     1      17.849 -14.425  23.621  1.00  0.00     0.176 HD
BRANCH  11  14
HETATM   14  C6  UNL     1      18.844 -15.482  25.925  1.00  0.00     0.143 C
BRANCH  14  15
HETATM   15  C5  UNL     1      20.031 -14.656  25.594  1.00  0.00    -0.034 A
HETATM   16  C4  UNL     1      19.974 -13.315  25.910  1.00  0.00     0.010 A
HETATM   17  C3  UNL     1      21.067 -12.519  25.616  1.00  0.00     0.018 A
HETATM   18  C2  UNL     1      22.177 -13.058  25.024  1.00  0.00     0.090 A
HETATM   19  N1  UNL     1      22.226 -14.357  24.720  1.00  0.00    -0.370 N
HETATM   20  C1  UNL     1      23.438 -14.896  24.080  1.00  0.00     0.154 C
HETATM   21  C22 UNL     1      21.177 -15.138  24.999  1.00  0.00     0.097 A
ENDBRANCH  14  15
ENDBRANCH  11  14
ENDBRANCH   8  10
ENDBRANCH   7   8
ENDBRANCH   6   7
ENDBRANCH   5   6
ENDBRANCH   4   5
ENDBRANCH   1   4
BRANCH   2  22
HETATM   22  C14 UNL     1      16.271 -12.303  19.298  1.00  0.00     0.178 C
HETATM   23  C15 UNL     1      15.707 -11.434  20.338  1.00  0.00     0.072 C
HETATM   24  C16 UNL     1      14.178 -11.449  20.471  1.00  0.00     0.096 C
HETATM   25  C18 UNL     1      13.823 -12.871  20.434  1.00  0.00     0.057 C
HETATM   26  C19 UNL     1      12.392 -13.290  20.486  1.00  0.00     0.176 C
HETATM   27  C21 UNL     1      14.093 -13.325  18.984  1.00  0.00     0.110 C
HETATM   28  O2  UNL     1      12.438 -14.631  20.022  1.00  0.00    -0.389 OA
HETATM   29  C20 UNL     1      13.409 -14.665  19.043  1.00  0.00     0.193 C
HETATM   30  N7  UNL     1      15.489 -13.384  18.830  1.00  0.00    -0.395 N
ATOM     31  H7  UNL     1      15.930 -14.192  18.389  1.00  0.00     0.155 HD
BRANCH  24  32
HETATM   32  N4  UNL     1      13.832 -10.734  21.657  1.00  0.00    -0.360 N
HETATM   33  C17 UNL     1      12.728  -9.904  21.892  1.00  0.00     0.182 C
HETATM   34  N5  UNL     1      12.010  -9.442  20.941  1.00  0.00    -0.374 N
HETATM   35  N6  UNL     1      12.346  -9.504  23.231  1.00  0.00    -0.064 NA
ATOM     36  H52 UNL     1      12.279  -9.724  19.998  1.00  0.00     0.158 HD
ATOM     37  H51 UNL     1      11.206  -8.838  21.112  1.00  0.00     0.158 HD
ATOM     38  H4  UNL     1      14.476 -10.843  22.440  1.00  0.00     0.162 HD
ENDBRANCH  24  32
ENDBRANCH   2  22
TORSDOF 10
ENDMDL