MODEL 4
REMARK VINA RESULT: -6.944714888      3.027      7.582
REMARK  15 active torsions:
REMARK  status: ('A' for Active; 'I' for Inactive)
REMARK    1  A    between atoms: N1_2  and  C2_3
REMARK    2  A    between atoms: C2_3  and  C3_4
REMARK    3  A    between atoms: C4_5  and  C5_6
REMARK    4  A    between atoms: C5_6  and  C6_7
REMARK    5  A    between atoms: N2_10  and  C9_11
REMARK    6  A    between atoms: C9_11  and  C10_12
REMARK    7  A    between atoms: C10_12  and  C11_13
REMARK    8  A    between atoms: C11_13  and  C12_14
REMARK    9  A    between atoms: C12_14  and  C13_15
REMARK   10  A    between atoms: C13_15  and  C14_16
REMARK   11  A    between atoms: C14_16  and  N3_17
REMARK   12  A    between atoms: C21_26  and  O1_27
REMARK   13  A    between atoms: C22_29  and  O2_30
REMARK   14  A    between atoms: C23_32  and  O3_33
REMARK   15  A    between atoms: C24_35  and  O4_36
ROOT
HETATM    1  C5  UNL     1      19.358 -12.280  19.889  1.00  0.00     0.132 C
ENDROOT
BRANCH   1   2
HETATM    2  C4  UNL     1      19.586 -13.436  20.753  1.00  0.00    -0.100 C
HETATM    3  C3  UNL     1      19.754 -14.393  21.468  1.00  0.00    -0.078 C
BRANCH   3   4
HETATM    4  C2  UNL     1      19.965 -15.553  22.306  1.00  0.00     0.333 C
BRANCH   4   5
HETATM    5  N1  UNL     1      20.433 -15.244  23.628  1.00  0.00    -0.030 N
HETATM    6  C1  UNL     1      21.748 -15.857  23.774  1.00  0.00     0.277 C
HETATM    7  C20 UNL     1      20.582 -13.815  23.743  1.00  0.00     0.275 C
HETATM    8  C21 UNL     1      21.153 -13.362  25.043  1.00  0.00     0.175 C
HETATM    9  C22 UNL     1      20.627 -14.065  26.243  1.00  0.00     0.181 C
HETATM   10  C23 UNL     1      20.145 -15.451  26.009  1.00  0.00     0.206 C
HETATM   11  C24 UNL     1      19.525 -15.675  24.659  1.00  0.00     0.355 C
BRANCH   8  12
HETATM   12  O1  UNL     1      20.824 -11.992  25.183  1.00  0.00    -0.391 OA
ATOM     13  H1  UNL     1      20.515 -11.870  26.073  1.00  0.00     0.210 HD
ENDBRANCH   8  12
BRANCH   9  14
HETATM   14  O2  UNL     1      21.683 -14.141  27.181  1.00  0.00    -0.390 OA
ATOM     15  H2  UNL     1      21.415 -14.751  27.858  1.00  0.00     0.210 HD
ENDBRANCH   9  14
BRANCH  10  16
HETATM   16  O3  UNL     1      21.127 -16.427  26.291  1.00  0.00    -0.388 OA
ATOM     17  H3  UNL     1      21.127 -17.140  25.664  1.00  0.00     0.210 HD
ENDBRANCH  10  16
BRANCH  11  18
HETATM   18  O4  UNL     1      18.389 -14.851  24.588  1.00  0.00    -0.367 OA
ATOM     19  H4  UNL     1      18.445 -14.229  25.305  1.00  0.00     0.212 HD
ENDBRANCH  11  18
ENDBRANCH   4   5
ENDBRANCH   3   4
ENDBRANCH   1   2
BRANCH   1  20
HETATM   20  C6  UNL     1      17.928 -11.933  19.927  1.00  0.00    -0.044 A
HETATM   21  C7  UNL     1      17.217 -11.777  21.100  1.00  0.00     0.025 A
HETATM   22  C8  UNL     1      15.888 -11.454  21.033  1.00  0.00     0.091 A
HETATM   23  N2  UNL     1      15.221 -11.275  19.878  1.00  0.00    -0.366 N
HETATM   24  C18 UNL     1      15.895 -11.422  18.705  1.00  0.00     0.091 A
HETATM   25  C19 UNL     1      17.226 -11.745  18.742  1.00  0.00     0.025 A
BRANCH  23  26
HETATM   26  C9  UNL     1      13.817 -10.933  19.809  1.00  0.00     0.128 C
BRANCH  26  27
HETATM   27  C10 UNL     1      13.528  -9.974  20.939  1.00  0.00     0.020 C
BRANCH  27  28
HETATM   28  C11 UNL     1      12.633 -10.577  21.980  1.00  0.00     0.002 C
BRANCH  28  29
HETATM   29  C12 UNL     1      12.194 -11.980  21.628  1.00  0.00     0.002 C
BRANCH  29  30
HETATM   30  C13 UNL     1      12.990 -13.027  22.329  1.00  0.00     0.020 C
BRANCH  30  31
HETATM   31  C14 UNL     1      12.882 -14.369  21.658  1.00  0.00     0.129 C
BRANCH  31  32
HETATM   32  N3  UNL     1      14.084 -14.688  20.931  1.00  0.00    -0.352 N
HETATM   33  C15 UNL     1      15.287 -15.036  21.443  1.00  0.00     0.108 A
HETATM   34  C16 UNL     1      16.201 -15.269  20.436  1.00  0.00     0.106 A
HETATM   35  N4  UNL     1      15.518 -15.054  19.297  1.00  0.00    -0.361 N
HETATM   36  C17 UNL     1      14.253 -14.707  19.590  1.00  0.00     0.182 A
ATOM     37  H4  UNL     1      15.902 -15.141  18.356  1.00  0.00     0.166 HD
ENDBRANCH  31  32
ENDBRANCH  30  31
ENDBRANCH  29  30
ENDBRANCH  28  29
ENDBRANCH  27  28
ENDBRANCH  26  27
ENDBRANCH  23  26
ENDBRANCH   1  20
TORSDOF 15
ENDMDL