MODEL 5
REMARK VINA RESULT: -8.673341171      1.212      2.960
REMARK  11 active torsions:
REMARK  status: ('A' for Active; 'I' for Inactive)
REMARK    1  A    between atoms: N2_6  and  O1_8
REMARK    2  A    between atoms: C6_14  and  C7_15
REMARK    3  A    between atoms: C7_15  and  N4_16
REMARK       I    between atoms: N4_16  and  C8_18
REMARK    4  A    between atoms: C8_18  and  C9_20
REMARK    5  A    between atoms: C9_20  and  C10_21
REMARK    6  A    between atoms: C10_21  and  C11_22
REMARK    7  A    between atoms: N5_24  and  C13_25
REMARK    8  A    between atoms: C13_25  and  C14_26
REMARK    9  A    between atoms: C14_26  and  C15_27
REMARK   10  A    between atoms: C15_27  and  C16_28
REMARK   11  A    between atoms: C16_28  and  N6_29
ROOT
HETATM    1  N4  UNL     1      16.139 -12.880  20.214  1.00  0.00    -0.335 N
ATOM      2  H4  UNL     1      16.439 -13.825  20.456  1.00  0.00     0.168 HD
HETATM    3  C8  UNL     1      17.097 -11.818  20.148  1.00  0.00     0.221 C
HETATM    4  O3  UNL     1      16.706 -10.671  19.849  1.00  0.00    -0.273 OA
ENDROOT
BRANCH   3   5
HETATM    5  C9  UNL     1      18.505 -12.082  20.425  1.00  0.00     0.109 C
BRANCH   5   6
HETATM    6  C10 UNL     1      18.699 -13.501  20.892  1.00  0.00     0.067 C
BRANCH   6   7
HETATM    7  C11 UNL     1      19.534 -13.529  22.121  1.00  0.00     0.026 A
HETATM    8  C12 UNL     1      19.057 -13.357  23.405  1.00  0.00     0.116 A
HETATM    9  N5  UNL     1      20.058 -13.436  24.300  1.00  0.00    -0.351 N
HETATM   10  C23 UNL     1      21.178 -13.661  23.563  1.00  0.00     0.183 A
HETATM   11  N7  UNL     1      20.858 -13.715  22.258  1.00  0.00    -0.354 N
ATOM     12  H7  UNL     1      21.515 -13.873  21.494  1.00  0.00     0.166 HD
BRANCH   9  13
HETATM   13  C13 UNL     1      19.978 -13.310  25.755  1.00  0.00     0.129 C
BRANCH  13  14
HETATM   14  C14 UNL     1      20.305 -14.648  26.343  1.00  0.00     0.022 C
BRANCH  14  15
HETATM   15  C15 UNL     1      19.116 -15.533  26.522  1.00  0.00     0.022 C
BRANCH  15  16
HETATM   16  C16 UNL     1      19.327 -16.917  25.950  1.00  0.00     0.128 C
BRANCH  16  17
HETATM   17  N6  UNL     1      18.928 -16.935  24.556  1.00  0.00    -0.366 N
HETATM   18  C17 UNL     1      17.634 -16.782  24.222  1.00  0.00     0.090 A
HETATM   19  C18 UNL     1      17.215 -16.794  22.897  1.00  0.00     0.018 A
HETATM   20  C19 UNL     1      18.141 -16.969  21.895  1.00  0.00     0.009 A
HETATM   21  C20 UNL     1      19.464 -17.125  22.240  1.00  0.00    -0.046 A
HETATM   22  C21 UNL     1      20.453 -17.311  21.149  1.00  0.00     0.049 C
HETATM   23  C22 UNL     1      19.827 -17.104  23.570  1.00  0.00     0.097 A
ENDBRANCH  16  17
ENDBRANCH  15  16
ENDBRANCH  14  15
ENDBRANCH  13  14
ENDBRANCH   9  13
ENDBRANCH   6   7
ENDBRANCH   5   6
ENDBRANCH   3   5
BRANCH   1  24
HETATM   24  C7  UNL     1      14.775 -12.617  19.943  1.00  0.00     0.122 C
BRANCH  24  25
HETATM   25  C6  UNL     1      13.933 -12.195  20.867  1.00  0.00     0.076 A
HETATM   26  C2  UNL     1      13.073 -13.042  21.537  1.00  0.00     0.052 A
HETATM   27  C1  UNL     1      13.045 -14.319  21.290  1.00  0.00     0.045 C
HETATM   28  N1  UNL     1      12.227 -12.529  22.483  1.00  0.00    -0.335 N
HETATM   29  C3  UNL     1      12.188 -11.224  22.803  1.00  0.00     0.197 A
ATOM     30  H1  UNL     1      11.597 -13.168  22.969  1.00  0.00     0.168 HD
HETATM   31  N2  UNL     1      11.367 -10.815  23.702  1.00  0.00    -0.244 N
HETATM   32  C5  UNL     1      13.044 -10.378  22.138  1.00  0.00     0.292 A
HETATM   33  C4  UNL     1      11.228  -9.466  24.130  1.00  0.00     0.187 C
HETATM   34  O2  UNL     1      13.032  -9.155  22.412  1.00  0.00    -0.264 OA
HETATM   35  N3  UNL     1      13.873 -10.896  21.206  1.00  0.00    -0.317 N
ATOM     36  H3  UNL     1      14.500 -10.253  20.723  1.00  0.00     0.169 HD
BRANCH  31  37
HETATM   37  O1  UNL     1      10.546 -11.772  24.310  1.00  0.00    -0.286 OA
ATOM     38  H1  UNL     1      10.786 -12.067  25.181  1.00  0.00     0.244 HD
ENDBRANCH  31  37
ENDBRANCH  24  25
ENDBRANCH   1  24
TORSDOF 11
ENDMDL