MODEL 5
REMARK VINA RESULT: -7.112361241      1.377      1.718
REMARK  9 active torsions:
REMARK  status: ('A' for Active; 'I' for Inactive)
REMARK       I    between atoms: C2_4  and  N3_6
REMARK    1  A    between atoms: C3_7  and  C4_8
REMARK    2  A    between atoms: C4_8  and  C5_9
REMARK    3  A    between atoms: C5_9  and  N4_10
REMARK    4  A    between atoms: C10_18  and  C11_19
REMARK    5  A    between atoms: C11_19  and  C12_20
REMARK    6  A    between atoms: C12_20  and  C13_21
REMARK    7  A    between atoms: C13_21  and  N6_22
REMARK    8  A    between atoms: C16_31  and  C17_32
REMARK    9  A    between atoms: C17_32  and  C18_33
ROOT
HETATM    1  C1  UNL     1      21.330 -16.604  25.103  1.00  0.00     0.148 C
HETATM    2  N1  UNL     1      20.923 -17.025  23.808  1.00  0.00    -0.369 N
ATOM      3  H1  UNL     1      21.386 -17.858  23.443  1.00  0.00     0.161 HD
HETATM    4  C2  UNL     1      20.055 -16.492  23.048  1.00  0.00     0.188 C
HETATM    5  N2  UNL     1      19.820 -17.105  21.785  1.00  0.00    -0.064 NA
HETATM    6  N3  UNL     1      19.290 -15.331  23.343  1.00  0.00    -0.321 N
HETATM    7  C3  UNL     1      17.937 -15.650  23.657  1.00  0.00     0.191 C
HETATM    8  N5  UNL     1      17.209 -15.692  22.379  1.00  0.00    -0.338 N
ATOM      9  H5  UNL     1      16.827 -16.608  22.145  1.00  0.00     0.164 HD
HETATM   10  C9  UNL     1      16.946 -14.704  21.428  1.00  0.00     0.242 C
HETATM   11  O1  UNL     1      16.253 -15.123  20.480  1.00  0.00    -0.271 OA
HETATM   12  C10 UNL     1      17.294 -13.276  21.276  1.00  0.00     0.176 C
HETATM   13  N9  UNL     1      18.716 -13.068  21.146  1.00  0.00    -0.346 N
ATOM     14  H9  UNL     1      18.984 -12.610  20.275  1.00  0.00     0.163 HD
HETATM   15  C15 UNL     1      19.818 -13.374  21.988  1.00  0.00     0.241 C
HETATM   16  O2  UNL     1      20.876 -12.892  21.509  1.00  0.00    -0.271 OA
HETATM   17  C16 UNL     1      20.046 -14.099  23.260  1.00  0.00     0.181 C
ENDROOT
BRANCH  12  18
HETATM   18  C11 UNL     1      16.499 -12.714  20.152  1.00  0.00     0.036 C
BRANCH  18  19
HETATM   19  C12 UNL     1      15.716 -11.482  20.507  1.00  0.00     0.022 C
BRANCH  19  20
HETATM   20  C13 UNL     1      14.244 -11.812  20.225  1.00  0.00     0.122 C
BRANCH  20  21
HETATM   21  N6  UNL     1      13.949 -13.181  20.543  1.00  0.00    -0.367 N
HETATM   22  C14 UNL     1      13.342 -13.436  21.649  1.00  0.00     0.196 C
HETATM   23  N7  UNL     1      13.002 -14.748  22.063  1.00  0.00    -0.067 NA
HETATM   24  N8  UNL     1      12.974 -12.374  22.534  1.00  0.00    -0.067 NA
ATOM     25  H6  UNL     1      14.213 -13.934  19.908  1.00  0.00     0.161 HD
ENDBRANCH  20  21
ENDBRANCH  19  20
ENDBRANCH  18  19
ENDBRANCH  12  18
BRANCH   7  26
HETATM   26  C4  UNL     1      17.732 -16.939  24.354  1.00  0.00     0.075 C
BRANCH  26  27
HETATM   27  C5  UNL     1      16.351 -17.510  24.049  1.00  0.00     0.240 C
BRANCH  27  28
HETATM   28  N4  UNL     1      16.231 -18.872  24.535  1.00  0.00    -0.078 N
HETATM   29  C6  UNL     1      16.738 -19.016  25.884  1.00  0.00     0.271 C
HETATM   30  C7  UNL     1      17.011 -19.745  23.678  1.00  0.00     0.271 C
HETATM   31  C8  UNL     1      14.845 -19.297  24.553  1.00  0.00     0.271 C
ENDBRANCH  27  28
ENDBRANCH  26  27
ENDBRANCH   7  26
BRANCH  17  32
HETATM   32  C17 UNL     1      19.715 -13.267  24.462  1.00  0.00     0.039 C
BRANCH  32  33
HETATM   33  C18 UNL     1      20.880 -12.790  25.245  1.00  0.00    -0.020 C
HETATM   34  C19 UNL     1      20.684 -13.246  26.686  1.00  0.00     0.009 C
HETATM   35  C20 UNL     1      22.212 -13.260  24.783  1.00  0.00     0.009 C
ENDBRANCH  32  33
ENDBRANCH  17  32
TORSDOF 9
ENDMDL