MODEL 5
REMARK VINA RESULT: -7.746446760      1.444      2.211
REMARK  11 active torsions:
REMARK  status: ('A' for Active; 'I' for Inactive)
REMARK    1  A    between atoms: N3_8  and  C4_9
REMARK    2  A    between atoms: C4_9  and  C5_10
REMARK    3  A    between atoms: C9_16  and  N5_17
REMARK    4  A    between atoms: N5_17  and  C10_19
REMARK    5  A    between atoms: C10_19  and  C11_20
REMARK    6  A    between atoms: C11_20  and  C12_21
REMARK    7  A    between atoms: C12_21  and  N6_22
REMARK    8  A    between atoms: N6_22  and  C15_25
REMARK    9  A    between atoms: C15_25  and  C16_26
REMARK   10  A    between atoms: C16_26  and  C17_27
REMARK   11  A    between atoms: C17_27  and  N7_28
ROOT
HETATM    1  C5  UNL     1      15.506 -12.016  20.561  1.00  0.00    -0.038 A
HETATM    2  C6  UNL     1      16.661 -11.446  20.058  1.00  0.00     0.011 A
HETATM    3  C7  UNL     1      17.918 -11.913  20.398  1.00  0.00     0.033 A
HETATM    4  C8  UNL     1      18.061 -12.982  21.266  1.00  0.00     0.076 A
HETATM    5  N4  UNL     1      19.126 -13.628  21.759  1.00  0.00    -0.190 N
ATOM      6  H4  UNL     1      20.102 -13.413  21.553  1.00  0.00     0.184 HD
HETATM    7  C9  UNL     1      18.695 -14.600  22.568  1.00  0.00     0.679 A
HETATM    8  N10 UNL     1      17.356 -14.547  22.569  1.00  0.00    -0.190 N
ATOM      9  H10 UNL     1      16.751 -15.174  23.101  1.00  0.00     0.184 HD
HETATM   10  C19 UNL     1      16.918 -13.558  21.776  1.00  0.00     0.077 A
HETATM   11  C20 UNL     1      15.656 -13.081  21.426  1.00  0.00     0.041 A
ENDROOT
BRANCH   7  12
HETATM   12  N5  UNL     1      19.417 -15.458  23.247  1.00  0.00    -0.226 N
ATOM     13  H5  UNL     1      20.327 -15.767  22.903  1.00  0.00     0.177 HD
BRANCH  12  14
HETATM   14  C10 UNL     1      18.885 -15.957  24.508  1.00  0.00     0.139 C
BRANCH  14  15
HETATM   15  C11 UNL     1      19.909 -16.733  25.276  1.00  0.00     0.048 C
BRANCH  15  16
HETATM   16  C12 UNL     1      20.612 -17.794  24.513  1.00  0.00     0.238 C
BRANCH  16  17
HETATM   17  N6  UNL     1      22.024 -17.689  24.388  1.00  0.00    -0.075 N
HETATM   18  C13 UNL     1      22.580 -18.871  25.086  1.00  0.00     0.272 C
HETATM   19  C14 UNL     1      22.546 -17.738  23.056  1.00  0.00     0.272 C
BRANCH  17  20
HETATM   20  C15 UNL     1      22.601 -16.554  25.075  1.00  0.00     0.238 C
BRANCH  20  21
HETATM   21  C16 UNL     1      23.288 -15.606  24.115  1.00  0.00     0.047 C
BRANCH  21  22
HETATM   22  C17 UNL     1      22.593 -14.247  24.126  1.00  0.00     0.123 C
BRANCH  22  23
HETATM   23  N7  UNL     1      22.114 -13.919  25.445  1.00  0.00    -0.367 N
HETATM   24  C18 UNL     1      21.098 -13.174  25.674  1.00  0.00     0.196 C
HETATM   25  N8  UNL     1      20.757 -12.947  27.042  1.00  0.00    -0.067 NA
HETATM   26  N9  UNL     1      20.312 -12.574  24.653  1.00  0.00    -0.067 NA
ATOM     27  H7  UNL     1      22.615 -14.304  26.245  1.00  0.00     0.161 HD
ENDBRANCH  22  23
ENDBRANCH  21  22
ENDBRANCH  20  21
ENDBRANCH  17  20
ENDBRANCH  16  17
ENDBRANCH  15  16
ENDBRANCH  14  15
ENDBRANCH  12  14
ENDBRANCH   7  12
BRANCH   1  28
HETATM   28  C4  UNL     1      14.192 -11.495  20.177  1.00  0.00     0.169 C
BRANCH  28  29
HETATM   29  N3  UNL     1      13.513 -10.785  21.244  1.00  0.00    -0.334 N
HETATM   30  C3  UNL     1      13.726  -9.480  21.494  1.00  0.00     0.201 A
HETATM   31  N2  UNL     1      13.095  -8.823  22.484  1.00  0.00    -0.188 N
HETATM   32  C2  UNL     1      12.210  -9.451  23.277  1.00  0.00     0.681 A
ATOM     33  H2  UNL     1      13.291  -7.833  22.636  1.00  0.00     0.185 HD
HETATM   34  N1  UNL     1      11.597  -8.832  24.231  1.00  0.00    -0.230 N
HETATM   35  N11 UNL     1      11.994 -10.755  23.030  1.00  0.00    -0.184 N
HETATM   36  C1  UNL     1      11.879  -7.419  24.443  1.00  0.00     0.165 C
ATOM     37  H1  UNL     1      10.929  -9.323  24.825  1.00  0.00     0.177 HD
HETATM   38  C21 UNL     1      12.626 -11.414  22.039  1.00  0.00     0.204 A
HETATM   39  C22 UNL     1      11.032 -11.448  23.887  1.00  0.00     0.176 C
ENDBRANCH  28  29
ENDBRANCH   1  28
TORSDOF 11
ENDMDL