MODEL 4
REMARK VINA RESULT: -8.310287128      3.784      7.858
REMARK  11 active torsions:
REMARK  status: ('A' for Active; 'I' for Inactive)
REMARK    1  A    between atoms: C6_6  and  C7_7
REMARK    2  A    between atoms: C7_7  and  C8_8
REMARK    3  A    between atoms: C8_8  and  C9_9
REMARK    4  A    between atoms: N1_13  and  C13_14
REMARK    5  A    between atoms: C15_18  and  C16_19
REMARK    6  A    between atoms: C15_18  and  C17_25
REMARK    7  A    between atoms: N3_20  and  N4_22
REMARK    8  A    between atoms: C17_25  and  S1_26
REMARK    9  A    between atoms: C19_29  and  O2_30
REMARK   10  A    between atoms: C20_32  and  C21_33
REMARK   11  A    between atoms: C21_33  and  O3_34
ROOT
HETATM    1  C13 UNL     1      16.135 -15.522  20.872  1.00  0.00     0.121 C
HETATM    2  C14 UNL     1      16.274 -14.224  20.803  1.00  0.00     0.031 C
HETATM    3  N2  UNL     1      16.196 -13.490  19.544  1.00  0.00    -0.374 N
ATOM      4  H2  UNL     1      16.631 -13.676  18.640  1.00  0.00     0.160 HD
HETATM    5  C15 UNL     1      15.295 -12.388  19.974  1.00  0.00     0.101 C
HETATM    6  C19 UNL     1      15.963 -11.928  21.218  1.00  0.00     0.164 C
HETATM    7  C20 UNL     1      16.523 -13.208  21.852  1.00  0.00     0.092 C
ENDROOT
BRANCH   1   8
HETATM    8  N1  UNL     1      16.185 -16.343  22.015  1.00  0.00    -0.341 N
HETATM    9  C12 UNL     1      15.106 -17.079  22.412  1.00  0.00     0.096 A
HETATM   10  C11 UNL     1      15.147 -17.850  23.550  1.00  0.00     0.018 A
HETATM   11  C10 UNL     1      16.317 -17.862  24.288  1.00  0.00     0.010 A
HETATM   12  C9  UNL     1      17.416 -17.139  23.921  1.00  0.00    -0.042 A
HETATM   13  C22 UNL     1      17.328 -16.373  22.761  1.00  0.00     0.103 A
BRANCH  12  14
HETATM   14  C8  UNL     1      18.644 -17.107  24.725  1.00  0.00     0.044 C
BRANCH  14  15
HETATM   15  C7  UNL     1      18.691 -16.204  25.877  1.00  0.00     0.043 C
BRANCH  15  16
HETATM   16  C6  UNL     1      19.548 -15.034  25.848  1.00  0.00    -0.057 A
HETATM   17  C5  UNL     1      19.894 -14.265  26.919  1.00  0.00     0.007 A
HETATM   18  C4  UNL     1      20.748 -13.205  26.758  1.00  0.00     0.001 A
HETATM   19  C3  UNL     1      21.284 -12.870  25.549  1.00  0.00     0.007 A
HETATM   20  C2  UNL     1      20.956 -13.625  24.445  1.00  0.00    -0.061 A
HETATM   21  C1  UNL     1      21.521 -13.315  23.100  1.00  0.00     0.048 C
HETATM   22  C23 UNL     1      20.102 -14.685  24.610  1.00  0.00     0.013 A
ENDBRANCH  15  16
ENDBRANCH  14  15
ENDBRANCH  12  14
ENDBRANCH   1   8
BRANCH   7  23
HETATM   23  C21 UNL     1      18.013 -13.005  22.110  1.00  0.00     0.177 C
BRANCH  23  24
HETATM   24  O3  UNL     1      18.760 -13.413  21.041  1.00  0.00    -0.400 OA
ATOM     25  H3  UNL     1      18.373 -14.174  20.622  1.00  0.00     0.209 HD
ENDBRANCH  23  24
ENDBRANCH   7  23
BRANCH   5  26
HETATM   26  C16 UNL     1      15.288 -11.343  18.908  1.00  0.00     0.114 C
HETATM   27  N3  UNL     1      16.066 -11.488  17.910  1.00  0.00    -0.320 N
ATOM     28  H3  UNL     1      16.665 -12.313  17.877  1.00  0.00     0.185 HD
BRANCH  27  29
HETATM   29  N4  UNL     1      16.138 -10.565  16.854  1.00  0.00    -0.346 N
ATOM     30  H42 UNL     1      16.411  -9.609  17.082  1.00  0.00     0.176 HD
ATOM     31  H41 UNL     1      15.931 -10.810  15.885  1.00  0.00     0.176 HD
ENDBRANCH  27  29
ENDBRANCH   5  26
BRANCH   5  32
HETATM   32  C17 UNL     1      13.952 -13.011  20.115  1.00  0.00     0.147 C
BRANCH  32  33
HETATM   33  S1  UNL     1      12.809 -12.224  21.161  1.00  0.00     0.013 S
HETATM   34  C18 UNL     1      12.813 -10.483  21.178  1.00  0.00     0.127 C
HETATM   35  O1  UNL     1      12.977 -12.801  22.730  1.00  0.00    -0.258 OA
ENDBRANCH  32  33
ENDBRANCH   5  32
BRANCH   6  36
HETATM   36  O2  UNL     1      17.072 -11.147  20.825  1.00  0.00    -0.392 OA
ATOM     37  H2  UNL     1      17.517 -10.879  21.620  1.00  0.00     0.210 HD
ENDBRANCH   6  36
TORSDOF 11
ENDMDL