MODEL 2
REMARK VINA RESULT: -6.924800001      2.405      5.701
REMARK  13 active torsions:
REMARK  status: ('A' for Active; 'I' for Inactive)
REMARK    1  A    between atoms: C4_5  and  N2_6
REMARK    2  A    between atoms: N2_6  and  C5_8
REMARK    3  A    between atoms: C5_8  and  N3_10
REMARK    4  A    between atoms: C7_17  and  C8_18
REMARK       I    between atoms: C8_18  and  N7_20
REMARK    5  A    between atoms: N7_20  and  C9_22
REMARK    6  A    between atoms: C11_24  and  C12_25
REMARK    7  A    between atoms: C12_25  and  C13_26
REMARK    8  A    between atoms: C13_26  and  C14_27
REMARK    9  A    between atoms: C14_27  and  N8_28
REMARK   10  A    between atoms: N8_28  and  C15_31
REMARK   11  A    between atoms: C15_31  and  C16_32
REMARK   12  A    between atoms: C16_32  and  C17_33
REMARK   13  A    between atoms: C17_33  and  N9_34
ROOT
HETATM    1  C1  UNL     1      17.574 -15.947  21.962  1.00  0.00     0.124 C
HETATM    2  C2  UNL     1      16.430 -15.559  21.733  1.00  0.00    -0.068 C
HETATM    3  N1  UNL     1      15.116 -15.147  21.475  1.00  0.00    -0.290 N
HETATM    4  C3  UNL     1      14.147 -16.067  21.301  1.00  0.00     0.154 A
HETATM    5  C4  UNL     1      12.861 -15.649  21.052  1.00  0.00     0.124 A
HETATM    6  N6  UNL     1      12.599 -14.339  20.986  1.00  0.00    -0.335 N
ATOM      7  H6  UNL     1      11.638 -14.051  20.802  1.00  0.00     0.168 HD
HETATM    8  C7  UNL     1      13.542 -13.364  21.152  1.00  0.00     0.126 A
HETATM    9  C11 UNL     1      14.819 -13.810  21.402  1.00  0.00     0.056 A
ENDROOT
BRANCH   9  10
HETATM   10  C12 UNL     1      15.920 -12.881  21.648  1.00  0.00     0.062 C
BRANCH  10  11
HETATM   11  C13 UNL     1      16.536 -12.445  20.338  1.00  0.00     0.033 C
BRANCH  11  12
HETATM   12  C14 UNL     1      17.864 -11.726  20.574  1.00  0.00     0.232 C
BRANCH  12  13
HETATM   13  N8  UNL     1      18.517 -12.390  21.657  1.00  0.00    -0.075 N
ATOM     14  H82 UNL     1      18.678 -11.744  22.431  1.00  0.00     0.277 HD
ATOM     15  H81 UNL     1      17.883 -13.046  22.113  1.00  0.00     0.277 HD
BRANCH  13  16
HETATM   16  C15 UNL     1      19.745 -13.048  21.279  1.00  0.00     0.233 C
BRANCH  16  17
HETATM   17  C16 UNL     1      20.472 -13.650  22.456  1.00  0.00     0.055 C
BRANCH  17  18
HETATM   18  C17 UNL     1      19.724 -13.351  23.751  1.00  0.00     0.237 C
BRANCH  18  19
HETATM   19  N9  UNL     1      20.546 -13.523  24.906  1.00  0.00    -0.079 N
HETATM   20  C18 UNL     1      21.774 -14.171  24.513  1.00  0.00     0.271 C
HETATM   21  C19 UNL     1      19.895 -14.367  25.904  1.00  0.00     0.271 C
HETATM   22  C20 UNL     1      20.886 -12.254  25.522  1.00  0.00     0.271 C
ENDBRANCH  18  19
ENDBRANCH  17  18
ENDBRANCH  16  17
ENDBRANCH  13  16
ENDBRANCH  12  13
ENDBRANCH  11  12
ENDBRANCH  10  11
ENDBRANCH   9  10
BRANCH   5  23
HETATM   23  N2  UNL     1      11.943 -16.542  20.888  1.00  0.00    -0.318 N
ATOM     24  H2  UNL     1      11.052 -16.435  21.372  1.00  0.00     0.170 HD
BRANCH  23  25
HETATM   25  C5  UNL     1      12.145 -17.668  20.051  1.00  0.00     0.179 C
HETATM   26  S1  UNL     1      12.041 -19.155  20.708  1.00  0.00    -0.040 SA
BRANCH  25  27
HETATM   27  N3  UNL     1      12.434 -17.563  18.668  1.00  0.00    -0.310 N
HETATM   28  C6  UNL     1      11.766 -16.869  17.830  1.00  0.00     0.203 C
HETATM   29  N4  UNL     1      10.647 -16.128  18.258  1.00  0.00    -0.066 NA
HETATM   30  N5  UNL     1      12.149 -16.841  16.474  1.00  0.00    -0.066 NA
ATOM     31  H3  UNL     1      13.237 -18.084  18.315  1.00  0.00     0.170 HD
ENDBRANCH  25  27
ENDBRANCH  23  25
ENDBRANCH   5  23
BRANCH   8  32
HETATM   32  C8  UNL     1      13.194 -11.963  21.061  1.00  0.00     0.270 C
HETATM   33  O1  UNL     1      13.272 -11.277  20.019  1.00  0.00    -0.266 OA
HETATM   34  N7  UNL     1      12.727 -11.267  22.196  1.00  0.00    -0.356 N
ATOM     35  H7  UNL     1      12.633 -11.749  23.090  1.00  0.00     0.162 HD
BRANCH  34  36
HETATM   36  C9  UNL     1      12.383  -9.867  22.088  1.00  0.00     0.118 C
HETATM   37  C10 UNL     1      11.837  -9.327  23.398  1.00  0.00     0.026 C
ENDBRANCH  34  36
ENDBRANCH   8  32
TORSDOF 13
ENDMDL