MODEL 4
REMARK VINA RESULT: -7.577283183      3.410      8.695
REMARK  13 active torsions:
REMARK  status: ('A' for Active; 'I' for Inactive)
REMARK    1  A    between atoms: C2_2  and  C3_3
REMARK    2  A    between atoms: N1_6  and  C6_7
REMARK    3  A    between atoms: C6_7  and  C7_8
REMARK    4  A    between atoms: C7_8  and  C8_9
REMARK    5  A    between atoms: C8_9  and  C9_10
REMARK    6  A    between atoms: C9_10  and  C10_11
REMARK    7  A    between atoms: C10_11  and  N2_12
REMARK    8  A    between atoms: C12_14  and  C13_15
REMARK    9  A    between atoms: C13_15  and  C14_16
REMARK   10  A    between atoms: C14_16  and  C15_17
REMARK   11  A    between atoms: C15_17  and  N3_18
REMARK   12  A    between atoms: N4_22  and  C18_24
REMARK   13  A    between atoms: C21_34  and  O2_35
ROOT
HETATM    1  N2  UNL     1      18.042 -13.680  22.223  1.00  0.00    -0.322 N
HETATM    2  C11 UNL     1      18.969 -13.241  23.073  1.00  0.00     0.109 A
HETATM    3  C12 UNL     1      20.117 -13.927  23.441  1.00  0.00     0.024 A
HETATM    4  C17 UNL     1      20.350 -15.170  22.902  1.00  0.00     0.122 A
HETATM    5  N4  UNL     1      21.286 -15.904  23.106  1.00  0.00    -0.313 N
ATOM      6  H4  UNL     1      21.116 -16.729  22.532  1.00  0.00     0.170 HD
HETATM    7  N7  UNL     1      19.356 -15.611  22.007  1.00  0.00    -0.307 N
ATOM      8  H7  UNL     1      19.472 -16.526  21.573  1.00  0.00     0.171 HD
HETATM    9  C21 UNL     1      18.292 -14.912  21.700  1.00  0.00     0.224 A
ENDROOT
BRANCH   1  10
HETATM   10  C10 UNL     1      16.874 -12.948  21.855  1.00  0.00     0.132 C
BRANCH  10  11
HETATM   11  C9  UNL     1      17.016 -11.942  20.783  1.00  0.00     0.020 C
BRANCH  11  12
HETATM   12  C8  UNL     1      16.396 -12.240  19.464  1.00  0.00     0.003 C
BRANCH  12  13
HETATM   13  C7  UNL     1      15.144 -11.433  19.230  1.00  0.00     0.020 C
BRANCH  13  14
HETATM   14  C6  UNL     1      13.965 -12.080  19.880  1.00  0.00     0.128 C
BRANCH  14  15
HETATM   15  N1  UNL     1      13.328 -11.366  20.923  1.00  0.00    -0.366 N
HETATM   16  C5  UNL     1      12.449 -11.972  21.765  1.00  0.00     0.091 A
HETATM   17  C4  UNL     1      11.814 -11.296  22.781  1.00  0.00     0.024 A
HETATM   18  C3  UNL     1      12.066  -9.944  22.970  1.00  0.00    -0.056 A
HETATM   19  C23 UNL     1      12.958  -9.357  22.106  1.00  0.00     0.024 A
HETATM   20  C22 UNL     1      13.593 -10.049  21.084  1.00  0.00     0.091 A
BRANCH  18  21
HETATM   21  C2  UNL     1      11.387  -9.195  24.065  1.00  0.00     0.034 C
HETATM   22  C1  UNL     1      12.111  -7.866  24.267  1.00  0.00     0.010 C
ENDBRANCH  18  21
ENDBRANCH  14  15
ENDBRANCH  13  14
ENDBRANCH  12  13
ENDBRANCH  11  12
ENDBRANCH  10  11
ENDBRANCH   1  10
BRANCH   9  23
HETATM   23  O2  UNL     1      17.369 -15.449  20.797  1.00  0.00    -0.332 OA
ATOM     24  H2  UNL     1      16.933 -14.858  20.195  1.00  0.00     0.221 HD
ENDBRANCH   9  23
BRANCH   3  25
HETATM   25  C13 UNL     1      21.060 -13.320  24.396  1.00  0.00     0.018 C
BRANCH  25  26
HETATM   26  C14 UNL     1      20.770 -13.038  25.645  1.00  0.00     0.018 C
BRANCH  26  27
HETATM   27  C15 UNL     1      20.461 -14.081  26.599  1.00  0.00     0.082 C
BRANCH  27  28
HETATM   28  N3  UNL     1      19.394 -14.784  26.651  1.00  0.00    -0.403 N
HETATM   29  C16 UNL     1      19.401 -16.232  26.505  1.00  0.00     0.145 C
ATOM     30  H3  UNL     1      18.503 -14.311  26.800  1.00  0.00     0.158 HD
ENDBRANCH  27  28
ENDBRANCH  26  27
ENDBRANCH  25  26
ENDBRANCH   3  25
BRANCH   5  31
HETATM   31  C18 UNL     1      22.443 -16.136  23.736  1.00  0.00     0.184 A
HETATM   32  N5  UNL     1      23.664 -15.831  23.309  1.00  0.00    -0.353 N
HETATM   33  C19 UNL     1      24.672 -16.227  24.242  1.00  0.00     0.225 A
ATOM     34  H5  UNL     1      23.859 -15.370  22.420  1.00  0.00     0.163 HD
HETATM   35  C20 UNL     1      23.952 -16.813  25.395  1.00  0.00     0.241 A
HETATM   36  O1  UNL     1      24.446 -17.273  26.471  1.00  0.00    -0.271 OA
HETATM   37  N6  UNL     1      22.588 -16.756  25.051  1.00  0.00    -0.297 N
ATOM     38  H6  UNL     1      21.820 -17.096  25.630  1.00  0.00     0.172 HD
ENDBRANCH   5  31
TORSDOF 13
ENDMDL