MODEL 3
REMARK VINA RESULT: -5.818987383      4.084      5.462
REMARK  12 active torsions:
REMARK  status: ('A' for Active; 'I' for Inactive)
REMARK    1  A    between atoms: C3_3  and  C4_4
REMARK    2  A    between atoms: C4_4  and  C5_5
REMARK       I    between atoms: C5_5  and  N1_7
REMARK    3  A    between atoms: N1_7  and  C6_9
REMARK    4  A    between atoms: C7_10  and  N2_11
REMARK       I    between atoms: N2_11  and  C8_13
REMARK       I    between atoms: N4_15  and  C9_17
REMARK    5  A    between atoms: C11_20  and  O3_21
REMARK    6  A    between atoms: C12_23  and  C13_24
REMARK    7  A    between atoms: C13_24  and  O4_25
REMARK    8  A    between atoms: N5_27  and  C14_28
REMARK    9  A    between atoms: N5_27  and  C18_32
REMARK   10  A    between atoms: C14_28  and  C15_29
REMARK   11  A    between atoms: C18_32  and  C19_33
REMARK   12  A    between atoms: C19_33  and  N6_34
ROOT
HETATM    1  C1  UNL     1      16.069 -11.760  18.784  1.00  0.00     0.012 C
HETATM    2  C2  UNL     1      17.158 -11.783  19.327  1.00  0.00    -0.117 C
HETATM    3  C3  UNL     1      18.468 -11.796  19.997  1.00  0.00     0.102 C
ENDROOT
BRANCH   3   4
HETATM    4  C4  UNL     1      18.276 -12.459  21.338  1.00  0.00     0.115 C
BRANCH   4   5
HETATM    5  C5  UNL     1      18.944 -13.781  21.399  1.00  0.00     0.220 C
HETATM    6  O1  UNL     1      19.942 -14.037  20.661  1.00  0.00    -0.274 OA
HETATM    7  N1  UNL     1      18.496 -14.803  22.280  1.00  0.00    -0.331 N
ATOM      8  H1  UNL     1      17.693 -14.605  22.877  1.00  0.00     0.164 HD
BRANCH   7   9
HETATM    9  C6  UNL     1      19.106 -16.093  22.377  1.00  0.00     0.318 C
HETATM   10  C7  UNL     1      20.445 -16.119  23.044  1.00  0.00     0.165 C
HETATM   11  C11 UNL     1      20.339 -17.230  24.056  1.00  0.00     0.178 C
HETATM   12  C12 UNL     1      18.858 -17.283  24.349  1.00  0.00     0.248 C
HETATM   13  N5  UNL     1      18.256 -17.057  23.062  1.00  0.00    -0.024 N
BRANCH  10  14
HETATM   14  N2  UNL     1      20.842 -14.858  23.587  1.00  0.00    -0.353 N
HETATM   15  C8  UNL     1      22.099 -14.605  24.198  1.00  0.00     0.191 C
HETATM   16  N3  UNL     1      23.230 -15.299  23.688  1.00  0.00    -0.063 NA
HETATM   17  N4  UNL     1      22.242 -13.779  25.181  1.00  0.00    -0.302 N
HETATM   18  C9  UNL     1      21.216 -13.034  25.771  1.00  0.00     0.220 C
ATOM     19  H4  UNL     1      23.183 -13.659  25.557  1.00  0.00     0.171 HD
HETATM   20  C10 UNL     1      20.837 -13.183  27.200  1.00  0.00     0.117 C
HETATM   21  O2  UNL     1      20.559 -12.187  25.094  1.00  0.00    -0.274 OA
ATOM     22  H2  UNL     1      20.177 -14.087  23.533  1.00  0.00     0.162 HD
ENDBRANCH  10  14
BRANCH  11  23
HETATM   23  O3  UNL     1      21.110 -17.030  25.171  1.00  0.00    -0.391 OA
ATOM     24  H3  UNL     1      21.310 -17.831  25.642  1.00  0.00     0.210 HD
ENDBRANCH  11  23
BRANCH  12  25
HETATM   25  C13 UNL     1      18.454 -16.345  25.430  1.00  0.00     0.200 C
BRANCH  25  26
HETATM   26  O4  UNL     1      18.566 -17.049  26.651  1.00  0.00    -0.399 OA
ATOM     27  H4  UNL     1      17.938 -16.665  27.252  1.00  0.00     0.209 HD
ENDBRANCH  25  26
ENDBRANCH  12  25
BRANCH  13  28
HETATM   28  C14 UNL     1      16.901 -16.560  23.201  1.00  0.00     0.334 C
BRANCH  28  29
HETATM   29  C15 UNL     1      16.046 -17.668  23.650  1.00  0.00    -0.079 C
HETATM   30  C16 UNL     1      15.322 -18.573  24.028  1.00  0.00    -0.109 C
HETATM   31  C17 UNL     1      14.433 -19.645  24.486  1.00  0.00     0.112 C
ENDBRANCH  28  29
ENDBRANCH  13  28
BRANCH  13  32
HETATM   32  C18 UNL     1      18.290 -18.280  22.331  1.00  0.00     0.269 C
BRANCH  32  33
HETATM   33  C19 UNL     1      18.496 -18.170  20.863  1.00  0.00     0.264 C
BRANCH  33  34
HETATM   34  N6  UNL     1      17.421 -18.795  20.122  1.00  0.00    -0.077 N
HETATM   35  C20 UNL     1      17.874 -19.291  18.826  1.00  0.00     0.271 C
HETATM   36  C21 UNL     1      16.840 -19.919  20.817  1.00  0.00     0.271 C
HETATM   37  C22 UNL     1      16.348 -17.852  19.846  1.00  0.00     0.271 C
ENDBRANCH  33  34
ENDBRANCH  32  33
ENDBRANCH  13  32
ENDBRANCH   7   9
ENDBRANCH   4   5
ENDBRANCH   3   4
TORSDOF 12
ENDMDL