MODEL 5
REMARK VINA RESULT: -8.496067894      1.995      3.021
REMARK  10 active torsions:
REMARK  status: ('A' for Active; 'I' for Inactive)
REMARK    1  A    between atoms: C2_2  and  C3_3
REMARK    2  A    between atoms: C3_3  and  C4_4
REMARK    3  A    between atoms: C4_4  and  C5_5
REMARK    4  A    between atoms: N2_9  and  C7_10
REMARK    5  A    between atoms: C7_10  and  C8_11
REMARK    6  A    between atoms: C9_12  and  C10_13
REMARK    7  A    between atoms: C10_13  and  N3_14
REMARK    8  A    between atoms: C14_20  and  N5_21
REMARK    9  A    between atoms: C19_30  and  C20_31
REMARK   10  A    between atoms: N8_32  and  N9_34
REMARK       I    between atoms: N9_34  and  C21_36
ROOT
HETATM    1  C7  UNL     1      18.306 -13.638  20.844  1.00  0.00     0.157 C
ENDROOT
BRANCH   1   2
HETATM    2  N2  UNL     1      19.253 -13.937  21.868  1.00  0.00    -0.337 N
HETATM    3  C6  UNL     1      20.337 -13.161  22.127  1.00  0.00     0.184 A
HETATM    4  N1  UNL     1      21.006 -13.677  23.141  1.00  0.00    -0.354 N
HETATM    5  C5  UNL     1      20.354 -14.805  23.555  1.00  0.00     0.038 A
ATOM      6  H1  UNL     1      21.862 -13.299  23.546  1.00  0.00     0.166 HD
HETATM    7  C19 UNL     1      19.280 -14.943  22.756  1.00  0.00     0.075 A
BRANCH   5   8
HETATM    8  C4  UNL     1      20.805 -15.641  24.676  1.00  0.00     0.059 C
BRANCH   8   9
HETATM    9  C3  UNL     1      20.200 -15.201  25.993  1.00  0.00     0.006 C
BRANCH   9  10
HETATM   10  C2  UNL     1      21.257 -14.355  26.721  1.00  0.00    -0.004 C
HETATM   11  C1  UNL     1      20.790 -12.907  26.740  1.00  0.00     0.005 C
ENDBRANCH   9  10
ENDBRANCH   8   9
ENDBRANCH   5   8
BRANCH   7  12
HETATM   12  C20 UNL     1      18.268 -16.035  22.816  1.00  0.00     0.139 C
HETATM   13  N8  UNL     1      17.586 -16.266  23.780  1.00  0.00    -0.306 N
ATOM     14  H8  UNL     1      17.863 -15.577  24.479  1.00  0.00     0.186 HD
BRANCH  13  15
HETATM   15  N9  UNL     1      16.630 -17.007  24.365  1.00  0.00    -0.254 N
HETATM   16  C21 UNL     1      16.952 -18.196  25.080  1.00  0.00     0.347 C
HETATM   17  N10 UNL     1      15.930 -18.961  25.691  1.00  0.00    -0.038 NA
HETATM   18  O1  UNL     1      18.143 -18.554  25.164  1.00  0.00    -0.249 OA
ATOM     19  H9  UNL     1      15.656 -16.711  24.296  1.00  0.00     0.191 HD
ENDBRANCH  13  15
ENDBRANCH   7  12
ENDBRANCH   1   2
BRANCH   1  20
HETATM   20  C8  UNL     1      18.288 -12.208  20.493  1.00  0.00    -0.009 C
HETATM   21  C9  UNL     1      17.407 -11.634  19.718  1.00  0.00    -0.009 C
BRANCH  21  22
HETATM   22  C10 UNL     1      16.270 -12.283  19.049  1.00  0.00     0.156 C
BRANCH  22  23
HETATM   23  N3  UNL     1      15.166 -12.368  20.028  1.00  0.00    -0.347 N
HETATM   24  C11 UNL     1      14.659 -11.224  20.515  1.00  0.00     0.125 A
HETATM   25  C12 UNL     1      13.632 -11.350  21.421  1.00  0.00     0.094 A
HETATM   26  C13 UNL     1      13.128 -12.578  21.827  1.00  0.00     0.138 A
HETATM   27  N6  UNL     1      13.071 -10.238  21.943  1.00  0.00    -0.353 N
HETATM   28  N4  UNL     1      12.116 -12.667  22.712  1.00  0.00    -0.326 N
HETATM   29  N7  UNL     1      13.673 -13.690  21.309  1.00  0.00    -0.332 N
HETATM   30  C14 UNL     1      11.578 -11.567  23.216  1.00  0.00     0.116 A
ATOM     31  H4  UNL     1      11.764 -13.582  22.993  1.00  0.00     0.169 HD
HETATM   32  C15 UNL     1      12.070 -10.325  22.819  1.00  0.00     0.139 A
HETATM   33  C17 UNL     1      13.224 -15.019  21.659  1.00  0.00     0.158 C
HETATM   34  C18 UNL     1      14.695 -13.559  20.407  1.00  0.00     0.186 A
HETATM   35  C16 UNL     1      13.597  -8.959  21.511  1.00  0.00     0.156 C
BRANCH  30  36
HETATM   36  N5  UNL     1      10.625 -11.577  24.054  1.00  0.00    -0.384 N
ATOM     37  H52 UNL     1      10.123 -12.456  24.183  1.00  0.00     0.157 HD
ATOM     38  H51 UNL     1      10.344 -10.759  24.595  1.00  0.00     0.157 HD
ENDBRANCH  30  36
ENDBRANCH  22  23
ENDBRANCH  21  22
ENDBRANCH   1  20
TORSDOF 10
ENDMDL