MODEL 3
REMARK VINA RESULT: -7.507524733      2.110      3.511
REMARK  13 active torsions:
REMARK  status: ('A' for Active; 'I' for Inactive)
REMARK    1  A    between atoms: C2_4  and  C3_5
REMARK    2  A    between atoms: C2_4  and  N10_33
REMARK    3  A    between atoms: C3_5  and  C4_6
REMARK    4  A    between atoms: C4_6  and  N2_7
REMARK       I    between atoms: N2_7  and  C5_9
REMARK    5  A    between atoms: C5_9  and  C6_11
REMARK    6  A    between atoms: C6_11  and  N3_12
REMARK    7  A    between atoms: C9_15  and  C10_16
REMARK    8  A    between atoms: C12_18  and  N4_19
REMARK    9  A    between atoms: N4_19  and  C13_21
REMARK   10  A    between atoms: C13_21  and  N5_23
REMARK   11  A    between atoms: N10_33  and  C16_35
REMARK   12  A    between atoms: C16_35  and  C17_36
REMARK   13  A    between atoms: C17_36  and  N11_37
ROOT
HETATM    1  N5  UNL     1      10.763  -9.345  24.067  1.00  0.00    -0.283 N
ATOM      2  H5  UNL     1       9.772  -9.187  23.885  1.00  0.00     0.179 HD
HETATM    3  C15 UNL     1      11.562  -8.251  24.407  1.00  0.00     0.183 C
HETATM    4  N6  UNL     1      12.210  -7.343  24.704  1.00  0.00    -0.172 NA
ENDROOT
BRANCH   1   5
HETATM    5  C13 UNL     1      11.226 -10.557  23.972  1.00  0.00     0.087 C
HETATM    6  C14 UNL     1      11.381 -11.361  25.194  1.00  0.00     0.089 C
BRANCH   5   7
HETATM    7  N4  UNL     1      11.551 -11.014  22.677  1.00  0.00    -0.331 N
ATOM      8  H4  UNL     1      10.883 -11.630  22.213  1.00  0.00     0.168 HD
BRANCH   7   9
HETATM    9  C12 UNL     1      12.620 -10.715  22.038  1.00  0.00     0.123 A
HETATM   10  C11 UNL     1      13.661 -11.537  21.646  1.00  0.00     0.083 A
HETATM   11  C10 UNL     1      14.565 -10.747  20.995  1.00  0.00     0.080 A
HETATM   12  N8  UNL     1      14.084  -9.487  20.995  1.00  0.00    -0.297 N
HETATM   13  N7  UNL     1      12.924  -9.482  21.620  1.00  0.00    -0.285 N
ATOM     14  H8  UNL     1      14.541  -8.674  20.581  1.00  0.00     0.187 HD
ATOM     15  H7  UNL     1      12.343  -8.657  21.765  1.00  0.00     0.188 HD
BRANCH  11  16
HETATM   16  C9  UNL     1      15.833 -11.176  20.397  1.00  0.00     0.077 A
HETATM   17  C8  UNL     1      16.016 -11.577  19.087  1.00  0.00     0.052 A
HETATM   18  C7  UNL     1      17.346 -11.896  18.923  1.00  0.00     0.113 A
HETATM   19  N3  UNL     1      17.926 -11.684  20.122  1.00  0.00    -0.294 N
HETATM   20  N9  UNL     1      17.019 -11.258  20.985  1.00  0.00    -0.296 N
ATOM     21  H9  UNL     1      17.203 -11.026  21.961  1.00  0.00     0.187 HD
BRANCH  19  22
HETATM   22  C6  UNL     1      19.310 -11.884  20.433  1.00  0.00     0.250 C
BRANCH  22  23
HETATM   23  C5  UNL     1      19.490 -13.123  21.268  1.00  0.00     0.237 C
HETATM   24  N2  UNL     1      19.623 -13.006  22.676  1.00  0.00    -0.359 N
ATOM     25  H2  UNL     1      19.599 -12.094  23.132  1.00  0.00     0.162 HD
HETATM   26  O1  UNL     1      19.516 -14.239  20.674  1.00  0.00    -0.272 OA
BRANCH  24  27
HETATM   27  C4  UNL     1      19.791 -14.212  23.440  1.00  0.00     0.130 C
BRANCH  27  28
HETATM   28  C3  UNL     1      18.608 -14.514  24.327  1.00  0.00     0.096 C
BRANCH  28  29
HETATM   29  C2  UNL     1      17.734 -15.554  23.791  1.00  0.00     0.077 C
HETATM   30  N1  UNL     1      17.373 -16.598  24.498  1.00  0.00    -0.384 N
HETATM   31  C1  UNL     1      16.519 -17.633  24.005  1.00  0.00     0.147 C
ATOM     32  H1  UNL     1      17.720 -16.676  25.454  1.00  0.00     0.160 HD
BRANCH  29  33
HETATM   33  N10 UNL     1      17.215 -15.461  22.491  1.00  0.00    -0.355 N
ATOM     34  H10 UNL     1      17.577 -16.181  21.865  1.00  0.00     0.166 HD
BRANCH  33  35
HETATM   35  C16 UNL     1      16.306 -14.596  21.864  1.00  0.00     0.114 C
BRANCH  35  36
HETATM   36  C17 UNL     1      15.592 -14.927  20.632  1.00  0.00     0.218 C
BRANCH  36  37
HETATM   37  N11 UNL     1      14.302 -15.477  20.596  1.00  0.00    -0.057 N
HETATM   38  C18 UNL     1      13.388 -15.210  21.640  1.00  0.00     0.277 C
HETATM   39  C19 UNL     1      14.361 -16.892  20.248  1.00  0.00     0.277 C
HETATM   40  C20 UNL     1      13.656 -14.852  19.380  1.00  0.00     0.277 C
ENDBRANCH  36  37
ENDBRANCH  35  36
ENDBRANCH  33  35
ENDBRANCH  29  33
ENDBRANCH  28  29
ENDBRANCH  27  28
ENDBRANCH  24  27
ENDBRANCH  22  23
ENDBRANCH  19  22
ENDBRANCH  11  16
ENDBRANCH   7   9
ENDBRANCH   5   7
ENDBRANCH   1   5
TORSDOF 13
ENDMDL