MODEL 4
REMARK VINA RESULT: -6.795151048      1.344      1.668
REMARK  8 active torsions:
REMARK  status: ('A' for Active; 'I' for Inactive)
REMARK       I    between atoms: C2_4  and  N2_5
REMARK       I    between atoms: C2_4  and  N6_21
REMARK    1  A    between atoms: N2_5  and  C3_7
REMARK    2  A    between atoms: C3_7  and  O1_8
REMARK    3  A    between atoms: C3_7  and  C4_10
REMARK    4  A    between atoms: C4_10  and  N3_12
REMARK    5  A    between atoms: N3_12  and  C6_14
REMARK    6  A    between atoms: C6_14  and  N4_16
REMARK    7  A    between atoms: N4_16  and  N5_18
REMARK    8  A    between atoms: N6_21  and  N7_23
ROOT
HETATM    1  C3  UNL     1      61.162  17.259  29.918  1.00  0.00     0.153 C
ENDROOT
BRANCH   1   2
HETATM    2  N2  UNL     1      61.169  16.796  31.205  1.00  0.00    -0.171 N
HETATM    3  C2  UNL     1      62.418  16.778  31.950  1.00  0.00     0.698 C
HETATM    4  N1  UNL     1      62.312  16.448  33.207  1.00  0.00    -0.229 N
HETATM    5  N6  UNL     1      63.639  17.096  31.397  1.00  0.00    -0.072 N
HETATM    6  C1  UNL     1      61.097  16.105  33.877  1.00  0.00     0.165 C
ATOM      7  H1  UNL     1      63.169  16.432  33.759  1.00  0.00     0.177 HD
ATOM      8  H6  UNL     1      63.931  18.062  31.254  1.00  0.00     0.212 HD
ATOM      9  H2  UNL     1      60.307  16.467  31.638  1.00  0.00     0.186 HD
BRANCH   5  10
HETATM   10  N7  UNL     1      64.477  15.987  31.034  1.00  0.00    -0.024 N
HETATM   11  O2  UNL     1      63.950  14.880  30.762  1.00  0.00    -0.516 OA
HETATM   12  O3  UNL     1      65.824  16.166  31.011  1.00  0.00    -0.516 OA
ENDBRANCH   5  10
ENDBRANCH   1   2
BRANCH   1  13
HETATM   13  O1  UNL     1      61.875  18.339  29.721  1.00  0.00    -0.347 OA
ATOM     14  H1  UNL     1      61.385  19.086  29.398  1.00  0.00     0.219 HD
ENDBRANCH   1  13
BRANCH   1  15
HETATM   15  C4  UNL     1      60.460  16.685  28.791  1.00  0.00     0.155 C
HETATM   16  C5  UNL     1      61.248  15.257  28.589  1.00  0.00     0.041 C
BRANCH  15  17
HETATM   17  N3  UNL     1      60.510  17.203  27.486  1.00  0.00    -0.354 N
ATOM     18  H3  UNL     1      61.472  17.136  27.152  1.00  0.00     0.162 HD
BRANCH  17  19
HETATM   19  C6  UNL     1      59.740  17.771  26.483  1.00  0.00     0.186 C
HETATM   20  S1  UNL     1      59.619  19.473  26.533  1.00  0.00    -0.040 SA
BRANCH  19  21
HETATM   21  N4  UNL     1      59.050  17.201  25.419  1.00  0.00    -0.283 N
ATOM     22  H4  UNL     1      59.276  16.242  25.154  1.00  0.00     0.188 HD
BRANCH  21  23
HETATM   23  N5  UNL     1      58.035  17.894  24.676  1.00  0.00    -0.343 N
ATOM     24  H52 UNL     1      58.337  18.659  24.072  1.00  0.00     0.176 HD
ATOM     25  H51 UNL     1      57.044  17.658  24.727  1.00  0.00     0.176 HD
ENDBRANCH  21  23
ENDBRANCH  19  21
ENDBRANCH  17  19
ENDBRANCH  15  17
ENDBRANCH   1  15
TORSDOF 8
ENDMDL