MODEL 2
REMARK VINA RESULT: -7.863947067      2.867      7.086
REMARK  7 active torsions:
REMARK  status: ('A' for Active; 'I' for Inactive)
REMARK       I    between atoms: C2_2  and  N1_4
REMARK    1  A    between atoms: N1_4  and  C3_6
REMARK    2  A    between atoms: C3_6  and  N2_8
REMARK    3  A    between atoms: N2_8  and  N3_10
REMARK       I    between atoms: N3_10  and  C4_12
REMARK    4  A    between atoms: C4_12  and  C5_14
REMARK    5  A    between atoms: C8_18  and  C9_19
REMARK    6  A    between atoms: C9_19  and  O4_20
REMARK    7  A    between atoms: C9_19  and  O5_22
ROOT
HETATM    1  N3  UNL     1      61.553  17.731  30.511  1.00  0.00    -0.268 N
ATOM      2  H3  UNL     1      62.300  17.888  29.835  1.00  0.00     0.190 HD
HETATM    3  C4  UNL     1      60.274  17.321  30.028  1.00  0.00     0.240 C
HETATM    4  O2  UNL     1      59.377  17.139  30.919  1.00  0.00    -0.271 OA
ENDROOT
BRANCH   3   5
HETATM    5  C5  UNL     1      59.970  17.113  28.611  1.00  0.00     0.084 C
HETATM    6  C6  UNL     1      60.937  16.148  27.933  1.00  0.00     0.040 C
HETATM    7  C7  UNL     1      60.293  15.895  26.564  1.00  0.00     0.169 C
HETATM    8  O3  UNL     1      60.343  17.011  25.808  1.00  0.00    -0.381 OA
HETATM    9  C8  UNL     1      60.060  18.209  26.344  1.00  0.00     0.176 C
HETATM   10  C10 UNL     1      59.986  18.372  27.792  1.00  0.00     0.051 C
BRANCH   9  11
HETATM   11  C9  UNL     1      58.720  18.664  25.741  1.00  0.00     0.282 C
BRANCH  11  12
HETATM   12  O4  UNL     1      58.511  18.049  24.509  1.00  0.00    -0.369 OA
ATOM     13  H4  UNL     1      57.917  18.567  23.979  1.00  0.00     0.212 HD
ENDBRANCH  11  12
BRANCH  11  14
HETATM   14  O5  UNL     1      58.749  20.048  25.593  1.00  0.00    -0.369 OA
ATOM     15  H5  UNL     1      58.061  20.301  24.989  1.00  0.00     0.212 HD
ENDBRANCH  11  14
ENDBRANCH   9  11
ENDBRANCH   3   5
BRANCH   1  16
HETATM   16  N2  UNL     1      61.827  17.923  31.849  1.00  0.00    -0.273 N
ATOM     17  H2  UNL     1      61.623  18.837  32.253  1.00  0.00     0.189 HD
BRANCH  16  18
HETATM   18  C3  UNL     1      62.373  16.931  32.697  1.00  0.00     0.193 C
HETATM   19  S1  UNL     1      61.358  16.244  33.775  1.00  0.00    -0.039 SA
BRANCH  18  20
HETATM   20  N1  UNL     1      63.727  16.535  32.636  1.00  0.00    -0.303 N
HETATM   21  C2  UNL     1      64.236  15.725  31.595  1.00  0.00     0.219 C
HETATM   22  C1  UNL     1      65.658  15.306  31.527  1.00  0.00     0.117 C
HETATM   23  O1  UNL     1      63.465  15.338  30.688  1.00  0.00    -0.274 OA
ATOM     24  H1  UNL     1      64.362  16.844  33.371  1.00  0.00     0.171 HD
ENDBRANCH  18  20
ENDBRANCH  16  18
ENDBRANCH   1  16
TORSDOF 7
ENDMDL