MODEL 1
REMARK VINA RESULT: -8.486198998      0.000      0.000
REMARK  10 active torsions:
REMARK  status: ('A' for Active; 'I' for Inactive)
REMARK    1  A    between atoms: C3_3  and  C4_4
REMARK    2  A    between atoms: C5_5  and  C6_6
REMARK    3  A    between atoms: C8_8  and  O1_9
REMARK    4  A    between atoms: C8_8  and  C9_11
REMARK    5  A    between atoms: C9_11  and  O2_12
REMARK    6  A    between atoms: C10_14  and  O3_15
REMARK    7  A    between atoms: C12_18  and  O4_19
REMARK    8  A    between atoms: O4_19  and  C13_20
REMARK    9  A    between atoms: C13_20  and  C14_22
REMARK   10  A    between atoms: C14_22  and  O6_23
ROOT
HETATM    1  C6  UNL     1      60.587  17.162  29.777  1.00  0.00     0.056 C
HETATM    2  C7  UNL     1      60.598  15.748  29.245  1.00  0.00     0.068 C
HETATM    3  C8  UNL     1      60.263  14.851  30.421  1.00  0.00     0.111 C
HETATM    4  C10 UNL     1      60.171  15.834  31.558  1.00  0.00     0.095 C
HETATM    5  C11 UNL     1      61.548  16.424  31.784  1.00  0.00     0.075 C
HETATM    6  C12 UNL     1      61.787  17.393  30.624  1.00  0.00     0.155 C
HETATM    7  C15 UNL     1      59.505  17.008  30.860  1.00  0.00     0.066 C
ENDROOT
BRANCH   6   8
HETATM    8  O4  UNL     1      63.000  17.134  29.982  1.00  0.00    -0.312 OA
BRANCH   8   9
HETATM    9  C13 UNL     1      64.182  17.414  30.639  1.00  0.00     0.282 C
HETATM   10  O5  UNL     1      64.644  18.583  30.601  1.00  0.00    -0.263 OA
BRANCH   9  11
HETATM   11  C14 UNL     1      64.940  16.385  31.395  1.00  0.00     0.275 C
BRANCH  11  12
HETATM   12  O6  UNL     1      65.077  15.221  30.644  1.00  0.00    -0.391 OA
ATOM     13  H6  UNL     1      64.797  14.463  31.142  1.00  0.00     0.210 HD
ENDBRANCH  11  12
ENDBRANCH   9  11
ENDBRANCH   8   9
ENDBRANCH   6   8
BRANCH   1  14
HETATM   14  C5  UNL     1      60.285  18.164  28.816  1.00  0.00    -0.089 C
HETATM   15  C4  UNL     1      60.043  19.003  27.990  1.00  0.00    -0.078 C
BRANCH  15  16
HETATM   16  C3  UNL     1      59.727  20.025  27.000  1.00  0.00     0.060 C
HETATM   17  C2  UNL     1      59.230  19.680  25.839  1.00  0.00    -0.022 C
HETATM   18  C1  UNL     1      58.989  18.262  25.531  1.00  0.00     0.036 C
ENDBRANCH  15  16
ENDBRANCH   1  14
BRANCH   4  19
HETATM   19  O3  UNL     1      59.542  15.399  32.666  1.00  0.00    -0.387 OA
ATOM     20  H3  UNL     1      59.291  16.068  33.293  1.00  0.00     0.210 HD
ENDBRANCH   4  19
BRANCH   3  21
HETATM   21  O1  UNL     1      61.261  13.904  30.643  1.00  0.00    -0.384 OA
ATOM     22  H1  UNL     1      62.008  14.283  31.092  1.00  0.00     0.210 HD
ENDBRANCH   3  21
BRANCH   3  23
HETATM   23  C9  UNL     1      58.947  14.184  30.124  1.00  0.00     0.205 C
BRANCH  23  24
HETATM   24  O2  UNL     1      58.591  13.289  31.122  1.00  0.00    -0.398 OA
ATOM     25  H2  UNL     1      58.049  12.585  30.784  1.00  0.00     0.209 HD
ENDBRANCH  23  24
ENDBRANCH   3  23
TORSDOF 10
ENDMDL