MODEL 4
REMARK VINA RESULT: -7.880319144      1.067      1.487
REMARK  5 active torsions:
REMARK  status: ('A' for Active; 'I' for Inactive)
REMARK    1  A    between atoms: N1_1  and  C1_4
REMARK    2  A    between atoms: C2_7  and  N3_8
REMARK    3  A    between atoms: N6_19  and  C6_20
REMARK    4  A    between atoms: C6_20  and  C7_21
REMARK    5  A    between atoms: C7_21  and  N7_22
ROOT
HETATM    1  C1  UNL     1      59.108  17.850  25.598  1.00  0.00     0.679 A
HETATM    2  N2  UNL     1      59.538  16.561  25.699  1.00  0.00    -0.175 N
ATOM      3  H2  UNL     1      59.265  15.886  24.984  1.00  0.00     0.186 HD
HETATM    4  C2  UNL     1      60.315  16.161  26.720  1.00  0.00     0.145 A
HETATM    5  C3  UNL     1      60.707  17.045  27.708  1.00  0.00     0.128 A
HETATM    6  C4  UNL     1      60.265  18.370  27.603  1.00  0.00     0.156 A
HETATM    7  N4  UNL     1      59.491  18.706  26.557  1.00  0.00    -0.174 N
ATOM      8  H4  UNL     1      59.174  19.673  26.489  1.00  0.00     0.186 HD
HETATM    9  N5  UNL     1      60.779  18.997  28.664  1.00  0.00    -0.292 N
ATOM     10  H5  UNL     1      60.631  19.987  28.866  1.00  0.00     0.172 HD
HETATM   11  C5  UNL     1      61.510  18.183  29.433  1.00  0.00     0.328 A
HETATM   12  O1  UNL     1      62.126  18.466  30.501  1.00  0.00    -0.246 OA
HETATM   13  N6  UNL     1      61.454  16.965  28.820  1.00  0.00    -0.291 N
ENDROOT
BRANCH  13  14
HETATM   14  C6  UNL     1      62.110  15.799  29.334  1.00  0.00     0.154 C
BRANCH  14  15
HETATM   15  C7  UNL     1      62.035  15.684  30.829  1.00  0.00     0.146 C
BRANCH  15  16
HETATM   16  N7  UNL     1      60.783  15.081  31.246  1.00  0.00    -0.351 N
HETATM   17  C8  UNL     1      60.254  15.258  32.584  1.00  0.00     0.126 C
HETATM   18  C9  UNL     1      59.526  13.967  32.940  1.00  0.00     0.020 C
HETATM   19  C10 UNL     1      58.320  13.735  32.086  1.00  0.00     0.011 C
HETATM   20  C11 UNL     1      58.574  14.017  30.622  1.00  0.00     0.103 C
HETATM   21  C12 UNL     1      60.011  14.284  30.354  1.00  0.00     0.219 C
HETATM   22  O2  UNL     1      60.570  13.808  29.334  1.00  0.00    -0.273 OA
ENDBRANCH  15  16
ENDBRANCH  14  15
ENDBRANCH  13  14
BRANCH   4  23
HETATM   23  N3  UNL     1      60.689  14.932  26.753  1.00  0.00    -0.383 N
ATOM     24  H32 UNL     1      61.536  14.632  26.271  1.00  0.00     0.157 HD
ATOM     25  H31 UNL     1      60.114  14.268  27.273  1.00  0.00     0.157 HD
ENDBRANCH   4  23
BRANCH   1  26
HETATM   26  N1  UNL     1      58.357  18.242  24.612  1.00  0.00    -0.234 N
ATOM     27  H12 UNL     1      57.379  17.961  24.554  1.00  0.00     0.174 HD
ATOM     28  H11 UNL     1      58.720  18.840  23.870  1.00  0.00     0.174 HD
ENDBRANCH   1  26
TORSDOF 5
ENDMDL