MODEL 5
REMARK VINA RESULT: -5.246573270      1.935      2.300
REMARK  5 active torsions:
REMARK  status: ('A' for Active; 'I' for Inactive)
REMARK    1  A    between atoms: C5_6  and  C6_7
REMARK    2  A    between atoms: C6_7  and  N1_8
REMARK    3  A    between atoms: C6_7  and  C10_19
REMARK       I    between atoms: N1_8  and  C7_10
REMARK       I    between atoms: C7_10  and  N2_12
REMARK       I    between atoms: C8_14  and  N4_16
REMARK    4  A    between atoms: C10_19  and  N6_20
REMARK    5  A    between atoms: C10_19  and  C11_24
ROOT
HETATM    1  C1  UNL     1      59.532  13.613  32.719  1.00  0.00     0.015 C
HETATM    2  C2  UNL     1      59.908  14.720  32.517  1.00  0.00    -0.076 C
HETATM    3  C3  UNL     1      60.362  16.101  32.269  1.00  0.00     0.147 A
HETATM    4  C4  UNL     1      59.507  16.970  31.419  1.00  0.00     0.063 C
HETATM    5  O1  UNL     1      60.995  16.749  33.330  1.00  0.00    -0.354 OA
HETATM    6  C5  UNL     1      61.857  16.247  32.361  1.00  0.00     0.195 A
ENDROOT
BRANCH   6   7
HETATM    7  C6  UNL     1      62.520  17.136  31.389  1.00  0.00     0.150 C
BRANCH   7   8
HETATM    8  N1  UNL     1      62.373  16.431  30.084  1.00  0.00    -0.333 N
HETATM    9  C7  UNL     1      61.565  16.948  29.079  1.00  0.00     0.323 C
HETATM   10  O2  UNL     1      60.980  18.032  29.222  1.00  0.00    -0.247 OA
HETATM   11  N2  UNL     1      61.418  16.159  27.833  1.00  0.00    -0.270 N
HETATM   12  C8  UNL     1      60.628  16.677  26.873  1.00  0.00     0.283 C
ATOM     13  H2  UNL     1      61.893  15.265  27.709  1.00  0.00     0.174 HD
HETATM   14  N3  UNL     1      60.857  15.256  25.803  1.00  0.00    -0.048 NA
HETATM   15  N4  UNL     1      59.937  17.130  26.030  1.00  0.00    -0.296 NA
HETATM   16  C9  UNL     1      59.169  17.920  25.392  1.00  0.00     0.271 C
HETATM   17  N5  UNL     1      58.482  18.646  24.840  1.00  0.00    -0.156 NA
ATOM     18  H1  UNL     1      62.873  15.555  29.927  1.00  0.00     0.164 HD
ENDBRANCH   7   8
BRANCH   7  19
HETATM   19  C10 UNL     1      64.012  17.326  31.603  1.00  0.00     0.218 C
BRANCH  19  20
HETATM   20  N6  UNL     1      64.667  17.368  30.304  1.00  0.00    -0.072 N
ATOM     21  H63 UNL     1      65.094  18.273  30.111  1.00  0.00     0.274 HD
ATOM     22  H62 UNL     1      65.515  16.802  30.276  1.00  0.00     0.274 HD
ATOM     23  H61 UNL     1      63.992  17.094  29.590  1.00  0.00     0.274 HD
ENDBRANCH  19  20
BRANCH  19  24
HETATM   24  C11 UNL     1      64.642  16.250  32.423  1.00  0.00     0.121 C
HETATM   25  S1  UNL     1      65.584  15.071  31.423  1.00  0.00    -0.095 SA
ENDBRANCH  19  24
ENDBRANCH   7  19
ENDBRANCH   6   7
TORSDOF 5
ENDMDL