MODEL 3
REMARK VINA RESULT: -6.284523886      1.131      1.176
REMARK  4 active torsions:
REMARK  status: ('A' for Active; 'I' for Inactive)
REMARK    1  A    between atoms: N1_5  and  C5_6
REMARK    2  A    between atoms: C5_6  and  C6_7
REMARK    3  A    between atoms: C6_7  and  N2_8
REMARK    4  A    between atoms: C6_7  and  C7_12
ROOT
HETATM    1  C1  UNL     1      60.609  18.441  27.413  1.00  0.00     0.038 C
HETATM    2  C2  UNL     1      60.707  17.468  28.304  1.00  0.00    -0.000 C
HETATM    3  C3  UNL     1      61.194  17.875  29.662  1.00  0.00     0.100 C
HETATM    4  C4  UNL     1      62.073  16.853  30.320  1.00  0.00     0.064 C
HETATM    5  N1  UNL     1      62.972  17.392  31.254  1.00  0.00    -0.389 N
HETATM    6  C8  UNL     1      62.679  17.174  32.636  1.00  0.00     0.149 C
HETATM    7  C9  UNL     1      61.327  16.705  32.990  1.00  0.00     0.252 C
HETATM    8  N3  UNL     1      61.256  15.251  33.213  1.00  0.00    -0.074 N
ATOM      9  H31 UNL     1      61.737  14.984  34.073  1.00  0.00     0.277 HD
ATOM     10  H32 UNL     1      61.833  14.745  32.542  1.00  0.00     0.277 HD
HETATM   11  C10 UNL     1      59.899  14.769  33.204  1.00  0.00     0.234 C
HETATM   12  C11 UNL     1      59.723  13.770  32.082  1.00  0.00     0.046 C
HETATM   13  C12 UNL     1      58.521  14.084  31.203  1.00  0.00     0.115 C
HETATM   14  N4  UNL     1      58.417  15.442  30.818  1.00  0.00    -0.420 N
ATOM     15  H4  UNL     1      58.328  16.183  31.513  1.00  0.00     0.153 HD
HETATM   16  C13 UNL     1      58.442  15.735  29.425  1.00  0.00     0.133 C
HETATM   17  C14 UNL     1      59.604  15.192  28.664  1.00  0.00     0.138 C
HETATM   18  N5  UNL     1      60.366  16.171  27.928  1.00  0.00    -0.392 N
ATOM     19  H5  UNL     1      60.699  15.875  27.011  1.00  0.00     0.159 HD
ENDROOT
BRANCH   5  20
HETATM   20  C5  UNL     1      64.367  17.288  31.038  1.00  0.00     0.165 C
BRANCH  20  21
HETATM   21  C6  UNL     1      65.132  16.283  31.811  1.00  0.00     0.301 C
BRANCH  21  22
HETATM   22  N2  UNL     1      66.544  16.540  31.802  1.00  0.00    -0.064 N
ATOM     23  H23 UNL     1      67.058  15.751  31.410  1.00  0.00     0.275 HD
ATOM     24  H22 UNL     1      66.783  17.251  31.110  1.00  0.00     0.275 HD
ATOM     25  H21 UNL     1      66.901  16.790  32.724  1.00  0.00     0.275 HD
ENDBRANCH  21  22
BRANCH  21  26
HETATM   26  C7  UNL     1      64.959  14.926  31.187  1.00  0.00     0.206 C
HETATM   27  O1  UNL     1      65.950  14.163  31.199  1.00  0.00    -0.646 OA
HETATM   28  O2  UNL     1      63.789  14.498  30.619  1.00  0.00    -0.646 OA
ENDBRANCH  21  26
ENDBRANCH  20  21
ENDBRANCH   5  20
TORSDOF 4
ENDMDL