MODEL 4
REMARK VINA RESULT: -6.504554958      1.492      1.597
REMARK  4 active torsions:
REMARK  status: ('A' for Active; 'I' for Inactive)
REMARK    1  A    between atoms: N1_1  and  C1_4
REMARK    2  A    between atoms: C2_7  and  N3_8
REMARK    3  A    between atoms: C10_20  and  C11_21
REMARK    4  A    between atoms: C11_21  and  C12_22
ROOT
HETATM    1  C1  UNL     1      63.252  16.162  30.271  1.00  0.00     0.680 A
HETATM    2  N2  UNL     1      62.462  16.731  29.353  1.00  0.00    -0.176 N
ATOM      3  H2  UNL     1      62.865  17.425  28.722  1.00  0.00     0.186 HD
HETATM    4  C2  UNL     1      61.141  16.422  29.228  1.00  0.00     0.136 A
HETATM    5  C10 UNL     1      60.630  15.495  30.080  1.00  0.00     0.061 A
HETATM    6  C13 UNL     1      61.462  14.906  31.034  1.00  0.00     0.270 A
HETATM    7  O2  UNL     1      60.968  14.055  31.809  1.00  0.00    -0.267 OA
HETATM    8  N6  UNL     1      62.746  15.244  31.115  1.00  0.00    -0.156 N
ATOM      9  H6  UNL     1      63.346  14.808  31.815  1.00  0.00     0.187 HD
ENDROOT
BRANCH   4  10
HETATM   10  N3  UNL     1      60.410  17.124  28.233  1.00  0.00    -0.328 N
HETATM   11  C3  UNL     1      59.615  16.470  27.224  1.00  0.00     0.133 C
HETATM   12  C4  UNL     1      59.890  16.963  25.816  1.00  0.00     0.039 C
HETATM   13  C5  UNL     1      58.694  17.707  25.243  1.00  0.00     0.115 C
HETATM   14  N4  UNL     1      59.141  19.057  25.009  1.00  0.00    -0.421 N
HETATM   15  C6  UNL     1      58.187  20.077  25.310  1.00  0.00     0.115 C
ATOM     16  H4  UNL     1      60.073  19.270  24.654  1.00  0.00     0.153 HD
HETATM   17  C7  UNL     1      58.684  21.067  26.334  1.00  0.00     0.039 C
HETATM   18  C8  UNL     1      59.811  20.508  27.179  1.00  0.00     0.122 C
HETATM   19  N5  UNL     1      59.407  19.316  27.902  1.00  0.00    -0.386 N
HETATM   20  C9  UNL     1      60.557  18.570  28.290  1.00  0.00     0.180 C
ATOM     21  H5  UNL     1      58.443  19.052  28.102  1.00  0.00     0.160 HD
ENDBRANCH   4  10
BRANCH   5  22
HETATM   22  C11 UNL     1      59.211  15.057  29.986  1.00  0.00     0.117 C
BRANCH  22  23
HETATM   23  C12 UNL     1      58.331  15.826  30.898  1.00  0.00     0.236 C
HETATM   24  O1  UNL     1      58.564  16.968  31.159  1.00  0.00    -0.307 OA
ENDBRANCH  22  23
ENDBRANCH   5  22
BRANCH   1  25
HETATM   25  N1  UNL     1      64.494  16.466  30.374  1.00  0.00    -0.234 N
ATOM     26  H12 UNL     1      64.757  17.451  30.337  1.00  0.00     0.174 HD
ATOM     27  H11 UNL     1      65.213  15.752  30.491  1.00  0.00     0.174 HD
ENDBRANCH   1  25
TORSDOF 4
ENDMDL