MODEL 3
REMARK VINA RESULT: -7.270371870      2.617      3.648
REMARK  7 active torsions:
REMARK  status: ('A' for Active; 'I' for Inactive)
REMARK    1  A    between atoms: O1_2  and  C2_3
REMARK    2  A    between atoms: C3_5  and  N1_6
REMARK    3  A    between atoms: N1_6  and  C4_8
REMARK    4  A    between atoms: C4_8  and  N2_10
REMARK    5  A    between atoms: N2_10  and  N3_12
REMARK       I    between atoms: N3_12  and  C5_14
REMARK       I    between atoms: C5_14  and  N4_16
REMARK    6  A    between atoms: N4_16  and  C6_18
REMARK    7  A    between atoms: C10_23  and  O4_24
ROOT
HETATM    1  C6  UNL     1      59.768  19.550  26.456  1.00  0.00     0.189 C
HETATM    2  C7  UNL     1      58.785  20.681  26.445  1.00  0.00     0.048 C
HETATM    3  C8  UNL     1      59.179  18.390  25.771  1.00  0.00     0.084 C
HETATM    4  N5  UNL     1      58.709  17.452  25.241  1.00  0.00    -0.195 NA
ENDROOT
BRANCH   1   5
HETATM    5  N4  UNL     1      60.103  19.219  27.831  1.00  0.00    -0.325 N
HETATM    6  C5  UNL     1      61.052  18.187  28.141  1.00  0.00     0.335 C
HETATM    7  N3  UNL     1      61.383  17.863  29.481  1.00  0.00    -0.249 N
HETATM    8  O3  UNL     1      61.576  17.584  27.191  1.00  0.00    -0.246 OA
ATOM      9  H3  UNL     1      60.942  18.369  30.250  1.00  0.00     0.192 HD
ATOM     10  H4  UNL     1      59.655  19.731  28.591  1.00  0.00     0.165 HD
BRANCH   7  11
HETATM   11  N2  UNL     1      62.308  16.856  29.753  1.00  0.00    -0.272 N
ATOM     12  H2  UNL     1      62.819  16.465  28.962  1.00  0.00     0.189 HD
BRANCH  11  13
HETATM   13  C4  UNL     1      62.597  16.330  31.037  1.00  0.00     0.188 C
HETATM   14  S1  UNL     1      63.881  16.914  31.837  1.00  0.00    -0.039 SA
BRANCH  13  15
HETATM   15  N1  UNL     1      61.804  15.339  31.620  1.00  0.00    -0.339 N
ATOM     16  H1  UNL     1      62.243  14.434  31.789  1.00  0.00     0.164 HD
BRANCH  15  17
HETATM   17  C3  UNL     1      60.424  15.479  32.003  1.00  0.00     0.228 C
HETATM   18  O2  UNL     1      59.740  16.355  31.182  1.00  0.00    -0.334 OA
HETATM   19  C2  UNL     1      58.851  15.591  30.421  1.00  0.00     0.290 C
HETATM   20  C10 UNL     1      58.380  14.527  31.389  1.00  0.00     0.177 C
HETATM   21  C9  UNL     1      59.695  14.166  32.034  1.00  0.00     0.090 C
BRANCH  19  22
HETATM   22  O1  UNL     1      59.648  14.955  29.462  1.00  0.00    -0.363 OA
HETATM   23  C1  UNL     1      59.250  15.295  28.172  1.00  0.00     0.204 C
ENDBRANCH  19  22
BRANCH  20  24
HETATM   24  O4  UNL     1      57.797  13.449  30.739  1.00  0.00    -0.391 OA
ATOM     25  H4  UNL     1      58.154  13.320  29.868  1.00  0.00     0.210 HD
ENDBRANCH  20  24
ENDBRANCH  15  17
ENDBRANCH  13  15
ENDBRANCH  11  13
ENDBRANCH   7  11
ENDBRANCH   1   5
TORSDOF 7
ENDMDL