MODEL 3
REMARK VINA RESULT: -7.173507329      2.807      5.074
REMARK  7 active torsions:
REMARK  status: ('A' for Active; 'I' for Inactive)
REMARK    1  A    between atoms: N1_1  and  C1_5
REMARK    2  A    between atoms: N2_7  and  S1_8
REMARK    3  A    between atoms: S1_8  and  N3_11
REMARK    4  A    between atoms: C8_17  and  N4_18
REMARK    5  A    between atoms: C8_17  and  C9_22
REMARK    6  A    between atoms: C9_22  and  O3_23
REMARK    7  A    between atoms: N5_25  and  O4_27
ROOT
HETATM    1  C1  UNL     1      61.129  15.875  32.639  1.00  0.00     0.258 C
HETATM    2  C2  UNL     1      60.607  17.251  32.209  1.00  0.00     0.149 C
HETATM    3  N2  UNL     1      61.194  17.025  30.927  1.00  0.00    -0.151 NA
HETATM    4  C8  UNL     1      62.007  15.936  31.408  1.00  0.00     0.287 C
ENDROOT
BRANCH   4   5
HETATM    5  N4  UNL     1      61.946  14.718  30.663  1.00  0.00    -0.046 N
ATOM      6  H43 UNL     1      62.158  14.871  29.678  1.00  0.00     0.277 HD
ATOM      7  H42 UNL     1      62.722  14.098  30.896  1.00  0.00     0.277 HD
ATOM      8  H41 UNL     1      61.046  14.252  30.784  1.00  0.00     0.277 HD
ENDBRANCH   4   5
BRANCH   4   9
HETATM    9  C9  UNL     1      63.389  16.379  31.658  1.00  0.00     0.191 C
HETATM   10  N5  UNL     1      63.926  17.444  31.170  1.00  0.00    -0.248 N
ATOM     11  H5  UNL     1      64.893  17.666  31.404  1.00  0.00     0.196 HD
BRANCH   9  12
HETATM   12  O3  UNL     1      64.190  15.602  32.483  1.00  0.00    -0.345 OA
ATOM     13  H3  UNL     1      63.780  15.139  33.203  1.00  0.00     0.219 HD
ENDBRANCH   9  12
BRANCH  10  14
HETATM   14  O4  UNL     1      63.226  18.287  30.341  1.00  0.00    -0.288 OA
ATOM     15  H4  UNL     1      62.960  18.020  29.470  1.00  0.00     0.244 HD
ENDBRANCH  10  14
ENDBRANCH   4   9
BRANCH   1  16
HETATM   16  N1  UNL     1      61.849  15.979  33.894  1.00  0.00    -0.070 N
ATOM     17  H13 UNL     1      62.702  16.531  33.799  1.00  0.00     0.274 HD
ATOM     18  H12 UNL     1      61.360  16.573  34.565  1.00  0.00     0.274 HD
ATOM     19  H11 UNL     1      62.036  15.051  34.273  1.00  0.00     0.274 HD
ENDBRANCH   1  16
BRANCH   3  20
HETATM   20  S1  UNL     1      60.102  16.632  29.659  1.00  0.00     0.285 S
HETATM   21  O1  UNL     1      59.096  17.773  29.587  1.00  0.00    -0.194 OA
HETATM   22  O2  UNL     1      59.326  15.396  29.940  1.00  0.00    -0.194 OA
BRANCH  20  23
HETATM   23  N3  UNL     1      60.949  16.610  28.184  1.00  0.00    -0.197 NA
HETATM   24  C3  UNL     1      60.500  15.625  27.257  1.00  0.00     0.108 C
HETATM   25  C4  UNL     1      59.349  16.091  26.397  1.00  0.00     0.015 C
HETATM   26  C5  UNL     1      59.607  17.460  25.805  1.00  0.00     0.002 C
HETATM   27  C6  UNL     1      59.998  18.452  26.876  1.00  0.00     0.015 C
HETATM   28  C7  UNL     1      61.188  17.894  27.614  1.00  0.00     0.108 C
ENDBRANCH  20  23
ENDBRANCH   3  20
TORSDOF 7
ENDMDL