MODEL 1
REMARK VINA RESULT: -9.514420433      0.000      0.000
REMARK  6 active torsions:
REMARK  status: ('A' for Active; 'I' for Inactive)
REMARK       I    between atoms: C2_5  and  N3_6
REMARK       I    between atoms: C2_5  and  N5_17
REMARK    1  A    between atoms: N3_6  and  N4_8
REMARK       I    between atoms: N4_8  and  C3_10
REMARK    2  A    between atoms: C3_10  and  O2_12
REMARK    3  A    between atoms: O2_12  and  C4_13
REMARK    4  A    between atoms: C4_13  and  C5_14
REMARK    5  A    between atoms: C5_14  and  O3_15
REMARK       I    between atoms: N5_17  and  C6_19
REMARK    6  A    between atoms: C6_19  and  C7_21
ROOT
HETATM    1  N1  UNL     1      64.909  15.706  32.543  1.00  0.00    -0.171 NA
HETATM    2  C1  UNL     1      64.321  16.354  31.778  1.00  0.00     0.196 C
HETATM    3  N2  UNL     1      63.608  17.145  30.884  1.00  0.00    -0.124 N
ATOM      4  H2  UNL     1      63.768  18.152  30.907  1.00  0.00     0.197 HD
HETATM    5  C2  UNL     1      62.754  16.690  30.026  1.00  0.00     0.708 C
HETATM    6  N3  UNL     1      62.490  15.285  29.948  1.00  0.00    -0.127 N
ATOM      7  H3  UNL     1      62.955  14.698  29.255  1.00  0.00     0.206 HD
HETATM    8  N5  UNL     1      62.048  17.565  29.176  1.00  0.00    -0.153 N
ATOM      9  H5  UNL     1      62.202  18.571  29.246  1.00  0.00     0.187 HD
HETATM   10  C6  UNL     1      61.130  17.062  28.225  1.00  0.00     0.269 C
HETATM   11  O4  UNL     1      60.947  15.820  28.126  1.00  0.00    -0.267 OA
ENDROOT
BRANCH   6  12
HETATM   12  N4  UNL     1      61.584  14.752  30.843  1.00  0.00    -0.231 N
HETATM   13  C3  UNL     1      60.769  15.594  31.643  1.00  0.00     0.379 C
HETATM   14  O1  UNL     1      60.852  16.844  31.567  1.00  0.00    -0.237 OA
ATOM     15  H4  UNL     1      61.498  13.739  30.929  1.00  0.00     0.193 HD
BRANCH  13  16
HETATM   16  O2  UNL     1      59.852  15.069  32.536  1.00  0.00    -0.301 OA
BRANCH  16  17
HETATM   17  C4  UNL     1      59.302  13.819  32.435  1.00  0.00     0.206 C
BRANCH  17  18
HETATM   18  C5  UNL     1      58.143  13.646  31.499  1.00  0.00     0.191 C
BRANCH  18  19
HETATM   19  O3  UNL     1      57.967  12.244  31.360  1.00  0.00    -0.399 OA
ATOM     20  H3  UNL     1      58.250  12.036  30.478  1.00  0.00     0.209 HD
ENDBRANCH  18  19
ENDBRANCH  17  18
ENDBRANCH  16  17
ENDBRANCH  13  16
ENDBRANCH   6  12
BRANCH  10  21
HETATM   21  C7  UNL     1      60.374  17.965  27.342  1.00  0.00     0.032 A
HETATM   22  C8  UNL     1      59.758  17.506  26.199  1.00  0.00     0.017 A
HETATM   23  C9  UNL     1      59.039  18.350  25.374  1.00  0.00     0.001 A
HETATM   24  C10 UNL     1      58.949  19.688  25.722  1.00  0.00     0.000 A
HETATM   25  C11 UNL     1      59.554  20.177  26.859  1.00  0.00     0.001 A
HETATM   26  C12 UNL     1      60.269  19.299  27.667  1.00  0.00     0.017 A
ENDBRANCH  10  21
TORSDOF 6
ENDMDL