MODEL 3
REMARK VINA RESULT: -6.558150433      1.046      1.215
REMARK  5 active torsions:
REMARK  status: ('A' for Active; 'I' for Inactive)
REMARK    1  A    between atoms: C5_5  and  N1_6
REMARK       I    between atoms: N1_6  and  C6_8
REMARK    2  A    between atoms: C6_8  and  O2_10
REMARK    3  A    between atoms: O2_10  and  C7_11
REMARK    4  A    between atoms: C7_11  and  C8_12
REMARK    5  A    between atoms: N4_23  and  O3_24
ROOT
HETATM    1  N1  UNL     1      13.924  16.197  20.832  1.00  0.00    -0.332 N
ATOM      2  H1  UNL     1      14.782  15.649  20.880  1.00  0.00     0.165 HD
HETATM    3  C6  UNL     1      13.287  16.607  22.055  1.00  0.00     0.361 C
HETATM    4  O1  UNL     1      12.227  17.282  22.032  1.00  0.00    -0.238 OA
ENDROOT
BRANCH   1   5
HETATM    5  C5  UNL     1      13.382  16.541  19.540  1.00  0.00     0.090 C
HETATM    6  C4  UNL     1      14.291  17.475  18.819  1.00  0.00     0.052 C
HETATM    7  C2  UNL     1      14.906  16.949  17.576  1.00  0.00     0.034 C
HETATM    8  C1  UNL     1      15.423  18.156  16.781  1.00  0.00     0.034 C
HETATM    9  C3  UNL     1      16.165  16.165  17.966  1.00  0.00     0.034 C
HETATM   10  N4  UNL     1      14.050  16.215  16.714  1.00  0.00    -0.182 NA
HETATM   11  C12 UNL     1      12.860  15.706  17.300  1.00  0.00     0.034 C
HETATM   12  C11 UNL     1      13.017  15.309  18.745  1.00  0.00     0.052 C
HETATM   13  C13 UNL     1      11.769  16.754  17.134  1.00  0.00     0.034 C
HETATM   14  C14 UNL     1      12.404  14.482  16.522  1.00  0.00     0.034 C
BRANCH  10  15
HETATM   15  O3  UNL     1      14.698  15.327  15.932  1.00  0.00    -0.312 OA
ATOM     16  H3  UNL     1      14.965  15.681  15.093  1.00  0.00     0.237 HD
ENDBRANCH  10  15
ENDBRANCH   1   5
BRANCH   3  17
HETATM   17  O2  UNL     1      13.813  16.274  23.292  1.00  0.00    -0.297 OA
BRANCH  17  18
HETATM   18  C7  UNL     1      14.467  17.202  24.131  1.00  0.00     0.256 C
BRANCH  18  19
HETATM   19  C8  UNL     1      15.927  17.291  23.800  1.00  0.00     0.097 C
HETATM   20  N2  UNL     1      16.918  16.867  24.496  1.00  0.00    -0.377 N
HETATM   21  C9  UNL     1      18.154  17.150  23.824  1.00  0.00     0.140 C
ATOM     22  H2  UNL     1      16.839  16.396  25.398  1.00  0.00     0.160 HD
HETATM   23  C10 UNL     1      17.749  17.412  22.408  1.00  0.00     0.140 C
HETATM   24  N3  UNL     1      16.382  17.892  22.596  1.00  0.00    -0.377 N
ATOM     25  H3  UNL     1      15.862  18.527  21.990  1.00  0.00     0.160 HD
ENDBRANCH  18  19
ENDBRANCH  17  18
ENDBRANCH   3  17
TORSDOF 5
ENDMDL