MODEL 3
REMARK VINA RESULT: -7.655551804      2.359      2.877
REMARK  8 active torsions:
REMARK  status: ('A' for Active; 'I' for Inactive)
REMARK    1  A    between atoms: C3_3  and  C4_4
REMARK    2  A    between atoms: C4_4  and  O1_5
REMARK    3  A    between atoms: N1_7  and  O2_9
REMARK    4  A    between atoms: C5_11  and  C6_12
REMARK    5  A    between atoms: C9_15  and  O3_16
REMARK    6  A    between atoms: O3_16  and  O4_17
REMARK    7  A    between atoms: C12_21  and  O5_23
REMARK    8  A    between atoms: N2_25  and  O6_26
ROOT
HETATM    1  C1  UNL     1      12.286  14.315  15.714  1.00  0.00     0.029 C
HETATM    2  C2  UNL     1      12.871  15.591  16.208  1.00  0.00     0.098 C
HETATM    3  C3  UNL     1      14.021  15.331  17.226  1.00  0.00     0.094 C
HETATM    4  C5  UNL     1      14.222  16.717  17.690  1.00  0.00     0.083 C
HETATM    5  C12 UNL     1      12.788  17.247  17.774  1.00  0.00     0.141 C
HETATM    6  C13 UNL     1      12.707  18.505  16.932  1.00  0.00     0.067 C
HETATM    7  N2  UNL     1      11.941  16.250  17.144  1.00  0.00    -0.159 NA
ENDROOT
BRANCH   4   8
HETATM    8  C6  UNL     1      14.996  16.964  18.889  1.00  0.00    -0.049 A
HETATM    9  C7  UNL     1      14.634  16.713  20.191  1.00  0.00     0.010 A
HETATM   10  C8  UNL     1      15.468  17.005  21.252  1.00  0.00     0.040 A
HETATM   11  C9  UNL     1      16.715  17.566  21.064  1.00  0.00     0.106 A
HETATM   12  C10 UNL     1      17.089  17.821  19.767  1.00  0.00     0.040 A
HETATM   13  C11 UNL     1      16.267  17.533  18.711  1.00  0.00     0.010 A
BRANCH  11  14
HETATM   14  O3  UNL     1      17.565  17.866  22.117  1.00  0.00    -0.200 OA
BRANCH  14  15
HETATM   15  O4  UNL     1      18.858  17.557  22.061  1.00  0.00    -0.245 OA
ATOM     16  H4  UNL     1      19.282  17.377  21.231  1.00  0.00     0.254 HD
ENDBRANCH  14  15
ENDBRANCH  11  14
ENDBRANCH   4   8
BRANCH   3  17
HETATM   17  C4  UNL     1      13.515  14.359  18.208  1.00  0.00     0.141 C
HETATM   18  N1  UNL     1      14.385  13.583  18.820  1.00  0.00    -0.251 N
ATOM     19  H1  UNL     1      14.038  12.908  19.501  1.00  0.00     0.196 HD
BRANCH  17  20
HETATM   20  O1  UNL     1      12.213  14.155  18.570  1.00  0.00    -0.348 OA
ATOM     21  H1  UNL     1      11.549  13.685  18.079  1.00  0.00     0.219 HD
ENDBRANCH  17  20
BRANCH  18  22
HETATM   22  O2  UNL     1      15.719  13.639  18.589  1.00  0.00    -0.288 OA
ATOM     23  H2  UNL     1      16.149  14.394  18.207  1.00  0.00     0.244 HD
ENDBRANCH  18  22
ENDBRANCH   3  17
BRANCH   5  24
HETATM   24  O5  UNL     1      12.397  17.423  19.073  1.00  0.00    -0.373 OA
ATOM     25  H5  UNL     1      13.135  17.354  19.669  1.00  0.00     0.212 HD
ENDBRANCH   5  24
BRANCH   7  26
HETATM   26  O6  UNL     1      10.920  16.825  16.466  1.00  0.00    -0.310 OA
ATOM     27  H6  UNL     1      10.653  17.631  16.893  1.00  0.00     0.237 HD
ENDBRANCH   7  26
TORSDOF 8
ENDMDL