MODEL 2
REMARK VINA RESULT: -7.544587572      3.696      5.285
REMARK  7 active torsions:
REMARK  status: ('A' for Active; 'I' for Inactive)
REMARK    1  A    between atoms: C2_3  and  C4_6
REMARK    2  A    between atoms: C4_6  and  S1_10
REMARK    3  A    between atoms: S1_10  and  C5_11
REMARK    4  A    between atoms: C5_11  and  C6_12
REMARK       I    between atoms: C6_12  and  N4_14
REMARK    5  A    between atoms: N4_14  and  N5_16
REMARK    6  A    between atoms: N5_16  and  C7_18
REMARK    7  A    between atoms: C7_18  and  C8_22
ROOT
HETATM    1  N1  UNL     1      15.776  16.204  20.050  1.00  0.00    -0.195 NA
HETATM    2  C1  UNL     1      15.961  16.799  21.027  1.00  0.00     0.085 C
HETATM    3  C2  UNL     1      16.215  17.547  22.253  1.00  0.00     0.255 C
HETATM    4  C3  UNL     1      17.663  17.609  22.455  1.00  0.00     0.085 C
HETATM    5  N2  UNL     1      18.813  17.667  22.623  1.00  0.00    -0.195 NA
ENDROOT
BRANCH   3   6
HETATM    6  C4  UNL     1      15.536  16.889  23.436  1.00  0.00     0.072 C
HETATM    7  N3  UNL     1      16.083  16.987  24.577  1.00  0.00    -0.395 N
ATOM      8  H32 UNL     1      16.954  17.478  24.779  1.00  0.00     0.156 HD
ATOM      9  H31 UNL     1      15.626  16.544  25.374  1.00  0.00     0.156 HD
BRANCH   6  10
HETATM   10  S1  UNL     1      14.020  16.034  23.086  1.00  0.00    -0.105 SA
BRANCH  10  11
HETATM   11  C5  UNL     1      12.606  17.128  23.269  1.00  0.00     0.185 C
BRANCH  11  12
HETATM   12  C6  UNL     1      12.091  17.486  21.931  1.00  0.00     0.245 C
HETATM   13  O1  UNL     1      11.073  18.237  21.895  1.00  0.00    -0.271 OA
HETATM   14  N4  UNL     1      12.696  17.018  20.727  1.00  0.00    -0.268 N
ATOM     15  H4  UNL     1      13.520  16.418  20.749  1.00  0.00     0.190 HD
BRANCH  14  16
HETATM   16  N5  UNL     1      12.118  17.414  19.517  1.00  0.00    -0.286 N
ATOM     17  H5  UNL     1      11.245  17.941  19.527  1.00  0.00     0.188 HD
BRANCH  16  18
HETATM   18  C7  UNL     1      12.721  17.095  18.279  1.00  0.00     0.093 C
HETATM   19  N6  UNL     1      13.934  17.446  18.044  1.00  0.00    -0.388 N
ATOM     20  H62 UNL     1      14.450  17.954  18.762  1.00  0.00     0.157 HD
ATOM     21  H61 UNL     1      14.370  17.216  17.150  1.00  0.00     0.157 HD
BRANCH  18  22
HETATM   22  C8  UNL     1      11.981  16.366  17.248  1.00  0.00     0.054 C
HETATM   23  C9  UNL     1      12.129  16.986  15.867  1.00  0.00     0.012 C
HETATM   24  C10 UNL     1      11.411  15.908  15.042  1.00  0.00     0.001 C
HETATM   25  C11 UNL     1      12.024  14.635  15.599  1.00  0.00     0.001 C
HETATM   26  C12 UNL     1      12.479  14.969  17.004  1.00  0.00     0.012 C
ENDBRANCH  18  22
ENDBRANCH  16  18
ENDBRANCH  14  16
ENDBRANCH  11  12
ENDBRANCH  10  11
ENDBRANCH   6  10
ENDBRANCH   3   6
TORSDOF 7
ENDMDL