MODEL 2
REMARK VINA RESULT: -7.094044330      3.012      4.832
REMARK  7 active torsions:
REMARK  status: ('A' for Active; 'I' for Inactive)
REMARK    1  A    between atoms: O1_2  and  C2_3
REMARK       I    between atoms: C2_3  and  N1_5
REMARK    2  A    between atoms: N1_5  and  C3_7
REMARK    3  A    between atoms: C3_7  and  C4_8
REMARK    4  A    between atoms: C4_8  and  O3_9
REMARK    5  A    between atoms: C4_8  and  C5_11
REMARK    6  A    between atoms: C8_15  and  O4_16
REMARK    7  A    between atoms: C12_21  and  O5_22
ROOT
HETATM    1  C5  UNL     1      14.588  16.880  18.431  1.00  0.00     0.047 A
HETATM    2  S1  UNL     1      15.124  17.726  17.054  1.00  0.00    -0.090 SA
HETATM    3  C6  UNL     1      16.766  17.896  17.455  1.00  0.00     0.021 A
HETATM    4  C7  UNL     1      16.861  17.279  18.675  1.00  0.00    -0.008 A
HETATM    5  C8  UNL     1      15.725  16.752  19.179  1.00  0.00     0.088 A
HETATM    6  C9  UNL     1      18.278  17.311  19.249  1.00  0.00     0.043 C
HETATM    7  C10 UNL     1      18.678  18.759  19.213  1.00  0.00     0.007 C
HETATM    8  C11 UNL     1      18.818  19.250  17.810  1.00  0.00     0.037 C
HETATM    9  C12 UNL     1      17.979  18.520  16.797  1.00  0.00     0.158 C
ENDROOT
BRANCH   1  10
HETATM   10  C4  UNL     1      13.201  16.377  18.772  1.00  0.00     0.178 C
BRANCH  10  11
HETATM   11  C3  UNL     1      12.614  17.391  19.717  1.00  0.00     0.162 C
BRANCH  11  12
HETATM   12  N1  UNL     1      12.767  16.920  21.073  1.00  0.00    -0.334 N
HETATM   13  C2  UNL     1      11.956  17.391  22.140  1.00  0.00     0.360 C
HETATM   14  O2  UNL     1      11.067  18.248  21.922  1.00  0.00    -0.239 OA
ATOM     15  H1  UNL     1      13.484  16.223  21.272  1.00  0.00     0.164 HD
BRANCH  13  16
HETATM   16  O1  UNL     1      12.116  16.928  23.432  1.00  0.00    -0.309 OA
HETATM   17  C1  UNL     1      13.354  16.372  23.805  1.00  0.00     0.215 C
ENDBRANCH  13  16
ENDBRANCH  11  12
ENDBRANCH  10  11
BRANCH  10  18
HETATM   18  O3  UNL     1      13.281  15.164  19.450  1.00  0.00    -0.389 OA
ATOM     19  H3  UNL     1      12.776  14.526  18.960  1.00  0.00     0.210 HD
ENDBRANCH  10  18
ENDBRANCH   1  10
BRANCH   5  20
HETATM   20  O4  UNL     1      15.687  16.086  20.435  1.00  0.00    -0.359 OA
ATOM     21  H4  UNL     1      16.379  15.483  20.678  1.00  0.00     0.217 HD
ENDBRANCH   5  20
BRANCH   9  22
HETATM   22  O5  UNL     1      17.474  19.434  15.874  1.00  0.00    -0.390 OA
ATOM     23  H5  UNL     1      16.672  19.767  16.261  1.00  0.00     0.210 HD
ENDBRANCH   9  22
TORSDOF 7
ENDMDL