MODEL 5
REMARK VINA RESULT: -6.058615200      3.671      7.064
REMARK  7 active torsions:
REMARK  status: ('A' for Active; 'I' for Inactive)
REMARK    1  A    between atoms: C2_2  and  N1_5
REMARK    2  A    between atoms: N1_5  and  C5_8
REMARK    3  A    between atoms: C5_8  and  C6_9
REMARK    4  A    between atoms: C8_11  and  O1_12
REMARK    5  A    between atoms: C9_14  and  O2_15
REMARK    6  A    between atoms: C10_17  and  N2_18
REMARK    7  A    between atoms: C14_22  and  O3_23
ROOT
HETATM    1  C6  UNL     1      16.367  18.133  17.092  1.00  0.00     0.152 C
HETATM    2  C7  UNL     1      17.378  17.942  15.978  1.00  0.00     0.068 C
HETATM    3  C8  UNL     1      18.652  18.596  16.526  1.00  0.00     0.153 C
HETATM    4  C9  UNL     1      18.953  18.127  17.914  1.00  0.00     0.196 C
HETATM    5  C10 UNL     1      17.969  17.215  18.522  1.00  0.00     0.261 C
HETATM    6  O4  UNL     1      16.692  17.251  18.079  1.00  0.00    -0.356 OA
ENDROOT
BRANCH   1   7
HETATM    7  C5  UNL     1      14.957  17.842  16.610  1.00  0.00     0.265 C
BRANCH   7   8
HETATM    8  N1  UNL     1      14.878  16.447  16.239  1.00  0.00    -0.065 N
ATOM      9  H12 UNL     1      14.553  15.880  17.022  1.00  0.00     0.278 HD
ATOM     10  H11 UNL     1      15.809  16.049  16.120  1.00  0.00     0.278 HD
BRANCH   8  11
HETATM   11  C2  UNL     1      14.071  16.224  15.076  1.00  0.00     0.115 C
HETATM   12  C1  UNL     1      12.891  15.330  15.318  1.00  0.00     0.045 C
HETATM   13  C3  UNL     1      13.618  17.597  14.577  1.00  0.00     0.045 C
HETATM   14  C4  UNL     1      14.976  15.629  13.998  1.00  0.00     0.045 C
ENDBRANCH   8  11
ENDBRANCH   7   8
ENDBRANCH   1   7
BRANCH   3  15
HETATM   15  O1  UNL     1      18.423  19.971  16.450  1.00  0.00    -0.393 OA
ATOM     16  H1  UNL     1      18.345  20.263  17.351  1.00  0.00     0.210 HD
ENDBRANCH   3  15
BRANCH   5  17
HETATM   17  N2  UNL     1      17.935  17.360  19.988  1.00  0.00    -0.308 N
HETATM   18  C11 UNL     1      16.882  17.586  20.773  1.00  0.00     0.096 A
HETATM   19  C12 UNL     1      17.261  17.658  22.099  1.00  0.00     0.022 A
HETATM   20  C13 UNL     1      18.622  17.462  22.115  1.00  0.00     0.057 A
HETATM   21  C14 UNL     1      19.017  17.281  20.809  1.00  0.00     0.144 A
BRANCH  21  22
HETATM   22  O3  UNL     1      20.337  17.053  20.421  1.00  0.00    -0.346 OA
ATOM     23  H3  UNL     1      21.113  17.447  20.803  1.00  0.00     0.219 HD
ENDBRANCH  21  22
ENDBRANCH   5  17
BRANCH   4  24
HETATM   24  O2  UNL     1      19.099  19.249  18.730  1.00  0.00    -0.389 OA
ATOM     25  H2  UNL     1      18.857  19.004  19.615  1.00  0.00     0.210 HD
ENDBRANCH   4  24
TORSDOF 7
ENDMDL