MODEL 1
REMARK VINA RESULT: -6.941183736      0.000      0.000
REMARK  7 active torsions:
REMARK  status: ('A' for Active; 'I' for Inactive)
REMARK    1  A    between atoms: C2_2  and  O1_4
REMARK    2  A    between atoms: C2_2  and  C4_6
REMARK    3  A    between atoms: C4_6  and  C5_8
REMARK    4  A    between atoms: C5_8  and  N1_9
REMARK    5  A    between atoms: C6_10  and  O3_11
REMARK    6  A    between atoms: C9_15  and  O4_16
REMARK    7  A    between atoms: C14_22  and  O5_23
ROOT
HETATM    1  N1  UNL     1      15.182  17.536  18.240  1.00  0.00    -0.300 N
HETATM    2  C6  UNL     1      15.242  17.252  19.547  1.00  0.00     0.152 A
HETATM    3  C7  UNL     1      16.545  17.307  19.967  1.00  0.00     0.008 A
HETATM    4  C8  UNL     1      17.297  17.640  18.858  1.00  0.00     0.011 A
HETATM    5  C9  UNL     1      16.424  17.777  17.785  1.00  0.00     0.152 A
HETATM    6  C10 UNL     1      18.732  17.704  19.305  1.00  0.00     0.053 C
HETATM    7  C11 UNL     1      18.699  16.566  20.343  1.00  0.00     0.021 C
HETATM    8  C12 UNL     1      17.504  17.165  21.109  1.00  0.00     0.027 C
HETATM    9  C13 UNL     1      18.031  18.528  21.415  1.00  0.00     0.042 C
HETATM   10  C14 UNL     1      18.936  18.880  20.222  1.00  0.00     0.127 C
ENDROOT
BRANCH   1  11
HETATM   11  C5  UNL     1      13.969  17.582  17.407  1.00  0.00     0.215 C
BRANCH  11  12
HETATM   12  C4  UNL     1      13.789  16.291  16.692  1.00  0.00     0.178 C
HETATM   13  O2  UNL     1      14.533  15.941  15.797  1.00  0.00    -0.293 OA
BRANCH  12  14
HETATM   14  C2  UNL     1      12.667  15.419  17.092  1.00  0.00     0.112 C
HETATM   15  C1  UNL     1      12.176  14.689  15.860  1.00  0.00     0.054 C
HETATM   16  C3  UNL     1      13.099  14.361  18.092  1.00  0.00     0.054 C
BRANCH  14  17
HETATM   17  O1  UNL     1      11.630  16.131  17.679  1.00  0.00    -0.383 OA
ATOM     18  H1  UNL     1      11.946  16.617  18.432  1.00  0.00     0.211 HD
ENDBRANCH  14  17
ENDBRANCH  12  14
ENDBRANCH  11  12
ENDBRANCH   1  11
BRANCH   2  19
HETATM   19  O3  UNL     1      14.150  16.952  20.345  1.00  0.00    -0.345 OA
ATOM     20  H3  UNL     1      14.112  17.079  21.286  1.00  0.00     0.219 HD
ENDBRANCH   2  19
BRANCH   5  21
HETATM   21  O4  UNL     1      16.799  18.106  16.499  1.00  0.00    -0.345 OA
ATOM     22  H4  UNL     1      16.867  18.974  16.119  1.00  0.00     0.219 HD
ENDBRANCH   5  21
BRANCH  10  23
HETATM   23  O5  UNL     1      20.247  18.817  20.693  1.00  0.00    -0.395 OA
ATOM     24  H5  UNL     1      20.788  19.315  20.092  1.00  0.00     0.210 HD
ENDBRANCH  10  23
TORSDOF 7
ENDMDL