MODEL 3
REMARK VINA RESULT: -6.034266420      3.855      4.573
REMARK  7 active torsions:
REMARK  status: ('A' for Active; 'I' for Inactive)
REMARK    1  A    between atoms: N1_2  and  C3_4
REMARK    2  A    between atoms: C3_4  and  C4_9
REMARK    3  A    between atoms: N2_5  and  O1_7
REMARK    4  A    between atoms: C6_12  and  C7_13
REMARK    5  A    between atoms: N3_14  and  N4_16
REMARK    6  A    between atoms: N4_16  and  C8_18
REMARK    7  A    between atoms: C9_21  and  O2_22
ROOT
HETATM    1  C4  UNL     1      15.244  17.009  16.423  1.00  0.00     0.084 A
HETATM    2  S1  UNL     1      15.785  17.425  14.866  1.00  0.00    -0.094 SA
HETATM    3  C5  UNL     1      17.176  18.311  15.292  1.00  0.00     0.066 A
HETATM    4  C6  UNL     1      17.192  18.265  16.661  1.00  0.00     0.022 A
HETATM    5  C9  UNL     1      16.169  17.576  17.245  1.00  0.00     0.098 A
ENDROOT
BRANCH   1   6
HETATM    6  C3  UNL     1      14.057  16.199  16.793  1.00  0.00     0.142 C
HETATM    7  N2  UNL     1      14.199  15.096  17.391  1.00  0.00    -0.252 N
ATOM      8  H2  UNL     1      13.362  14.554  17.608  1.00  0.00     0.196 HD
BRANCH   6   9
HETATM    9  N1  UNL     1      12.807  16.739  16.402  1.00  0.00    -0.373 N
HETATM   10  C1  UNL     1      12.442  18.074  16.832  1.00  0.00     0.150 C
HETATM   11  C2  UNL     1      11.857  16.017  15.583  1.00  0.00     0.150 C
ENDBRANCH   6   9
BRANCH   7  12
HETATM   12  O1  UNL     1      15.396  14.594  17.759  1.00  0.00    -0.288 OA
ATOM     13  H1  UNL     1      15.972  15.014  18.387  1.00  0.00     0.244 HD
ENDBRANCH   7  12
ENDBRANCH   1   6
BRANCH   5  14
HETATM   14  O2  UNL     1      16.104  17.465  18.666  1.00  0.00    -0.358 OA
ATOM     15  H2  UNL     1      16.734  17.885  19.240  1.00  0.00     0.217 HD
ENDBRANCH   5  14
BRANCH   4  16
HETATM   16  C7  UNL     1      18.295  18.952  17.397  1.00  0.00     0.122 C
HETATM   17  N3  UNL     1      19.030  18.467  18.248  1.00  0.00    -0.309 N
ATOM     18  H3  UNL     1      19.686  19.177  18.570  1.00  0.00     0.186 HD
BRANCH  17  19
HETATM   19  N4  UNL     1      19.265  17.315  18.900  1.00  0.00    -0.279 N
ATOM     20  H4  UNL     1      19.244  16.458  18.347  1.00  0.00     0.189 HD
BRANCH  19  21
HETATM   21  C8  UNL     1      19.540  17.180  20.287  1.00  0.00     0.199 C
HETATM   22  N5  UNL     1      20.687  16.484  20.688  1.00  0.00    -0.068 NA
HETATM   23  S2  UNL     1      18.535  17.822  21.395  1.00  0.00    -0.043 SA
ENDBRANCH  19  21
ENDBRANCH  17  19
ENDBRANCH   4  16
TORSDOF 7
ENDMDL