MODEL 2
REMARK VINA RESULT: -7.695932948      0.129      1.051
REMARK  5 active torsions:
REMARK  status: ('A' for Active; 'I' for Inactive)
REMARK       I    between atoms: C1_2  and  N1_3
REMARK       I    between atoms: C1_2  and  N2_11
REMARK    1  A    between atoms: N1_3  and  C2_5
REMARK    2  A    between atoms: N2_11  and  C8_13
REMARK    3  A    between atoms: C8_13  and  O2_14
REMARK    4  A    between atoms: C8_13  and  N3_16
REMARK    5  A    between atoms: N3_16  and  C9_19
ROOT
HETATM    1  C8  UNL     1      13.454  14.574  18.063  1.00  0.00     0.430 C
ENDROOT
BRANCH   1   2
HETATM    2  N2  UNL     1      13.353  15.460  19.195  1.00  0.00    -0.294 N
HETATM    3  C1  UNL     1      14.567  15.761  19.918  1.00  0.00     0.324 C
HETATM    4  O1  UNL     1      15.627  15.251  19.535  1.00  0.00    -0.247 OA
HETATM    5  N1  UNL     1      14.454  16.623  21.015  1.00  0.00    -0.309 N
ATOM      6  H1  UNL     1      13.536  17.005  21.242  1.00  0.00     0.170 HD
ATOM      7  H2  UNL     1      12.458  15.860  19.476  1.00  0.00     0.168 HD
BRANCH   5   8
HETATM    8  C2  UNL     1      15.570  16.991  21.832  1.00  0.00     0.036 A
HETATM    9  C3  UNL     1      16.691  17.518  21.178  1.00  0.00     0.029 A
HETATM   10  C4  UNL     1      17.772  17.909  21.905  1.00  0.00     0.002 A
HETATM   11  C5  UNL     1      17.764  17.786  23.275  1.00  0.00     0.000 A
HETATM   12  C6  UNL     1      16.678  17.273  23.941  1.00  0.00     0.002 A
HETATM   13  C7  UNL     1      15.578  16.876  23.195  1.00  0.00     0.029 A
ENDBRANCH   5   8
ENDBRANCH   1   2
BRANCH   1  14
HETATM   14  O2  UNL     1      14.004  13.378  18.476  1.00  0.00    -0.354 OA
ATOM     15  H2  UNL     1      14.734  13.161  17.908  1.00  0.00     0.214 HD
ENDBRANCH   1  14
BRANCH   1  16
HETATM   16  N3  UNL     1      14.308  15.238  17.066  1.00  0.00    -0.024 N
ATOM     17  H32 UNL     1      14.873  15.996  17.447  1.00  0.00     0.282 HD
ATOM     18  H31 UNL     1      15.084  14.662  16.741  1.00  0.00     0.282 HD
BRANCH  16  19
HETATM   19  C9  UNL     1      13.404  15.659  16.002  1.00  0.00     0.223 C
HETATM   20  C10 UNL     1      12.150  14.822  15.977  1.00  0.00     0.204 C
HETATM   21  O3  UNL     1      11.240  15.669  15.358  1.00  0.00    -0.359 OA
HETATM   22  C11 UNL     1      11.467  16.952  15.788  1.00  0.00     0.265 C
HETATM   23  O4  UNL     1      11.511  17.838  14.700  1.00  0.00    -0.361 OA
HETATM   24  C14 UNL     1      12.844  17.008  16.406  1.00  0.00     0.076 C
HETATM   25  C12 UNL     1      12.354  18.883  15.087  1.00  0.00     0.171 C
HETATM   26  C13 UNL     1      13.544  18.099  15.650  1.00  0.00     0.038 C
ENDBRANCH  16  19
ENDBRANCH   1  16
TORSDOF 5
ENDMDL