MODEL 1
REMARK VINA RESULT: -7.301893731      0.000      0.000
REMARK  6 active torsions:
REMARK  status: ('A' for Active; 'I' for Inactive)
REMARK    1  A    between atoms: C1_2  and  C2_3
REMARK    2  A    between atoms: C1_2  and  C3_10
REMARK    3  A    between atoms: C2_3  and  O2_4
REMARK    4  A    between atoms: N1_6  and  O3_8
REMARK    5  A    between atoms: C8_15  and  N2_16
REMARK    6  A    between atoms: N2_16  and  C9_18
ROOT
HETATM    1  C3  UNL     1      17.364  17.534  21.879  1.00  0.00     0.045 A
HETATM    2  C4  UNL     1      17.729  17.464  23.227  1.00  0.00     0.018 A
HETATM    3  C5  UNL     1      16.850  17.124  24.249  1.00  0.00     0.001 A
HETATM    4  C6  UNL     1      15.557  16.841  23.945  1.00  0.00     0.002 A
HETATM    5  C7  UNL     1      15.167  16.900  22.629  1.00  0.00     0.030 A
HETATM    6  C8  UNL     1      16.045  17.240  21.590  1.00  0.00     0.042 A
ENDROOT
BRANCH   1   7
HETATM    7  C1  UNL     1      18.302  17.954  20.877  1.00  0.00     0.236 C
HETATM    8  O1  UNL     1      18.804  19.125  20.943  1.00  0.00    -0.283 OA
BRANCH   7   9
HETATM    9  C2  UNL     1      18.761  17.177  19.759  1.00  0.00     0.212 C
HETATM   10  N1  UNL     1      20.000  16.725  19.703  1.00  0.00    -0.244 N
ATOM     11  H1  UNL     1      20.292  16.177  18.893  1.00  0.00     0.196 HD
BRANCH   9  12
HETATM   12  O2  UNL     1      18.018  16.818  18.657  1.00  0.00    -0.342 OA
ATOM     13  H2  UNL     1      17.071  16.753  18.615  1.00  0.00     0.219 HD
ENDBRANCH   9  12
BRANCH  10  14
HETATM   14  O3  UNL     1      20.893  16.970  20.689  1.00  0.00    -0.288 OA
ATOM     15  H3  UNL     1      21.411  16.276  21.079  1.00  0.00     0.244 HD
ENDBRANCH  10  14
ENDBRANCH   7   9
ENDBRANCH   1   7
BRANCH   6  16
HETATM   16  N2  UNL     1      15.513  17.186  20.280  1.00  0.00    -0.382 N
ATOM     17  H2  UNL     1      15.895  17.785  19.549  1.00  0.00     0.160 HD
BRANCH  16  18
HETATM   18  C9  UNL     1      14.416  16.271  19.975  1.00  0.00     0.113 C
HETATM   19  C10 UNL     1      13.756  16.628  18.628  1.00  0.00     0.059 C
HETATM   20  C11 UNL     1      14.102  15.330  17.912  1.00  0.00     0.126 C
HETATM   21  C12 UNL     1      13.802  14.238  18.889  1.00  0.00     0.066 C
HETATM   22  O4  UNL     1      15.456  15.174  18.275  1.00  0.00    -0.378 OA
HETATM   23  C13 UNL     1      14.967  14.929  19.565  1.00  0.00     0.147 C
ENDBRANCH  16  18
ENDBRANCH   6  16
TORSDOF 6
ENDMDL