MODEL 5
REMARK VINA RESULT: -6.470361381      1.023      1.798
REMARK  4 active torsions:
REMARK  status: ('A' for Active; 'I' for Inactive)
REMARK       I    between atoms: C1_2  and  N4_13
REMARK    1  A    between atoms: N2_3  and  N3_5
REMARK    2  A    between atoms: C2_7  and  C3_8
REMARK    3  A    between atoms: N4_13  and  N5_15
REMARK    4  A    between atoms: N5_15  and  C7_17
ROOT
HETATM    1  N1  UNL     1      12.559  17.050  19.985  1.00  0.00    -0.061 NA
HETATM    2  C1  UNL     1      13.169  16.163  19.049  1.00  0.00     0.222 C
HETATM    3  N2  UNL     1      14.341  15.740  19.263  1.00  0.00    -0.273 N
ATOM      4  H2  UNL     1      14.759  15.107  18.580  1.00  0.00     0.189 HD
HETATM    5  N4  UNL     1      12.464  15.782  17.904  1.00  0.00    -0.272 N
ATOM      6  H4  UNL     1      11.449  15.877  17.873  1.00  0.00     0.189 HD
ENDROOT
BRANCH   3   7
HETATM    7  N3  UNL     1      15.080  16.086  20.365  1.00  0.00    -0.308 N
HETATM    8  C2  UNL     1      16.085  16.890  20.367  1.00  0.00     0.126 C
ATOM      9  H3  UNL     1      14.811  15.671  21.257  1.00  0.00     0.186 HD
BRANCH   8  10
HETATM   10  C3  UNL     1      16.753  17.137  21.668  1.00  0.00     0.021 A
HETATM   11  C4  UNL     1      16.151  17.360  22.879  1.00  0.00     0.021 A
HETATM   12  C5  UNL     1      16.945  17.556  23.934  1.00  0.00     0.008 A
HETATM   13  C6  UNL     1      18.298  17.517  23.718  1.00  0.00     0.050 A
HETATM   14  S1  UNL     1      18.410  17.207  22.044  1.00  0.00    -0.101 SA
ENDBRANCH   8  10
ENDBRANCH   3   7
BRANCH   5  15
HETATM   15  N5  UNL     1      13.149  15.275  16.808  1.00  0.00    -0.298 N
ATOM     16  H5  UNL     1      13.357  14.277  16.779  1.00  0.00     0.187 HD
BRANCH  15  17
HETATM   17  C7  UNL     1      13.572  16.091  15.725  1.00  0.00     0.048 A
HETATM   18  C8  UNL     1      14.457  15.592  14.803  1.00  0.00     0.031 A
HETATM   19  C9  UNL     1      14.876  16.393  13.747  1.00  0.00     0.002 A
HETATM   20  C10 UNL     1      14.419  17.687  13.607  1.00  0.00     0.000 A
HETATM   21  C11 UNL     1      13.531  18.192  14.531  1.00  0.00     0.002 A
HETATM   22  C12 UNL     1      13.115  17.394  15.580  1.00  0.00     0.031 A
ENDBRANCH  15  17
ENDBRANCH   5  15
TORSDOF 4
ENDMDL