MODEL 1
REMARK VINA RESULT: -8.733496232      0.000      0.000
REMARK  7 active torsions:
REMARK  status: ('A' for Active; 'I' for Inactive)
REMARK    1  A    between atoms: C2_2  and  C4_4
REMARK    2  A    between atoms: C8_11  and  O1_12
REMARK    3  A    between atoms: O1_12  and  C9_13
REMARK    4  A    between atoms: C9_13  and  C10_15
REMARK    5  A    between atoms: C11_16  and  C12_17
REMARK    6  A    between atoms: C12_17  and  O3_18
REMARK    7  A    between atoms: N2_20  and  O4_22
ROOT
HETATM    1  C4  UNL     1      16.899  16.832  19.146  1.00  0.00    -0.008 C
HETATM    2  C5  UNL     1      17.569  17.988  18.440  1.00  0.00     0.011 C
HETATM    3  C6  UNL     1      18.865  18.267  19.183  1.00  0.00     0.055 C
HETATM    4  C7  UNL     1      19.128  17.253  20.236  1.00  0.00     0.010 C
HETATM    5  N1  UNL     1      20.244  16.627  20.201  1.00  0.00    -0.403 N
ATOM      6  H11 UNL     1      20.425  15.930  20.924  1.00  0.00     0.155 HD
ATOM      7  H12 UNL     1      20.962  16.782  19.493  1.00  0.00     0.155 HD
HETATM    8  C8  UNL     1      18.082  17.026  21.266  1.00  0.00     0.177 C
HETATM    9  C13 UNL     1      16.739  17.193  20.586  1.00  0.00     0.043 C
ENDROOT
BRANCH   8  10
HETATM   10  O1  UNL     1      18.176  17.956  22.326  1.00  0.00    -0.307 OA
BRANCH  10  11
HETATM   11  C9  UNL     1      17.617  17.689  23.560  1.00  0.00     0.283 C
HETATM   12  O2  UNL     1      18.322  17.158  24.437  1.00  0.00    -0.260 OA
BRANCH  11  13
HETATM   13  C10 UNL     1      16.233  17.998  23.888  1.00  0.00     0.086 C
HETATM   14  C11 UNL     1      15.301  17.063  23.933  1.00  0.00     0.063 C
BRANCH  14  15
HETATM   15  C12 UNL     1      13.925  17.418  24.267  1.00  0.00     0.159 C
HETATM   16  N2  UNL     1      12.950  16.890  23.611  1.00  0.00    -0.248 N
ATOM     17  H2  UNL     1      13.134  16.224  22.860  1.00  0.00     0.196 HD
BRANCH  15  18
HETATM   18  O3  UNL     1      13.686  18.318  25.284  1.00  0.00    -0.345 OA
ATOM     19  H3  UNL     1      13.004  18.970  25.178  1.00  0.00     0.219 HD
ENDBRANCH  15  18
BRANCH  16  20
HETATM   20  O4  UNL     1      11.679  17.228  23.930  1.00  0.00    -0.288 OA
ATOM     21  H4  UNL     1      11.015  16.550  23.971  1.00  0.00     0.244 HD
ENDBRANCH  16  20
ENDBRANCH  14  15
ENDBRANCH  11  13
ENDBRANCH  10  11
ENDBRANCH   8  10
BRANCH   1  22
HETATM   22  C2  UNL     1      15.562  16.508  18.476  1.00  0.00    -0.019 C
HETATM   23  C1  UNL     1      15.311  17.500  17.361  1.00  0.00     0.010 C
HETATM   24  C3  UNL     1      14.499  16.746  19.529  1.00  0.00     0.010 C
ENDBRANCH   1  22
TORSDOF 7
ENDMDL