MODEL 4
REMARK VINA RESULT: -6.653929695      2.420      2.787
REMARK  7 active torsions:
REMARK  status: ('A' for Active; 'I' for Inactive)
REMARK    1  A    between atoms: C2_2  and  C10_17
REMARK    2  A    between atoms: C3_3  and  C4_4
REMARK    3  A    between atoms: C4_4  and  C5_5
REMARK    4  A    between atoms: C7_9  and  C8_10
REMARK    5  A    between atoms: C8_10  and  O1_11
REMARK    6  A    between atoms: C10_17  and  O2_18
REMARK    7  A    between atoms: N2_20  and  N3_22
ROOT
HETATM    1  C5  UNL     1      15.324  16.165  17.878  1.00  0.00     0.094 C
HETATM    2  S1  UNL     1      15.119  14.639  18.859  1.00  0.00    -0.090 SA
HETATM    3  S2  UNL     1      12.968  14.592  18.687  1.00  0.00    -0.088 SA
HETATM    4  C6  UNL     1      12.850  16.060  17.635  1.00  0.00     0.123 C
HETATM    5  C7  UNL     1      12.516  15.576  16.213  1.00  0.00     0.226 C
HETATM    6  N1  UNL     1      13.944  15.386  16.030  1.00  0.00    -0.061 N
ATOM      7  H11 UNL     1      14.375  15.490  15.111  1.00  0.00     0.278 HD
ATOM      8  H12 UNL     1      14.364  14.459  16.100  1.00  0.00     0.278 HD
HETATM    9  C9  UNL     1      14.147  16.369  17.057  1.00  0.00     0.217 C
ENDROOT
BRANCH   1  10
HETATM   10  C4  UNL     1      15.720  17.327  18.760  1.00  0.00     0.046 C
BRANCH  10  11
HETATM   11  C3  UNL     1      16.775  17.063  19.686  1.00  0.00    -0.014 C
HETATM   12  C2  UNL     1      17.981  17.567  19.650  1.00  0.00    -0.013 C
HETATM   13  C1  UNL     1      18.478  18.517  18.629  1.00  0.00     0.052 C
BRANCH  12  14
HETATM   14  C10 UNL     1      18.973  17.186  20.692  1.00  0.00     0.160 C
HETATM   15  N2  UNL     1      18.830  17.282  21.921  1.00  0.00    -0.286 N
ATOM     16  H2  UNL     1      19.634  16.962  22.462  1.00  0.00     0.188 HD
BRANCH  14  17
HETATM   17  O2  UNL     1      20.194  16.664  20.199  1.00  0.00    -0.345 OA
ATOM     18  H2  UNL     1      20.969  17.164  20.430  1.00  0.00     0.219 HD
ENDBRANCH  14  17
BRANCH  15  19
HETATM   19  N3  UNL     1      17.795  17.735  22.676  1.00  0.00    -0.343 N
ATOM     20  H32 UNL     1      16.998  17.098  22.683  1.00  0.00     0.176 HD
ATOM     21  H31 UNL     1      17.681  18.586  23.226  1.00  0.00     0.176 HD
ENDBRANCH  15  19
ENDBRANCH  12  14
ENDBRANCH  10  11
ENDBRANCH   1  10
BRANCH   5  22
HETATM   22  C8  UNL     1      11.950  16.651  15.317  1.00  0.00     0.198 C
BRANCH  22  23
HETATM   23  O1  UNL     1      10.569  16.633  15.336  1.00  0.00    -0.399 OA
ATOM     24  H1  UNL     1      10.239  16.859  16.198  1.00  0.00     0.209 HD
ENDBRANCH  22  23
ENDBRANCH   5  22
TORSDOF 7
ENDMDL