MODEL 3
REMARK VINA RESULT: -6.651058481      3.319      4.460
REMARK  6 active torsions:
REMARK  status: ('A' for Active; 'I' for Inactive)
REMARK    1  A    between atoms: C2_5  and  C3_6
REMARK    2  A    between atoms: C3_6  and  O1_7
REMARK    3  A    between atoms: O1_7  and  N2_8
REMARK    4  A    between atoms: C11_17  and  C12_18
REMARK    5  A    between atoms: C12_18  and  O3_19
REMARK    6  A    between atoms: N3_21  and  O4_23
ROOT
HETATM    1  N1  UNL     1      12.427  16.892  20.700  1.00  0.00    -0.399 N
ATOM      2  H11 UNL     1      11.732  17.409  21.238  1.00  0.00     0.156 HD
ATOM      3  H12 UNL     1      12.173  16.531  19.781  1.00  0.00     0.156 HD
HETATM    4  C1  UNL     1      13.618  16.695  21.173  1.00  0.00     0.048 C
HETATM    5  C2  UNL     1      14.605  15.961  20.409  1.00  0.00    -0.009 C
HETATM    6  C9  UNL     1      15.882  16.161  20.656  1.00  0.00     0.010 C
HETATM    7  C10 UNL     1      16.183  17.158  21.731  1.00  0.00     0.197 C
HETATM    8  O2  UNL     1      15.308  17.003  22.802  1.00  0.00    -0.368 OA
HETATM    9  C11 UNL     1      13.988  17.220  22.510  1.00  0.00     0.247 C
ENDROOT
BRANCH   5  10
HETATM   10  C3  UNL     1      14.147  15.006  19.374  1.00  0.00     0.242 C
BRANCH  10  11
HETATM   11  O1  UNL     1      14.532  15.412  18.094  1.00  0.00    -0.274 OA
BRANCH  11  12
HETATM   12  N2  UNL     1      13.487  15.769  17.410  1.00  0.00    -0.273 N
HETATM   13  C4  UNL     1      12.428  14.875  17.232  1.00  0.00     0.155 C
HETATM   14  C5  UNL     1      11.987  14.918  15.766  1.00  0.00     0.023 C
HETATM   15  C6  UNL     1      11.702  16.347  15.414  1.00  0.00     0.007 C
HETATM   16  C7  UNL     1      12.908  17.230  15.618  1.00  0.00     0.047 C
HETATM   17  C8  UNL     1      13.303  17.122  17.085  1.00  0.00     0.090 C
ENDBRANCH  11  12
ENDBRANCH  10  11
ENDBRANCH   5  10
BRANCH   9  18
HETATM   18  C12 UNL     1      13.179  16.450  23.490  1.00  0.00     0.171 C
HETATM   19  N3  UNL     1      13.707  15.498  24.139  1.00  0.00    -0.249 N
ATOM     20  H3  UNL     1      14.689  15.297  23.955  1.00  0.00     0.196 HD
BRANCH  18  21
HETATM   21  O3  UNL     1      11.858  16.794  23.672  1.00  0.00    -0.346 OA
ATOM     22  H3  UNL     1      11.333  17.003  22.909  1.00  0.00     0.219 HD
ENDBRANCH  18  21
BRANCH  19  23
HETATM   23  O4  UNL     1      13.075  14.722  25.061  1.00  0.00    -0.288 OA
ATOM     24  H4  UNL     1      12.557  15.041  25.791  1.00  0.00     0.244 HD
ENDBRANCH  19  23
ENDBRANCH   9  18
TORSDOF 6
ENDMDL