MODEL 2
REMARK VINA RESULT: -6.741797698      1.750      2.087
REMARK  9 active torsions:
REMARK  status: ('A' for Active; 'I' for Inactive)
REMARK    1  A    between atoms: C3_3  and  C4_4
REMARK    2  A    between atoms: C4_4  and  O1_7
REMARK    3  A    between atoms: O1_7  and  C7_8
REMARK    4  A    between atoms: C7_8  and  C10_11
REMARK    5  A    between atoms: C10_11  and  C11_12
REMARK       I    between atoms: C11_12  and  N1_14
REMARK    6  A    between atoms: N1_14  and  O3_16
REMARK    7  A    between atoms: O3_16  and  C12_17
REMARK    8  A    between atoms: C12_17  and  O4_18
REMARK    9  A    between atoms: N2_20  and  O5_22
ROOT
HETATM    1  C1  UNL     1      14.363  18.808  13.514  1.00  0.00     0.112 C
HETATM    2  C2  UNL     1      13.885  17.930  14.601  1.00  0.00    -0.108 C
HETATM    3  C3  UNL     1      13.485  17.189  15.478  1.00  0.00    -0.069 C
ENDROOT
BRANCH   3   4
HETATM    4  C4  UNL     1      12.976  16.255  16.515  1.00  0.00     0.117 C
HETATM    5  C5  UNL     1      12.350  15.091  15.703  1.00  0.00     0.060 C
HETATM    6  C6  UNL     1      11.764  16.951  17.086  1.00  0.00     0.060 C
BRANCH   4   7
HETATM    7  O1  UNL     1      13.891  15.782  17.255  1.00  0.00    -0.358 OA
BRANCH   7   8
HETATM    8  C7  UNL     1      14.117  15.613  18.550  1.00  0.00     0.064 C
HETATM    9  C8  UNL     1      15.563  15.177  18.676  1.00  0.00     0.046 C
HETATM   10  C9  UNL     1      13.319  14.405  19.089  1.00  0.00     0.046 C
BRANCH   8  11
HETATM   11  C10 UNL     1      13.945  16.815  19.393  1.00  0.00     0.142 C
BRANCH  11  12
HETATM   12  C11 UNL     1      13.371  16.639  20.732  1.00  0.00     0.244 C
HETATM   13  O2  UNL     1      12.196  17.032  20.920  1.00  0.00    -0.271 OA
HETATM   14  N1  UNL     1      14.034  16.061  21.839  1.00  0.00    -0.225 N
ATOM     15  H1  UNL     1      14.992  15.723  21.744  1.00  0.00     0.198 HD
BRANCH  14  16
HETATM   16  O3  UNL     1      13.386  15.959  23.032  1.00  0.00    -0.190 OA
BRANCH  16  17
HETATM   17  C12 UNL     1      13.015  16.986  23.858  1.00  0.00     0.305 C
HETATM   18  N2  UNL     1      13.936  17.510  24.601  1.00  0.00    -0.225 N
ATOM     19  H2  UNL     1      14.903  17.184  24.583  1.00  0.00     0.198 HD
BRANCH  17  20
HETATM   20  O4  UNL     1      11.689  17.399  23.852  1.00  0.00    -0.324 OA
ATOM     21  H4  UNL     1      11.431  18.109  24.429  1.00  0.00     0.221 HD
ENDBRANCH  17  20
BRANCH  18  22
HETATM   22  O5  UNL     1      13.518  18.546  25.425  1.00  0.00    -0.286 OA
ATOM     23  H5  UNL     1      13.559  18.367  26.357  1.00  0.00     0.244 HD
ENDBRANCH  18  22
ENDBRANCH  16  17
ENDBRANCH  14  16
ENDBRANCH  11  12
ENDBRANCH   8  11
ENDBRANCH   7   8
ENDBRANCH   4   7
ENDBRANCH   3   4
TORSDOF 9
ENDMDL