MODEL 1
REMARK VINA RESULT: -7.056687504      0.000      0.000
REMARK  6 active torsions:
REMARK  status: ('A' for Active; 'I' for Inactive)
REMARK    1  A    between atoms: N1_2  and  C2_3
REMARK    2  A    between atoms: N1_2  and  C6_16
REMARK    3  A    between atoms: C2_3  and  N2_5
REMARK    4  A    between atoms: N2_5  and  N3_7
REMARK    5  A    between atoms: N3_7  and  N4_8
REMARK    6  A    between atoms: N4_8  and  C3_10
ROOT
HETATM    1  N2  UNL     1      16.557  17.774  22.549  1.00  0.00    -0.260 N
ATOM      2  H2  UNL     1      15.839  18.481  22.391  1.00  0.00     0.186 HD
ENDROOT
BRANCH   1   3
HETATM    3  C2  UNL     1      17.230  17.204  21.443  1.00  0.00     0.187 C
HETATM    4  S1  UNL     1      18.881  17.027  21.527  1.00  0.00    -0.040 SA
BRANCH   3   5
HETATM    5  N1  UNL     1      16.601  16.766  20.251  1.00  0.00    -0.357 N
HETATM    6  C1  UNL     1      17.314  16.994  18.984  1.00  0.00     0.152 C
BRANCH   5   7
HETATM    7  C6  UNL     1      15.302  16.109  20.227  1.00  0.00     0.086 C
HETATM    8  C7  UNL     1      15.395  14.804  19.486  1.00  0.00     0.025 C
HETATM    9  C8  UNL     1      14.068  14.259  19.059  1.00  0.00     0.002 C
HETATM   10  C9  UNL     1      13.135  15.272  18.490  1.00  0.00     0.000 C
HETATM   11  C10 UNL     1      12.951  16.370  19.547  1.00  0.00     0.002 C
HETATM   12  C11 UNL     1      14.320  17.067  19.601  1.00  0.00     0.025 C
ENDBRANCH   5   7
ENDBRANCH   3   5
ENDBRANCH   1   3
BRANCH   1  13
HETATM   13  N3  UNL     1      16.859  17.387  23.842  1.00  0.00    -0.019 NA
BRANCH  13  14
HETATM   14  N4  UNL     1      15.853  16.681  24.460  1.00  0.00    -0.268 N
ATOM     15  H4  UNL     1      16.105  15.940  25.115  1.00  0.00     0.186 HD
BRANCH  14  16
HETATM   16  C3  UNL     1      14.475  16.942  24.222  1.00  0.00     0.140 A
HETATM   17  C4  UNL     1      13.655  16.324  23.291  1.00  0.00     0.078 A
HETATM   18  C5  UNL     1      12.411  16.891  23.413  1.00  0.00     0.171 A
HETATM   19  O1  UNL     1      12.487  17.789  24.357  1.00  0.00    -0.248 OA
HETATM   20  N5  UNL     1      13.690  17.835  24.846  1.00  0.00    -0.244 N
ATOM     21  H5  UNL     1      13.994  18.459  25.594  1.00  0.00     0.196 HD
ENDBRANCH  14  16
ENDBRANCH  13  14
ENDBRANCH   1  13
TORSDOF 6
ENDMDL