MODEL 2
REMARK VINA RESULT: -7.261227371      1.847      4.581
REMARK  4 active torsions:
REMARK  status: ('A' for Active; 'I' for Inactive)
REMARK       I    between atoms: C1_2  and  N1_3
REMARK       I    between atoms: C1_2  and  N3_13
REMARK    1  A    between atoms: N1_3  and  N2_5
REMARK    2  A    between atoms: C2_7  and  C3_8
REMARK    3  A    between atoms: N3_13  and  N4_14
REMARK    4  A    between atoms: N4_14  and  C7_16
ROOT
HETATM    1  O1  UNL     1      10.471  18.358  21.922  1.00  0.00    -0.227 OA
HETATM    2  C1  UNL     1      11.383  17.749  21.734  1.00  0.00     0.430 C
HETATM    3  N1  UNL     1      11.899  17.371  20.406  1.00  0.00    -0.238 N
ATOM      4  H1  UNL     1      12.810  16.963  20.613  1.00  0.00     0.193 HD
HETATM    5  N3  UNL     1      12.311  17.054  22.568  1.00  0.00    -0.264 NA
ENDROOT
BRANCH   3   6
HETATM    6  N2  UNL     1      11.817  17.282  19.157  1.00  0.00    -0.306 N
HETATM    7  C2  UNL     1      12.303  16.714  18.156  1.00  0.00     0.126 C
ATOM      8  H2  UNL     1      11.076  17.908  18.840  1.00  0.00     0.186 HD
BRANCH   7   9
HETATM    9  C3  UNL     1      13.406  15.752  18.382  1.00  0.00     0.021 A
HETATM   10  C4  UNL     1      13.142  14.570  19.060  1.00  0.00     0.021 A
HETATM   11  C5  UNL     1      14.181  13.774  19.345  1.00  0.00     0.008 A
HETATM   12  C6  UNL     1      15.420  14.205  18.926  1.00  0.00     0.050 A
HETATM   13  S1  UNL     1      15.070  15.695  18.179  1.00  0.00    -0.101 SA
ENDBRANCH   7   9
ENDBRANCH   3   6
BRANCH   5  14
HETATM   14  N4  UNL     1      13.156  16.424  23.364  1.00  0.00    -0.231 N
ATOM     15  H4  UNL     1      12.839  15.759  24.070  1.00  0.00     0.202 HD
BRANCH  14  16
HETATM   16  C7  UNL     1      14.561  16.733  23.175  1.00  0.00     0.061 A
HETATM   17  C8  UNL     1      15.362  17.271  24.101  1.00  0.00     0.032 A
HETATM   18  C9  UNL     1      16.645  17.791  23.700  1.00  0.00     0.002 A
HETATM   19  C10 UNL     1      17.013  17.731  22.375  1.00  0.00     0.000 A
HETATM   20  C11 UNL     1      16.165  17.143  21.445  1.00  0.00     0.002 A
HETATM   21  C12 UNL     1      14.979  16.651  21.849  1.00  0.00     0.032 A
ENDBRANCH  14  16
ENDBRANCH   5  14
TORSDOF 4
ENDMDL