MODEL 1
REMARK VINA RESULT: -7.762998282      0.000      0.000
REMARK  7 active torsions:
REMARK  status: ('A' for Active; 'I' for Inactive)
REMARK    1  A    between atoms: C2_2  and  C3_3
REMARK    2  A    between atoms: C2_2  and  N1_12
REMARK    3  A    between atoms: N1_12  and  N2_13
REMARK    4  A    between atoms: N2_13  and  C10_15
REMARK    5  A    between atoms: C10_15  and  C12_17
REMARK    6  A    between atoms: C12_17  and  O3_18
REMARK    7  A    between atoms: N3_20  and  O4_22
ROOT
HETATM    1  N1  UNL     1      15.876  17.078  21.603  1.00  0.00    -0.335 NA
ENDROOT
BRANCH   1   2
HETATM    2  C2  UNL     1      16.546  17.192  20.601  1.00  0.00     0.105 C
HETATM    3  C1  UNL     1      18.036  17.044  20.724  1.00  0.00     0.087 C
BRANCH   2   4
HETATM    4  C3  UNL     1      15.872  17.439  19.326  1.00  0.00     0.055 C
HETATM    5  C4  UNL     1      15.231  16.670  18.537  1.00  0.00     0.023 C
HETATM    6  C5  UNL     1      14.592  17.174  17.228  1.00  0.00     0.083 C
HETATM    7  C9  UNL     1      14.881  15.263  18.462  1.00  0.00     0.290 C
HETATM    8  C6  UNL     1      13.299  16.436  17.296  1.00  0.00     0.068 C
HETATM    9  C7  UNL     1      12.327  17.282  18.097  1.00  0.00     0.046 C
HETATM   10  C8  UNL     1      12.736  16.106  15.930  1.00  0.00     0.046 C
HETATM   11  O1  UNL     1      13.576  15.213  17.926  1.00  0.00    -0.307 OA
HETATM   12  O2  UNL     1      15.602  14.305  18.803  1.00  0.00    -0.260 OA
ENDBRANCH   2   4
ENDBRANCH   1   2
BRANCH   1  13
HETATM   13  N2  UNL     1      15.204  16.969  22.684  1.00  0.00    -0.260 N
ATOM     14  H2  UNL     1      15.648  17.282  23.547  1.00  0.00     0.196 HD
BRANCH  13  15
HETATM   15  C10 UNL     1      13.846  16.431  22.781  1.00  0.00     0.184 C
HETATM   16  C11 UNL     1      13.149  16.468  21.441  1.00  0.00     0.043 C
BRANCH  15  17
HETATM   17  C12 UNL     1      13.138  17.169  23.841  1.00  0.00     0.160 C
HETATM   18  N3  UNL     1      13.818  17.750  24.760  1.00  0.00    -0.249 N
ATOM     19  H3  UNL     1      14.835  17.677  24.721  1.00  0.00     0.196 HD
BRANCH  17  20
HETATM   20  O3  UNL     1      11.749  17.195  23.785  1.00  0.00    -0.346 OA
ATOM     21  H3  UNL     1      11.278  16.538  24.285  1.00  0.00     0.219 HD
ENDBRANCH  17  20
BRANCH  18  22
HETATM   22  O4  UNL     1      13.269  18.461  25.789  1.00  0.00    -0.288 OA
ATOM     23  H4  UNL     1      13.420  18.275  26.708  1.00  0.00     0.244 HD
ENDBRANCH  18  22
ENDBRANCH  15  17
ENDBRANCH  13  15
ENDBRANCH   1  13
TORSDOF 7
ENDMDL