MODEL 1
REMARK VINA RESULT: -6.035407895      0.000      0.000
REMARK  11 active torsions:
REMARK  status: ('A' for Active; 'I' for Inactive)
REMARK    1  A    between atoms: C2_2  and  C3_3
REMARK    2  A    between atoms: C3_3  and  N1_5
REMARK       I    between atoms: N1_5  and  C5_7
REMARK    3  A    between atoms: C5_7  and  C6_9
REMARK    4  A    between atoms: C6_9  and  C7_10
REMARK    5  A    between atoms: C11_14  and  C12_15
REMARK    6  A    between atoms: C17_28  and  C18_29
REMARK    7  A    between atoms: C18_29  and  C20_31
REMARK    8  A    between atoms: C20_31  and  C21_32
REMARK    9  A    between atoms: C21_32  and  N6_33
REMARK   10  A    between atoms: C26_41  and  C27_42
REMARK   11  A    between atoms: C27_42  and  C28_43
ROOT
HETATM    1  C7  UNL     1       4.189  -8.015  15.923  1.00  0.00     0.096 C
HETATM    2  C8  UNL     1       3.820  -9.440  15.601  1.00  0.00     0.052 C
HETATM    3  C9  UNL     1       2.576  -9.875  16.282  1.00  0.00    -0.026 C
HETATM    4  C10 UNL     1       2.372 -10.849  17.119  1.00  0.00     0.003 C
HETATM    5  C11 UNL     1       3.355 -11.836  17.650  1.00  0.00     0.194 C
HETATM    6  N3  UNL     1       4.328 -11.202  18.495  1.00  0.00    -0.370 N
ATOM      7  H3  UNL     1       4.980 -10.591  18.002  1.00  0.00     0.161 HD
HETATM    8  C13 UNL     1       4.539 -11.278  19.883  1.00  0.00     0.174 C
HETATM    9  N4  UNL     1       5.134 -12.200  20.555  1.00  0.00    -0.373 N
HETATM   10  C14 UNL     1       5.218 -12.040  22.021  1.00  0.00     0.150 C
HETATM   11  C15 UNL     1       5.769 -13.388  20.033  1.00  0.00     0.225 C
HETATM   12  C16 UNL     1       7.249 -13.261  20.000  1.00  0.00     0.236 C
HETATM   13  O3  UNL     1       7.847 -14.360  20.325  1.00  0.00    -0.272 OA
HETATM   14  N5  UNL     1       8.033 -12.169  19.684  1.00  0.00    -0.346 N
ATOM     15  H5  UNL     1       8.746 -11.956  20.381  1.00  0.00     0.163 HD
HETATM   16  C17 UNL     1       8.035 -11.269  18.548  1.00  0.00     0.180 C
HETATM   17  C25 UNL     1       8.146  -9.856  19.026  1.00  0.00     0.241 C
HETATM   18  O4  UNL     1       9.261  -9.662  19.663  1.00  0.00    -0.271 OA
HETATM   19  N7  UNL     1       7.295  -8.790  18.907  1.00  0.00    -0.346 N
ATOM     20  H7  UNL     1       6.893  -8.464  19.786  1.00  0.00     0.163 HD
HETATM   21  C26 UNL     1       6.863  -8.034  17.709  1.00  0.00     0.177 C
HETATM   22  C31 UNL     1       5.506  -7.527  18.052  1.00  0.00     0.240 C
HETATM   23  O5  UNL     1       5.454  -6.893  19.166  1.00  0.00    -0.271 OA
HETATM   24  N8  UNL     1       4.330  -7.685  17.288  1.00  0.00    -0.354 N
ATOM     25  H8  UNL     1       3.458  -7.541  17.795  1.00  0.00     0.162 HD
ENDROOT
BRANCH   1  26
HETATM   26  C6  UNL     1       3.325  -7.099  15.118  1.00  0.00     0.128 C
BRANCH  26  27
HETATM   27  C5  UNL     1       3.656  -5.695  15.404  1.00  0.00     0.219 C
HETATM   28  N1  UNL     1       2.662  -4.690  15.602  1.00  0.00    -0.357 N
ATOM     29  H1  UNL     1       1.680  -4.958  15.539  1.00  0.00     0.162 HD
HETATM   30  O1  UNL     1       4.849  -5.324  15.484  1.00  0.00    -0.274 OA
BRANCH  28  31
HETATM   31  C3  UNL     1       2.981  -3.320  15.887  1.00  0.00     0.080 C
HETATM   32  C4  UNL     1       2.892  -2.952  17.332  1.00  0.00     0.032 C
BRANCH  31  33
HETATM   33  C2  UNL     1       2.108  -2.370  15.087  1.00  0.00     0.020 C
HETATM   34  C1  UNL     1       2.867  -1.305  14.370  1.00  0.00     0.007 C
ENDBRANCH  31  33
ENDBRANCH  28  31
ENDBRANCH  26  27
ENDBRANCH   1  26
BRANCH  21  35
HETATM   35  C27 UNL     1       7.834  -6.892  17.632  1.00  0.00     0.038 C
BRANCH  35  36
HETATM   36  C28 UNL     1       9.105  -7.025  16.926  1.00  0.00    -0.020 C
HETATM   37  C29 UNL     1       9.252  -6.608  15.515  1.00  0.00     0.009 C
HETATM   38  C30 UNL     1      10.155  -6.190  17.716  1.00  0.00     0.009 C
ENDBRANCH  35  36
ENDBRANCH  21  35
BRANCH   5  39
HETATM   39  C12 UNL     1       3.955 -12.624  16.542  1.00  0.00     0.257 C
HETATM   40  N2  UNL     1       5.363 -12.715  16.513  1.00  0.00    -0.060 NA
HETATM   41  O2  UNL     1       3.318 -13.204  15.651  1.00  0.00    -0.274 OA
ENDBRANCH   5  39
BRANCH  16  42
HETATM   42  C18 UNL     1       9.337 -11.504  17.747  1.00  0.00     0.015 C
HETATM   43  C19 UNL     1       8.877 -12.125  16.449  1.00  0.00     0.012 C
BRANCH  42  44
HETATM   44  C20 UNL     1      10.149 -12.563  18.454  1.00  0.00     0.034 C
BRANCH  44  45
HETATM   45  C21 UNL     1      10.297 -13.823  17.705  1.00  0.00     0.236 C
BRANCH  45  46
HETATM   46  N6  UNL     1      11.002 -14.893  18.340  1.00  0.00    -0.079 N
HETATM   47  C22 UNL     1      12.147 -15.380  17.592  1.00  0.00     0.271 C
HETATM   48  C23 UNL     1      10.061 -16.031  18.369  1.00  0.00     0.271 C
HETATM   49  C24 UNL     1      11.361 -14.647  19.703  1.00  0.00     0.271 C
ENDBRANCH  45  46
ENDBRANCH  44  45
ENDBRANCH  42  44
ENDBRANCH  16  42
TORSDOF 11
ENDMDL