MODEL 2
REMARK VINA RESULT: -7.672403307      1.134      1.262
REMARK  12 active torsions:
REMARK  status: ('A' for Active; 'I' for Inactive)
REMARK    1  A    between atoms: C2_2  and  C3_3
REMARK    2  A    between atoms: C4_4  and  C5_5
REMARK    3  A    between atoms: C5_5  and  N1_6
REMARK    4  A    between atoms: N1_6  and  C6_7
REMARK    5  A    between atoms: C7_8  and  N2_9
REMARK       I    between atoms: N2_9  and  C8_11
REMARK    6  A    between atoms: C8_11  and  C9_13
REMARK    7  A    between atoms: C10_14  and  C11_15
REMARK    8  A    between atoms: C12_16  and  C13_17
REMARK    9  A    between atoms: C17_24  and  C18_25
REMARK   10  A    between atoms: C18_25  and  C19_26
REMARK   11  A    between atoms: N5_29  and  C20_30
REMARK   12  A    between atoms: C20_30  and  C21_31
ROOT
HETATM    1  C9  UNL     1       6.224  -6.596  16.543  1.00  0.00     0.144 C
HETATM    2  C10 UNL     1       5.959  -7.646  17.556  1.00  0.00     0.057 C
HETATM    3  N5  UNL     1       5.157  -7.047  18.581  1.00  0.00    -0.287 N
HETATM    4  N7  UNL     1       5.713  -5.816  18.991  1.00  0.00    -0.312 N
ATOM      5  H7  UNL     1       5.176  -5.155  19.552  1.00  0.00     0.185 HD
HETATM    6  C22 UNL     1       7.031  -5.532  18.598  1.00  0.00     0.091 C
HETATM    7  C23 UNL     1       7.402  -5.810  17.159  1.00  0.00     0.011 C
HETATM    8  C24 UNL     1       8.543  -6.869  17.234  1.00  0.00     0.016 C
HETATM    9  C25 UNL     1       9.783  -6.481  16.504  1.00  0.00     0.001 C
HETATM   10  C26 UNL     1       9.563  -5.953  15.125  1.00  0.00     0.000 C
HETATM   11  C27 UNL     1       8.439  -4.945  15.062  1.00  0.00     0.001 C
HETATM   12  C28 UNL     1       7.996  -4.689  16.480  1.00  0.00     0.016 C
ENDROOT
BRANCH   1  13
HETATM   13  C8  UNL     1       5.152  -5.854  15.954  1.00  0.00     0.232 C
HETATM   14  N2  UNL     1       4.813  -4.508  15.847  1.00  0.00    -0.335 N
ATOM     15  H2  UNL     1       5.453  -3.838  16.271  1.00  0.00     0.168 HD
HETATM   16  O1  UNL     1       4.224  -6.529  15.343  1.00  0.00    -0.272 OA
BRANCH  14  17
HETATM   17  C7  UNL     1       3.641  -3.964  15.192  1.00  0.00     0.116 C
HETATM   18  C6  UNL     1       3.855  -3.149  14.015  1.00  0.00     0.220 C
BRANCH  18  19
HETATM   19  N1  UNL     1       4.569  -1.944  13.957  1.00  0.00    -0.032 N
HETATM   20  C29 UNL     1       4.577  -1.269  12.668  1.00  0.00     0.270 C
HETATM   21  C30 UNL     1       5.081   0.155  12.791  1.00  0.00     0.196 C
HETATM   22  O5  UNL     1       6.291   0.222  13.436  1.00  0.00    -0.388 OA
HETATM   23  C31 UNL     1       6.844  -0.965  13.820  1.00  0.00     0.196 C
HETATM   24  C32 UNL     1       5.945  -2.009  14.370  1.00  0.00     0.270 C
BRANCH  19  25
HETATM   25  C5  UNL     1       3.798  -1.020  14.834  1.00  0.00     0.336 C
BRANCH  25  26
HETATM   26  C4  UNL     1       2.443  -0.796  14.353  1.00  0.00    -0.078 C
HETATM   27  C3  UNL     1       1.307  -0.594  13.981  1.00  0.00    -0.105 C
BRANCH  27  28
HETATM   28  C2  UNL     1      -0.062  -0.346  13.564  1.00  0.00     0.089 C
HETATM   29  C1  UNL     1      -0.159   0.117  12.120  1.00  0.00     0.018 C
ENDBRANCH  27  28
ENDBRANCH  25  26
ENDBRANCH  19  25
ENDBRANCH  18  19
ENDBRANCH  14  17
ENDBRANCH   1  13
BRANCH   2  30
HETATM   30  C11 UNL     1       5.906  -9.057  17.350  1.00  0.00     0.038 A
HETATM   31  C12 UNL     1       6.949  -9.869  17.813  1.00  0.00     0.043 A
HETATM   32  N3  UNL     1       6.677 -11.122  17.417  1.00  0.00    -0.302 N
HETATM   33  N4  UNL     1       5.551 -11.212  16.741  1.00  0.00    -0.299 N
ATOM     34  H3  UNL     1       7.279 -11.920  17.619  1.00  0.00     0.187 HD
HETATM   35  C16 UNL     1       5.054 -12.488  16.199  1.00  0.00     0.177 C
HETATM   36  C17 UNL     1       5.060  -9.969  16.688  1.00  0.00     0.052 A
BRANCH  31  37
HETATM   37  C13 UNL     1       8.156  -9.569  18.663  1.00  0.00     0.030 C
HETATM   38  C14 UNL     1       9.407 -10.176  18.028  1.00  0.00     0.016 C
HETATM   39  C15 UNL     1       7.998 -10.397  19.966  1.00  0.00     0.016 C
ENDBRANCH  31  37
BRANCH  36  40
HETATM   40  C18 UNL     1       3.792  -9.619  16.075  1.00  0.00     0.173 C
BRANCH  40  41
HETATM   41  C19 UNL     1       3.504 -10.077  14.717  1.00  0.00     0.178 C
HETATM   42  O2  UNL     1       3.941  -9.518  13.686  1.00  0.00    -0.648 OA
HETATM   43  O3  UNL     1       2.693 -11.204  14.451  1.00  0.00    -0.648 OA
ENDBRANCH  40  41
ENDBRANCH  36  40
ENDBRANCH   2  30
BRANCH   3  44
HETATM   44  C20 UNL     1       3.774  -7.059  18.652  1.00  0.00     0.248 C
BRANCH  44  45
HETATM   45  C21 UNL     1       3.247  -5.722  19.238  1.00  0.00     0.250 C
HETATM   46  N6  UNL     1       2.842  -4.713  18.370  1.00  0.00    -0.061 NA
HETATM   47  O4  UNL     1       3.205  -5.599  20.483  1.00  0.00    -0.275 OA
ENDBRANCH  44  45
ENDBRANCH   3  44
TORSDOF 12
ENDMDL