MODEL 2
REMARK VINA RESULT: -8.896786713      4.133      8.276
REMARK  12 active torsions:
REMARK  status: ('A' for Active; 'I' for Inactive)
REMARK    1  A    between atoms: C2_2  and  C4_4
REMARK    2  A    between atoms: C4_4  and  N1_5
REMARK    3  A    between atoms: C4_4  and  C25_37
REMARK       I    between atoms: N1_5  and  C5_7
REMARK    4  A    between atoms: C5_7  and  C6_9
REMARK    5  A    between atoms: C6_9  and  C7_10
REMARK    6  A    between atoms: C6_9  and  N2_17
REMARK    7  A    between atoms: C7_10  and  C8_11
REMARK       I    between atoms: N2_17  and  C14_19
REMARK       I    between atoms: C14_19  and  N3_21
REMARK    8  A    between atoms: C17_24  and  N4_25
REMARK       I    between atoms: C25_37  and  N7_39
REMARK    9  A    between atoms: N7_39  and  C26_41
REMARK   10  A    between atoms: C26_41  and  C27_42
REMARK   11  A    between atoms: C27_42  and  C28_43
REMARK   12  A    between atoms: C28_43  and  N8_44
ROOT
HETATM    1  C6  UNL     1       7.338  -3.548  15.461  1.00  0.00     0.178 C
ENDROOT
BRANCH   1   2
HETATM    2  C5  UNL     1       6.736  -2.314  14.958  1.00  0.00     0.241 C
HETATM    3  N1  UNL     1       5.474  -2.146  14.388  1.00  0.00    -0.346 N
ATOM      4  H1  UNL     1       4.866  -2.958  14.289  1.00  0.00     0.163 HD
HETATM    5  O1  UNL     1       7.465  -1.262  15.054  1.00  0.00    -0.271 OA
BRANCH   3   6
HETATM    6  C4  UNL     1       4.998  -0.856  13.933  1.00  0.00     0.180 C
BRANCH   6   7
HETATM    7  C2  UNL     1       3.574  -0.861  13.512  1.00  0.00     0.009 C
HETATM    8  C1  UNL     1       3.128   0.572  13.189  1.00  0.00     0.012 C
HETATM    9  C3  UNL     1       2.651  -1.423  14.586  1.00  0.00     0.012 C
ENDBRANCH   6   7
BRANCH   6  10
HETATM   10  C25 UNL     1       5.838  -0.343  12.810  1.00  0.00     0.241 C
HETATM   11  O3  UNL     1       5.901  -0.987  11.762  1.00  0.00    -0.271 OA
HETATM   12  N7  UNL     1       6.541   0.859  12.979  1.00  0.00    -0.350 N
ATOM     13  H7  UNL     1       6.424   1.338  13.872  1.00  0.00     0.163 HD
BRANCH  12  14
HETATM   14  C26 UNL     1       7.415   1.487  12.012  1.00  0.00     0.034 C
HETATM   15  C30 UNL     1       7.301   1.114  10.588  1.00  0.00     0.031 C
HETATM   16  C31 UNL     1       8.835   1.023  10.527  1.00  0.00     0.005 C
HETATM   17  C32 UNL     1       8.825   0.879  12.027  1.00  0.00     0.031 C
BRANCH  14  18
HETATM   18  C27 UNL     1       7.555   2.968  12.264  1.00  0.00     0.050 C
BRANCH  18  19
HETATM   19  C28 UNL     1       6.685   3.829  11.412  1.00  0.00     0.124 C
BRANCH  19  20
HETATM   20  N8  UNL     1       5.287   3.796  11.723  1.00  0.00    -0.367 N
HETATM   21  C29 UNL     1       4.358   3.932  10.828  1.00  0.00     0.196 C
HETATM   22  N9  UNL     1       3.020   3.881  11.244  1.00  0.00    -0.067 NA
HETATM   23  N10 UNL     1       4.781   4.126   9.496  1.00  0.00    -0.067 NA
ATOM     24  H8  UNL     1       5.009   3.658  12.694  1.00  0.00     0.161 HD
ENDBRANCH  19  20
ENDBRANCH  18  19
ENDBRANCH  14  18
ENDBRANCH  12  14
ENDBRANCH   6  10
ENDBRANCH   3   6
ENDBRANCH   1   2
BRANCH   1  25
HETATM   25  C7  UNL     1       8.346  -4.143  14.497  1.00  0.00     0.039 C
BRANCH  25  26
HETATM   26  C8  UNL     1       9.691  -4.409  15.118  1.00  0.00    -0.012 C
HETATM   27  C9  UNL     1       9.736  -4.135  16.579  1.00  0.00     0.005 C
HETATM   28  C10 UNL     1      10.766  -5.026  17.237  1.00  0.00     0.000 C
HETATM   29  C11 UNL     1      10.405  -6.483  17.187  1.00  0.00     0.000 C
HETATM   30  C12 UNL     1       9.490  -6.729  16.032  1.00  0.00     0.000 C
HETATM   31  C13 UNL     1       9.992  -5.874  14.878  1.00  0.00     0.005 C
ENDBRANCH  25  26
ENDBRANCH   1  25
BRANCH   1  32
HETATM   32  N2  UNL     1       6.238  -4.538  15.493  1.00  0.00    -0.329 N
HETATM   33  C14 UNL     1       6.032  -5.380  16.587  1.00  0.00     0.324 C
HETATM   34  O2  UNL     1       6.853  -5.271  17.559  1.00  0.00    -0.247 OA
HETATM   35  N3  UNL     1       5.004  -6.331  16.708  1.00  0.00    -0.287 N
HETATM   36  C15 UNL     1       3.983  -6.484  15.667  1.00  0.00     0.138 C
HETATM   37  C24 UNL     1       4.731  -7.266  17.738  1.00  0.00     0.115 C
HETATM   38  C16 UNL     1       2.737  -6.847  16.462  1.00  0.00     0.064 C
HETATM   39  C17 UNL     1       3.304  -7.550  17.686  1.00  0.00     0.291 C
HETATM   40  N6  UNL     1       5.594  -7.741  18.543  1.00  0.00    -0.387 N
ATOM     41  H62 UNL     1       6.593  -7.542  18.580  1.00  0.00     0.157 HD
ATOM     42  H61 UNL     1       5.397  -8.414  19.285  1.00  0.00     0.157 HD
ATOM     43  H2  UNL     1       5.612  -4.606  14.691  1.00  0.00     0.165 HD
BRANCH  39  44
HETATM   44  N4  UNL     1       2.864  -8.883  17.688  1.00  0.00     0.103 N
HETATM   45  C18 UNL     1       3.316  -9.548  16.480  1.00  0.00     0.301 C
HETATM   46  C19 UNL     1       3.380 -11.026  16.721  1.00  0.00     0.266 C
HETATM   47  N5  UNL     1       2.516 -11.459  17.788  1.00  0.00    -0.071 N
HETATM   48  C20 UNL     1       3.238 -11.511  19.068  1.00  0.00     0.272 C
HETATM   49  C21 UNL     1       2.132 -12.837  17.496  1.00  0.00     0.272 C
HETATM   50  C22 UNL     1       1.312 -10.695  17.892  1.00  0.00     0.266 C
HETATM   51  C23 UNL     1       1.513  -9.196  17.927  1.00  0.00     0.301 C
ENDBRANCH  39  44
ENDBRANCH   1  32
TORSDOF 12
ENDMDL