MODEL 5
REMARK VINA RESULT: -9.329874324      3.269     10.686
REMARK  12 active torsions:
REMARK  status: ('A' for Active; 'I' for Inactive)
REMARK    1  A    between atoms: C2_2  and  C3_3
REMARK    2  A    between atoms: C3_3  and  C4_4
REMARK    3  A    between atoms: C4_4  and  N1_5
REMARK    4  A    between atoms: C4_4  and  C27_43
REMARK       I    between atoms: N1_5  and  C5_7
REMARK    5  A    between atoms: C5_7  and  C6_9
REMARK       I    between atoms: N2_14  and  C11_15
REMARK    6  A    between atoms: C11_15  and  C12_17
REMARK    7  A    between atoms: C12_17  and  C13_18
REMARK    8  A    between atoms: C13_18  and  C14_19
REMARK    9  A    between atoms: C16_23  and  N4_24
REMARK       I    between atoms: N4_24  and  C17_26
REMARK       I    between atoms: C17_26  and  N6_31
REMARK   10  A    between atoms: N5_27  and  C18_29
REMARK       I    between atoms: N6_31  and  C20_32
REMARK       I    between atoms: C20_32  and  N7_34
REMARK       I    between atoms: C27_43  and  N9_45
REMARK   11  A    between atoms: N9_45  and  C28_47
REMARK   12  A    between atoms: C28_47  and  C30_49
ROOT
HETATM    1  C12 UNL     1       4.330   1.387  12.921  1.00  0.00     0.132 C
ENDROOT
BRANCH   1   2
HETATM    2  C11 UNL     1       5.157   1.586  11.728  1.00  0.00     0.224 C
HETATM    3  N2  UNL     1       6.469   2.072  11.747  1.00  0.00    -0.338 N
HETATM    4  C6  UNL     1       7.358   2.541  10.753  1.00  0.00     0.179 C
HETATM    5  C10 UNL     1       7.168   1.920  13.072  1.00  0.00     0.127 C
HETATM    6  C7  UNL     1       8.132   1.288  10.298  1.00  0.00     0.035 C
HETATM    7  C8  UNL     1       8.131   0.299  11.469  1.00  0.00     0.004 C
HETATM    8  C9  UNL     1       8.385   1.028  12.750  1.00  0.00     0.020 C
HETATM    9  O2  UNL     1       4.583   1.291  10.621  1.00  0.00    -0.273 OA
BRANCH   4  10
HETATM   10  C5  UNL     1       6.891   3.351   9.659  1.00  0.00     0.241 C
HETATM   11  N1  UNL     1       6.253   2.789   8.499  1.00  0.00    -0.346 N
ATOM     12  H1  UNL     1       6.103   1.780   8.467  1.00  0.00     0.163 HD
HETATM   13  O1  UNL     1       7.019   4.590   9.638  1.00  0.00    -0.271 OA
BRANCH  11  14
HETATM   14  C4  UNL     1       5.810   3.598   7.361  1.00  0.00     0.180 C
BRANCH  14  15
HETATM   15  C3  UNL     1       6.870   4.552   6.943  1.00  0.00     0.061 C
BRANCH  15  16
HETATM   16  C2  UNL     1       7.971   3.950   6.178  1.00  0.00    -0.034 C
HETATM   17  C1  UNL     1       7.850   2.972   5.301  1.00  0.00     0.007 C
ENDBRANCH  15  16
ENDBRANCH  14  15
BRANCH  14  18
HETATM   18  C27 UNL     1       4.507   4.239   7.739  1.00  0.00     0.241 C
HETATM   19  O4  UNL     1       4.269   5.426   7.324  1.00  0.00    -0.271 OA
HETATM   20  N9  UNL     1       3.523   3.628   8.531  1.00  0.00    -0.347 N
ATOM     21  H9  UNL     1       3.676   2.684   8.886  1.00  0.00     0.163 HD
BRANCH  20  22
HETATM   22  C28 UNL     1       2.287   4.328   8.850  1.00  0.00     0.169 C
HETATM   23  C29 UNL     1       1.126   3.883   8.013  1.00  0.00     0.042 C
BRANCH  22  24
HETATM   24  C30 UNL     1       1.973   4.052  10.272  1.00  0.00     0.253 C
HETATM   25  N10 UNL     1       0.621   3.847  10.703  1.00  0.00    -0.060 NA
HETATM   26  O5  UNL     1       2.865   3.988  11.157  1.00  0.00    -0.275 OA
ENDBRANCH  22  24
ENDBRANCH  20  22
ENDBRANCH  14  18
ENDBRANCH  11  14
ENDBRANCH   4  10
ENDBRANCH   1   2
BRANCH   1  27
HETATM   27  C13 UNL     1       3.148   0.549  12.891  1.00  0.00     0.014 C
BRANCH  27  28
HETATM   28  C14 UNL     1       2.843  -0.440  13.920  1.00  0.00     0.061 A
HETATM   29  C15 UNL     1       1.566  -0.941  14.210  1.00  0.00     0.136 A
HETATM   30  N3  UNL     1       1.679  -1.899  15.141  1.00  0.00    -0.199 N
HETATM   31  C16 UNL     1       2.951  -2.034  15.462  1.00  0.00     0.686 A
ATOM     32  H3  UNL     1       0.908  -2.436  15.537  1.00  0.00     0.183 HD
HETATM   33  N8  UNL     1       3.667  -1.138  14.716  1.00  0.00    -0.191 N
ATOM     34  H8  UNL     1       4.678  -1.018  14.758  1.00  0.00     0.184 HD
BRANCH  31  35
HETATM   35  N4  UNL     1       3.487  -2.920  16.259  1.00  0.00    -0.149 N
HETATM   36  C17 UNL     1       4.626  -3.655  15.720  1.00  0.00     0.274 C
HETATM   37  N5  UNL     1       4.343  -4.761  15.157  1.00  0.00    -0.350 N
HETATM   38  N6  UNL     1       5.924  -3.202  15.795  1.00  0.00    -0.316 NA
ATOM     39  H5  UNL     1       5.115  -5.303  14.766  1.00  0.00     0.163 HD
HETATM   40  C20 UNL     1       7.198  -2.741  15.879  1.00  0.00     0.399 C
HETATM   41  O3  UNL     1       7.601  -1.648  16.417  1.00  0.00    -0.230 OA
HETATM   42  N7  UNL     1       8.333  -3.492  15.329  1.00  0.00    -0.322 N
HETATM   43  C21 UNL     1       7.922  -4.728  14.732  1.00  0.00     0.129 C
HETATM   44  C26 UNL     1       9.602  -2.859  15.524  1.00  0.00     0.129 C
HETATM   45  C22 UNL     1       9.107  -5.605  14.365  1.00  0.00     0.020 C
HETATM   46  C23 UNL     1       9.950  -5.969  15.533  1.00  0.00     0.002 C
HETATM   47  C24 UNL     1       9.894  -4.992  16.685  1.00  0.00     0.002 C
HETATM   48  C25 UNL     1      10.536  -3.672  16.387  1.00  0.00     0.020 C
ATOM     49  H4  UNL     1       3.130  -3.088  17.200  1.00  0.00     0.188 HD
BRANCH  37  50
HETATM   50  C18 UNL     1       3.028  -5.302  15.030  1.00  0.00     0.119 C
HETATM   51  C19 UNL     1       3.166  -6.824  15.082  1.00  0.00     0.026 C
ENDBRANCH  37  50
ENDBRANCH  31  35
ENDBRANCH  27  28
ENDBRANCH   1  27
TORSDOF 12
ENDMDL