MODEL 2
REMARK VINA RESULT: -9.487920976      2.791     11.013
REMARK  13 active torsions:
REMARK  status: ('A' for Active; 'I' for Inactive)
REMARK    1  A    between atoms: O1_2  and  C2_3
REMARK    2  A    between atoms: N1_7  and  C6_8
REMARK    3  A    between atoms: C6_8  and  C7_9
REMARK    4  A    between atoms: C11_15  and  C12_16
REMARK       I    between atoms: C12_16  and  N3_18
REMARK    5  A    between atoms: N3_18  and  C13_20
REMARK    6  A    between atoms: C13_20  and  C14_21
REMARK    7  A    between atoms: C13_20  and  C18_31
REMARK    8  A    between atoms: C14_21  and  C15_22
REMARK    9  A    between atoms: C15_22  and  C16_23
REMARK   10  A    between atoms: C16_23  and  N4_24
REMARK       I    between atoms: N4_24  and  C17_26
REMARK   11  A    between atoms: C26_41  and  C27_42
REMARK   12  A    between atoms: C27_42  and  O4_43
REMARK   13  A    between atoms: C27_42  and  N8_45
ROOT
HETATM    1  C7  UNL     1       4.019  -3.801  15.613  1.00  0.00     0.107 C
HETATM    2  N2  UNL     1       4.573  -4.034  16.886  1.00  0.00    -0.411 N
ATOM      3  H2  UNL     1       4.978  -3.258  17.408  1.00  0.00     0.154 HD
HETATM    4  C8  UNL     1       4.578  -5.313  17.443  1.00  0.00     0.081 C
HETATM    5  C9  UNL     1       3.470  -5.447  18.488  1.00  0.00     0.026 C
HETATM    6  C10 UNL     1       2.892  -6.817  18.271  1.00  0.00     0.016 C
HETATM    7  C11 UNL     1       3.977  -7.553  17.472  1.00  0.00     0.084 C
HETATM    8  C19 UNL     1       4.410  -6.465  16.505  1.00  0.00     0.021 C
HETATM    9  C20 UNL     1       3.423  -6.253  15.426  1.00  0.00     0.014 C
HETATM   10  C21 UNL     1       3.062  -4.851  15.100  1.00  0.00     0.006 C
HETATM   11  C22 UNL     1       1.606  -4.525  15.451  1.00  0.00     0.012 C
ENDROOT
BRANCH   1  12
HETATM   12  C6  UNL     1       5.014  -3.505  14.532  1.00  0.00     0.268 C
BRANCH  12  13
HETATM   13  N1  UNL     1       5.003  -2.172  14.010  1.00  0.00    -0.045 N
HETATM   14  C5  UNL     1       6.017  -1.426  14.770  1.00  0.00     0.243 C
HETATM   15  C4  UNL     1       7.068  -0.969  13.797  1.00  0.00     0.037 C
HETATM   16  C3  UNL     1       6.309  -0.929  12.488  1.00  0.00     0.043 C
HETATM   17  C2  UNL     1       5.719   0.415  12.223  1.00  0.00     0.138 C
HETATM   18  C33 UNL     1       5.441  -2.102  12.631  1.00  0.00     0.250 C
HETATM   19  C26 UNL     1       4.265   0.475  12.042  1.00  0.00     0.093 C
HETATM   20  C25 UNL     1       3.596   0.888  13.345  1.00  0.00     0.044 C
HETATM   21  C24 UNL     1       3.180  -0.379  14.047  1.00  0.00    -0.001 C
HETATM   22  C23 UNL     1       3.773  -1.548  14.277  1.00  0.00     0.198 C
BRANCH  17  23
HETATM   23  O1  UNL     1       6.369   0.935  11.098  1.00  0.00    -0.389 OA
HETATM   24  C1  UNL     1       7.717   0.691  11.064  1.00  0.00     0.202 C
ENDBRANCH  17  23
BRANCH  19  25
HETATM   25  C27 UNL     1       3.747   1.365  10.982  1.00  0.00     0.120 C
BRANCH  25  26
HETATM   26  O4  UNL     1       4.665   1.999  10.299  1.00  0.00    -0.349 OA
ATOM     27  H4  UNL     1       4.338   2.698   9.744  1.00  0.00     0.219 HD
ENDBRANCH  25  26
BRANCH  25  28
HETATM   28  N8  UNL     1       2.451   1.645  10.588  1.00  0.00    -0.365 N
HETATM   29  C28 UNL     1       1.821   2.895  10.268  1.00  0.00     0.124 C
HETATM   30  C29 UNL     1       0.624   3.143  11.205  1.00  0.00     0.020 C
HETATM   31  C30 UNL     1      -0.394   2.057  10.848  1.00  0.00     0.003 C
HETATM   32  C31 UNL     1       0.261   0.741  11.261  1.00  0.00     0.020 C
HETATM   33  C32 UNL     1       1.516   0.495  10.464  1.00  0.00     0.124 C
ENDBRANCH  25  28
ENDBRANCH  19  25
ENDBRANCH  12  13
ENDBRANCH   1  12
BRANCH   7  34
HETATM   34  C12 UNL     1       3.500  -8.774  16.838  1.00  0.00     0.223 C
HETATM   35  O2  UNL     1       2.385  -9.255  17.137  1.00  0.00    -0.273 OA
HETATM   36  N3  UNL     1       4.292  -9.429  15.874  1.00  0.00    -0.348 N
ATOM     37  H3  UNL     1       5.200  -9.031  15.635  1.00  0.00     0.163 HD
BRANCH  36  38
HETATM   38  C13 UNL     1       3.868 -10.650  15.203  1.00  0.00     0.173 C
BRANCH  38  39
HETATM   39  C14 UNL     1       4.001 -10.522  13.713  1.00  0.00     0.036 C
BRANCH  39  40
HETATM   40  C15 UNL     1       2.918 -11.282  13.012  1.00  0.00     0.022 C
BRANCH  40  41
HETATM   41  C16 UNL     1       2.992 -11.029  11.530  1.00  0.00     0.122 C
BRANCH  41  42
HETATM   42  N4  UNL     1       1.746 -11.425  10.882  1.00  0.00    -0.365 N
HETATM   43  C17 UNL     1       0.921 -10.430  10.300  1.00  0.00     0.181 C
HETATM   44  N5  UNL     1       1.454  -9.463   9.667  1.00  0.00    -0.374 N
HETATM   45  N6  UNL     1      -0.485 -10.553  10.448  1.00  0.00    -0.064 NA
ATOM     46  H52 UNL     1       2.464  -9.375   9.560  1.00  0.00     0.158 HD
ATOM     47  H51 UNL     1       0.860  -8.747   9.248  1.00  0.00     0.158 HD
ATOM     48  H4  UNL     1       1.472 -12.407  10.848  1.00  0.00     0.162 HD
ENDBRANCH  41  42
ENDBRANCH  40  41
ENDBRANCH  39  40
ENDBRANCH  38  39
BRANCH  38  49
HETATM   49  C18 UNL     1       4.819 -11.749  15.604  1.00  0.00     0.254 C
HETATM   50  N7  UNL     1       6.191 -11.449  15.783  1.00  0.00    -0.060 NA
HETATM   51  O3  UNL     1       4.367 -12.892  15.764  1.00  0.00    -0.275 OA
ENDBRANCH  38  49
ENDBRANCH  36  38
ENDBRANCH   7  34
TORSDOF 13
ENDMDL