MODEL 5
REMARK VINA RESULT: -6.098905470      0.978      1.068
REMARK  13 active torsions:
REMARK  status: ('A' for Active; 'I' for Inactive)
REMARK    1  A    between atoms: C2_2  and  C3_3
REMARK    2  A    between atoms: C5_8  and  C6_9
REMARK    3  A    between atoms: C6_9  and  C7_10
REMARK    4  A    between atoms: N3_14  and  C9_15
REMARK    5  A    between atoms: C12_20  and  O2_21
REMARK    6  A    between atoms: C13_23  and  C14_24
REMARK    7  A    between atoms: C14_24  and  C15_25
REMARK    8  A    between atoms: C15_25  and  C16_26
REMARK    9  A    between atoms: C16_26  and  C17_27
REMARK   10  A    between atoms: C17_27  and  C18_28
REMARK   11  A    between atoms: C24_37  and  O4_38
REMARK   12  A    between atoms: C25_42  and  C26_43
REMARK   13  A    between atoms: C29_46  and  O5_47
ROOT
HETATM    1  C3  UNL     1       2.522 -12.195  17.298  1.00  0.00     0.187 C
HETATM    2  N1  UNL     1       2.852 -11.298  16.196  1.00  0.00    -0.338 N
ATOM      3  H1  UNL     1       2.298 -11.403  15.346  1.00  0.00     0.164 HD
HETATM    4  C4  UNL     1       3.835 -10.315  16.172  1.00  0.00     0.242 C
HETATM    5  O1  UNL     1       4.440 -10.109  15.086  1.00  0.00    -0.271 OA
HETATM    6  C5  UNL     1       4.230  -9.476  17.355  1.00  0.00     0.179 C
HETATM    7  N4  UNL     1       5.269  -8.563  16.962  1.00  0.00    -0.360 N
ATOM      8  H4  UNL     1       5.154  -8.170  16.028  1.00  0.00     0.162 HD
HETATM    9  C12 UNL     1       6.412  -8.120  17.638  1.00  0.00     0.125 C
HETATM   10  C13 UNL     1       7.490  -8.900  18.293  1.00  0.00     0.152 C
HETATM   11  C19 UNL     1       7.765 -10.209  17.719  1.00  0.00     0.232 C
HETATM   12  O3  UNL     1       7.509 -10.342  16.471  1.00  0.00    -0.272 OA
HETATM   13  N5  UNL     1       8.281 -11.372  18.334  1.00  0.00    -0.339 N
HETATM   14  C20 UNL     1       9.366 -12.305  18.071  1.00  0.00     0.127 C
HETATM   15  C21 UNL     1      10.100 -12.350  19.377  1.00  0.00     0.022 C
HETATM   16  C22 UNL     1       9.057 -11.952  20.390  1.00  0.00     0.035 C
HETATM   17  C23 UNL     1       7.740 -11.950  19.592  1.00  0.00     0.161 C
HETATM   18  C24 UNL     1       7.248 -13.334  19.422  1.00  0.00     0.135 C
HETATM   19  N6  UNL     1       6.079 -13.865  18.944  1.00  0.00    -0.360 N
ATOM     20  H6  UNL     1       6.210 -14.297  18.030  1.00  0.00     0.162 HD
HETATM   21  C25 UNL     1       4.719 -13.974  19.389  1.00  0.00     0.161 C
HETATM   22  C29 UNL     1       3.787 -14.232  18.269  1.00  0.00     0.138 C
HETATM   23  N7  UNL     1       3.303 -13.406  17.254  1.00  0.00    -0.347 N
HETATM   24  C30 UNL     1       3.587 -13.837  15.858  1.00  0.00     0.153 C
ENDROOT
BRANCH   6  25
HETATM   25  C6  UNL     1       2.935  -8.716  17.662  1.00  0.00     0.076 C
BRANCH  25  26
HETATM   26  C7  UNL     1       2.939  -7.312  17.294  1.00  0.00    -0.022 A
HETATM   27  C8  UNL     1       3.162  -6.232  18.124  1.00  0.00     0.115 A
HETATM   28  N2  UNL     1       3.048  -5.106  17.393  1.00  0.00    -0.310 N
HETATM   29  N3  UNL     1       2.765  -5.434  16.150  1.00  0.00    -0.304 N
ATOM     30  H2  UNL     1       3.162  -4.155  17.744  1.00  0.00     0.186 HD
HETATM   31  C11 UNL     1       2.692  -6.772  16.061  1.00  0.00     0.118 A
BRANCH  29  32
HETATM   32  C9  UNL     1       2.566  -4.508  15.060  1.00  0.00     0.143 C
HETATM   33  C10 UNL     1       3.843  -3.828  14.645  1.00  0.00     0.028 C
ENDBRANCH  29  32
ENDBRANCH  25  26
ENDBRANCH   6  25
BRANCH   9  34
HETATM   34  O2  UNL     1       6.638  -6.841  17.752  1.00  0.00    -0.349 OA
ATOM     35  H2  UNL     1       7.289  -6.429  17.196  1.00  0.00     0.219 HD
ENDBRANCH   9  34
BRANCH   1  36
HETATM   36  C2  UNL     1       1.069 -12.696  17.099  1.00  0.00     0.042 C
HETATM   37  C1  UNL     1       0.155 -12.317  18.206  1.00  0.00     0.009 C
ENDBRANCH   1  36
BRANCH  10  38
HETATM   38  C14 UNL     1       8.724  -8.021  18.233  1.00  0.00     0.022 C
BRANCH  38  39
HETATM   39  C15 UNL     1       9.573  -8.088  17.054  1.00  0.00     0.001 C
BRANCH  39  40
HETATM   40  C16 UNL     1       9.926  -6.636  16.666  1.00  0.00     0.001 C
BRANCH  40  41
HETATM   41  C17 UNL     1       9.391  -6.312  15.306  1.00  0.00     0.011 C
BRANCH  41  42
HETATM   42  C18 UNL     1      10.010  -5.003  14.854  1.00  0.00     0.086 C
HETATM   43  S1  UNL     1       9.985  -3.792  16.228  1.00  0.00    -0.098 SA
ENDBRANCH  41  42
ENDBRANCH  40  41
ENDBRANCH  39  40
ENDBRANCH  38  39
ENDBRANCH  10  38
BRANCH  22  44
HETATM   44  O5  UNL     1       3.351 -15.480  18.244  1.00  0.00    -0.348 OA
ATOM     45  H5  UNL     1       2.417 -15.539  18.083  1.00  0.00     0.219 HD
ENDBRANCH  22  44
BRANCH  21  46
HETATM   46  C26 UNL     1       4.202 -12.955  20.326  1.00  0.00     0.008 C
HETATM   47  C27 UNL     1       4.919 -13.059  21.693  1.00  0.00     0.012 C
HETATM   48  C28 UNL     1       2.745 -13.219  20.723  1.00  0.00     0.012 C
ENDBRANCH  21  46
BRANCH  18  49
HETATM   49  O4  UNL     1       8.133 -14.216  19.815  1.00  0.00    -0.348 OA
ATOM     50  H4  UNL     1       8.599 -13.925  20.590  1.00  0.00     0.219 HD
ENDBRANCH  18  49
TORSDOF 13
ENDMDL