MODEL 4
REMARK VINA RESULT: -9.254944541      2.899     12.086
REMARK  11 active torsions:
REMARK  status: ('A' for Active; 'I' for Inactive)
REMARK    1  A    between atoms: C2_2  and  N1_3
REMARK    2  A    between atoms: N1_3  and  C3_4
REMARK    3  A    between atoms: C3_4  and  C4_5
REMARK    4  A    between atoms: C4_5  and  C5_6
REMARK    5  A    between atoms: C4_5  and  N2_13
REMARK    6  A    between atoms: C5_6  and  C6_7
REMARK    7  A    between atoms: N2_13  and  S1_15
REMARK    8  A    between atoms: S1_15  and  N3_18
REMARK       I    between atoms: N3_18  and  C12_20
REMARK       I    between atoms: C12_20  and  N4_22
REMARK    9  A    between atoms: N4_22  and  C13_24
REMARK   10  A    between atoms: C13_24  and  C14_25
REMARK       I    between atoms: C14_25  and  N5_27
REMARK       I    between atoms: N6_30  and  C17_31
REMARK       I    between atoms: C17_31  and  N7_33
REMARK   11  A    between atoms: N7_33  and  C18_35
ROOT
HETATM    1  N3  UNL     1       4.278  -6.664  16.920  1.00  0.00    -0.219 N
ATOM      2  H3  UNL     1       3.345  -7.075  16.915  1.00  0.00     0.185 HD
HETATM    3  C12 UNL     1       4.575  -5.568  16.088  1.00  0.00     0.331 C
HETATM    4  O3  UNL     1       5.727  -5.038  16.106  1.00  0.00    -0.246 OA
HETATM    5  N4  UNL     1       3.598  -5.044  15.218  1.00  0.00    -0.334 N
ATOM      6  H4  UNL     1       2.678  -5.486  15.212  1.00  0.00     0.164 HD
ENDROOT
BRANCH   1   7
HETATM    7  S1  UNL     1       5.510  -7.313  17.956  1.00  0.00     0.323 S
HETATM    8  O1  UNL     1       5.507  -6.474  19.217  1.00  0.00    -0.182 OA
HETATM    9  O2  UNL     1       5.070  -8.726  18.313  1.00  0.00    -0.182 OA
BRANCH   7  10
HETATM   10  N2  UNL     1       7.052  -7.308  17.253  1.00  0.00    -0.296 N
ATOM     11  H2  UNL     1       7.243  -6.881  16.346  1.00  0.00     0.174 HD
BRANCH  10  12
HETATM   12  C4  UNL     1       8.088  -7.967  18.053  1.00  0.00     0.121 C
BRANCH  12  13
HETATM   13  C3  UNL     1       8.700  -9.105  17.344  1.00  0.00     0.263 C
BRANCH  13  14
HETATM   14  N1  UNL     1       8.332 -10.434  17.723  1.00  0.00    -0.065 N
HETATM   15  C25 UNL     1       9.481 -11.278  17.338  1.00  0.00     0.237 C
HETATM   16  C26 UNL     1       8.882 -12.619  17.024  1.00  0.00     0.029 C
HETATM   17  C27 UNL     1       7.421 -12.424  16.824  1.00  0.00     0.029 C
HETATM   18  C28 UNL     1       7.248 -10.915  16.934  1.00  0.00     0.237 C
BRANCH  14  19
HETATM   19  C2  UNL     1       8.030 -10.604  19.117  1.00  0.00     0.233 C
HETATM   20  C1  UNL     1       9.257 -10.662  20.005  1.00  0.00     0.035 C
ENDBRANCH  14  19
ENDBRANCH  13  14
ENDBRANCH  12  13
BRANCH  12  21
HETATM   21  C5  UNL     1       9.177  -6.867  18.159  1.00  0.00     0.032 C
BRANCH  21  22
HETATM   22  C6  UNL     1       9.216  -5.965  17.000  1.00  0.00    -0.013 C
HETATM   23  C7  UNL     1      10.007  -6.491  15.822  1.00  0.00     0.005 C
HETATM   24  C8  UNL     1       9.609  -5.642  14.633  1.00  0.00     0.000 C
HETATM   25  C9  UNL     1       9.758  -4.171  14.852  1.00  0.00     0.000 C
HETATM   26  C10 UNL     1       9.386  -3.680  16.206  1.00  0.00     0.000 C
HETATM   27  C11 UNL     1       9.860  -4.619  17.314  1.00  0.00     0.005 C
ENDBRANCH  21  22
ENDBRANCH  12  21
ENDBRANCH  10  12
ENDBRANCH   7  10
ENDBRANCH   1   7
BRANCH   5  28
HETATM   28  C13 UNL     1       3.812  -3.925  14.337  1.00  0.00     0.227 C
BRANCH  28  29
HETATM   29  C14 UNL     1       3.942  -2.669  15.103  1.00  0.00     0.237 C
HETATM   30  O4  UNL     1       2.971  -2.318  15.867  1.00  0.00    -0.272 OA
HETATM   31  N5  UNL     1       5.082  -1.843  15.023  1.00  0.00    -0.347 N
HETATM   32  C15 UNL     1       6.217  -2.223  14.225  1.00  0.00     0.146 C
HETATM   33  C24 UNL     1       5.132  -0.591  15.721  1.00  0.00     0.150 C
HETATM   34  C16 UNL     1       7.303  -1.126  14.328  1.00  0.00     0.148 C
HETATM   35  N6  UNL     1       6.678   0.158  14.013  1.00  0.00    -0.327 N
HETATM   36  C17 UNL     1       7.308   0.997  13.076  1.00  0.00     0.319 C
HETATM   37  C22 UNL     1       5.447   0.486  14.688  1.00  0.00     0.102 C
HETATM   38  O5  UNL     1       8.414   0.632  12.548  1.00  0.00    -0.247 OA
HETATM   39  N7  UNL     1       6.815   2.261  12.640  1.00  0.00    -0.331 N
ATOM     40  H7  UNL     1       5.935   2.605  13.026  1.00  0.00     0.165 HD
HETATM   41  C23 UNL     1       4.291   0.532  13.692  1.00  0.00     0.034 C
BRANCH  39  42
HETATM   42  C18 UNL     1       7.515   3.075  11.672  1.00  0.00     0.154 C
HETATM   43  C19 UNL     1       7.006   4.489  11.713  1.00  0.00     0.052 C
HETATM   44  C20 UNL     1       5.695   4.382  10.931  1.00  0.00     0.123 C
HETATM   45  N8  UNL     1       6.004   3.394   9.903  1.00  0.00    -0.378 N
HETATM   46  C21 UNL     1       7.139   2.642  10.280  1.00  0.00     0.094 C
ATOM     47  H8  UNL     1       5.478   3.266   9.039  1.00  0.00     0.160 HD
HETATM   48  N9  UNL     1       7.758   1.748   9.589  1.00  0.00    -0.387 N
ATOM     49  H92 UNL     1       8.577   1.204   9.862  1.00  0.00     0.157 HD
ATOM     50  H91 UNL     1       7.503   1.454   8.646  1.00  0.00     0.157 HD
ENDBRANCH  39  42
ENDBRANCH  28  29
ENDBRANCH   5  28
TORSDOF 11
ENDMDL