MODEL 3
REMARK VINA RESULT: -9.540521889      6.748     10.706
REMARK  11 active torsions:
REMARK  status: ('A' for Active; 'I' for Inactive)
REMARK    1  A    between atoms: C9_9  and  N1_10
REMARK       I    between atoms: N1_10  and  C10_12
REMARK       I    between atoms: N3_14  and  C11_16
REMARK       I    between atoms: C11_16  and  N5_20
REMARK    2  A    between atoms: N5_20  and  C12_22
REMARK    3  A    between atoms: C12_22  and  C13_23
REMARK    4  A    between atoms: C13_23  and  C14_24
REMARK    5  A    between atoms: C14_24  and  N6_25
REMARK       I    between atoms: N6_25  and  C15_27
REMARK       I    between atoms: C15_27  and  N7_29
REMARK    6  A    between atoms: C18_32  and  C19_33
REMARK       I    between atoms: C19_33  and  N8_35
REMARK    7  A    between atoms: N8_35  and  C20_37
REMARK    8  A    between atoms: C20_37  and  C21_38
REMARK    9  A    between atoms: C21_38  and  N9_39
REMARK   10  A    between atoms: C25_43  and  C26_44
REMARK   11  A    between atoms: C26_44  and  S1_45
ROOT
HETATM    1  C13 UNL     1       8.612   1.305  12.588  1.00  0.00     0.040 C
ENDROOT
BRANCH   1   2
HETATM    2  C12 UNL     1       8.115   1.235  14.036  1.00  0.00     0.139 C
BRANCH   2   3
HETATM    3  N5  UNL     1       6.757   1.602  14.110  1.00  0.00    -0.226 N
HETATM    4  C11 UNL     1       5.697   0.691  14.209  1.00  0.00     0.674 C
HETATM    5  N3  UNL     1       5.525  -0.382  13.350  1.00  0.00    -0.164 N
HETATM    6  N4  UNL     1       4.849   0.886  15.183  1.00  0.00    -0.235 N
HETATM    7  C10 UNL     1       4.749  -0.292  12.301  1.00  0.00     0.203 C
ATOM      8  H3  UNL     1       6.012  -1.258  13.538  1.00  0.00     0.187 HD
HETATM    9  N1  UNL     1       4.083   0.911  12.047  1.00  0.00    -0.355 N
HETATM   10  N2  UNL     1       4.607  -1.409  11.445  1.00  0.00    -0.063 NA
ATOM     11  H1  UNL     1       4.614   1.781  12.095  1.00  0.00     0.163 HD
ATOM     12  H42 UNL     1       4.077   0.223  15.255  1.00  0.00     0.174 HD
ATOM     13  H41 UNL     1       4.976   1.676  15.816  1.00  0.00     0.174 HD
ATOM     14  H5  UNL     1       6.532   2.596  14.091  1.00  0.00     0.177 HD
BRANCH   9  15
HETATM   15  C9  UNL     1       2.689   0.980  11.722  1.00  0.00     0.034 C
HETATM   16  C8  UNL     1       2.265   2.458  11.648  1.00  0.00     0.035 C
HETATM   17  C6  UNL     1       0.808   2.536  11.321  1.00  0.00    -0.011 C
HETATM   18  C5  UNL     1       0.533   1.914   9.964  1.00  0.00     0.009 C
HETATM   19  C7  UNL     1      -0.017   1.866  12.382  1.00  0.00     0.014 C
HETATM   20  C4  UNL     1       0.946   0.480  10.011  1.00  0.00    -0.011 C
HETATM   21  C3  UNL     1       0.208  -0.268  11.101  1.00  0.00     0.014 C
HETATM   22  C28 UNL     1       2.435   0.423  10.351  1.00  0.00     0.035 C
HETATM   23  C2  UNL     1       0.399   0.410  12.429  1.00  0.00    -0.041 C
HETATM   24  C1  UNL     1      -0.374  -0.318  13.498  1.00  0.00     0.015 C
HETATM   25  C29 UNL     1       1.865   0.327  12.783  1.00  0.00     0.040 C
ENDBRANCH   9  15
ENDBRANCH   2   3
ENDBRANCH   1   2
BRANCH   1  26
HETATM   26  C14 UNL     1       7.802   2.443  11.978  1.00  0.00     0.126 C
BRANCH  26  27
HETATM   27  N6  UNL     1       7.746   2.248  10.558  1.00  0.00    -0.343 N
HETATM   28  C15 UNL     1       7.923   3.308   9.660  1.00  0.00     0.318 C
HETATM   29  O1  UNL     1       8.165   4.460  10.129  1.00  0.00    -0.247 OA
HETATM   30  N7  UNL     1       7.833   3.076   8.266  1.00  0.00    -0.328 N
HETATM   31  C16 UNL     1       7.523   1.813   7.636  1.00  0.00     0.129 C
HETATM   32  C25 UNL     1       8.049   3.990   7.147  1.00  0.00     0.115 C
HETATM   33  C17 UNL     1       6.694   2.244   6.434  1.00  0.00     0.036 C
HETATM   34  C18 UNL     1       6.935   3.725   6.240  1.00  0.00     0.103 C
ATOM     35  H6  UNL     1       7.573   1.312  10.192  1.00  0.00     0.164 HD
BRANCH  34  36
HETATM   36  C19 UNL     1       5.662   4.424   6.422  1.00  0.00     0.224 C
HETATM   37  O2  UNL     1       5.365   5.521   5.895  1.00  0.00    -0.273 OA
HETATM   38  N8  UNL     1       4.691   3.830   7.244  1.00  0.00    -0.359 N
ATOM     39  H8  UNL     1       4.917   2.938   7.684  1.00  0.00     0.162 HD
BRANCH  38  40
HETATM   40  C20 UNL     1       3.388   4.405   7.506  1.00  0.00     0.150 C
BRANCH  40  41
HETATM   41  C21 UNL     1       2.350   3.998   6.497  1.00  0.00     0.255 C
BRANCH  41  42
HETATM   42  N9  UNL     1       1.690   5.193   6.007  1.00  0.00    -0.077 N
HETATM   43  C22 UNL     1       0.233   5.047   6.105  1.00  0.00     0.271 C
HETATM   44  C23 UNL     1       2.046   6.328   6.808  1.00  0.00     0.271 C
HETATM   45  C24 UNL     1       2.071   5.394   4.618  1.00  0.00     0.271 C
ENDBRANCH  41  42
ENDBRANCH  40  41
ENDBRANCH  38  40
ENDBRANCH  34  36
BRANCH  32  46
HETATM   46  C26 UNL     1       8.348   5.367   7.552  1.00  0.00     0.166 C
BRANCH  46  47
HETATM   47  S1  UNL     1      10.010   5.851   7.109  1.00  0.00     0.142 S
HETATM   48  C27 UNL     1      10.250   5.459   5.372  1.00  0.00     0.161 C
HETATM   49  O3  UNL     1      11.063   5.220   7.922  1.00  0.00    -0.228 OA
HETATM   50  O4  UNL     1      10.048   7.370   7.199  1.00  0.00    -0.228 OA
ENDBRANCH  46  47
ENDBRANCH  32  46
ENDBRANCH  26  27
ENDBRANCH   1  26
TORSDOF 11
ENDMDL