MODEL 4
REMARK VINA RESULT: -7.602479432      3.346      9.961
REMARK  13 active torsions:
REMARK  status: ('A' for Active; 'I' for Inactive)
REMARK    1  A    between atoms: C2_2  and  C4_4
REMARK    2  A    between atoms: C4_4  and  C5_5
REMARK    3  A    between atoms: C7_10  and  C8_11
REMARK    4  A    between atoms: C8_11  and  C9_12
REMARK    5  A    between atoms: C13_19  and  C14_20
REMARK    6  A    between atoms: C14_20  and  C15_21
REMARK    7  A    between atoms: C19_30  and  O3_31
REMARK    8  A    between atoms: C22_37  and  O4_38
REMARK    9  A    between atoms: C23_40  and  C24_41
REMARK   10  A    between atoms: C24_41  and  C25_42
REMARK   11  A    between atoms: C25_42  and  C26_43
REMARK   12  A    between atoms: C26_43  and  C27_44
REMARK   13  A    between atoms: C27_44  and  N7_45
ROOT
HETATM    1  C5  UNL     1       3.448  -7.205  16.294  1.00  0.00     0.177 C
HETATM    2  N1  UNL     1       4.195  -8.335  15.800  1.00  0.00    -0.346 N
ATOM      3  H1  UNL     1       5.165  -8.201  15.513  1.00  0.00     0.163 HD
HETATM    4  C6  UNL     1       3.620  -9.632  15.703  1.00  0.00     0.241 C
HETATM    5  O1  UNL     1       3.909 -10.322  14.662  1.00  0.00    -0.271 OA
HETATM    6  C7  UNL     1       2.707 -10.186  16.771  1.00  0.00     0.177 C
HETATM    7  N2  UNL     1       3.259 -10.119  18.070  1.00  0.00    -0.346 N
ATOM      8  H2  UNL     1       3.043  -9.234  18.528  1.00  0.00     0.163 HD
HETATM    9  C12 UNL     1       4.021 -10.950  18.886  1.00  0.00     0.241 C
HETATM   10  O2  UNL     1       3.462 -11.372  19.979  1.00  0.00    -0.271 OA
HETATM   11  C13 UNL     1       5.397 -11.465  18.759  1.00  0.00     0.182 C
HETATM   12  N5  UNL     1       5.976 -11.286  17.460  1.00  0.00    -0.359 N
ATOM     13  H5  UNL     1       5.465 -11.766  16.719  1.00  0.00     0.162 HD
HETATM   14  C19 UNL     1       7.085 -10.596  17.008  1.00  0.00     0.135 C
HETATM   15  C20 UNL     1       7.643  -9.289  17.183  1.00  0.00     0.154 C
HETATM   16  C21 UNL     1       9.175  -9.503  17.338  1.00  0.00     0.041 C
HETATM   17  N6  UNL     1       7.196  -8.391  18.183  1.00  0.00    -0.358 N
ATOM     18  H6  UNL     1       6.769  -8.809  19.009  1.00  0.00     0.162 HD
HETATM   19  C22 UNL     1       7.277  -6.961  18.164  1.00  0.00     0.159 C
HETATM   20  C23 UNL     1       6.634  -6.029  17.243  1.00  0.00     0.062 C
HETATM   21  N10 UNL     1       5.411  -5.906  16.992  1.00  0.00    -0.325 N
ATOM     22  H10 UNL     1       5.289  -5.164  16.302  1.00  0.00     0.169 HD
HETATM   23  C29 UNL     1       4.186  -6.414  17.315  1.00  0.00     0.244 C
HETATM   24  O5  UNL     1       3.527  -6.315  18.412  1.00  0.00    -0.271 OA
ENDROOT
BRANCH  20  25
HETATM   25  C24 UNL     1       7.570  -5.064  16.531  1.00  0.00     0.062 C
BRANCH  25  26
HETATM   26  C25 UNL     1       6.887  -4.400  15.347  1.00  0.00     0.011 C
BRANCH  26  27
HETATM   27  C26 UNL     1       6.761  -2.902  15.650  1.00  0.00     0.045 C
BRANCH  27  28
HETATM   28  C27 UNL     1       7.033  -2.137  14.395  1.00  0.00     0.063 C
BRANCH  28  29
HETATM   29  N7  UNL     1       5.975  -1.425  13.810  1.00  0.00    -0.347 N
HETATM   30  C28 UNL     1       5.273  -1.630  12.797  1.00  0.00     0.200 C
HETATM   31  N8  UNL     1       5.468  -2.769  11.974  1.00  0.00    -0.067 NA
HETATM   32  N9  UNL     1       4.226  -0.730  12.402  1.00  0.00    -0.067 NA
ATOM     33  H7  UNL     1       5.731  -0.571  14.311  1.00  0.00     0.167 HD
ENDBRANCH  28  29
ENDBRANCH  27  28
ENDBRANCH  26  27
ENDBRANCH  25  26
ENDBRANCH  20  25
BRANCH  19  34
HETATM   34  O4  UNL     1       8.005  -6.357  19.065  1.00  0.00    -0.345 OA
ATOM     35  H4  UNL     1       8.525  -5.605  18.806  1.00  0.00     0.219 HD
ENDBRANCH  19  34
BRANCH   1  36
HETATM   36  C4  UNL     1       3.106  -6.349  15.086  1.00  0.00     0.038 C
BRANCH  36  37
HETATM   37  C2  UNL     1       2.534  -5.012  15.494  1.00  0.00    -0.020 C
HETATM   38  C1  UNL     1       3.286  -3.951  14.722  1.00  0.00     0.009 C
HETATM   39  C3  UNL     1       1.068  -4.890  15.169  1.00  0.00     0.009 C
ENDBRANCH  36  37
ENDBRANCH   1  36
BRANCH  14  40
HETATM   40  O3  UNL     1       7.823 -11.340  16.200  1.00  0.00    -0.348 OA
ATOM     41  H3  UNL     1       8.326 -11.985  16.682  1.00  0.00     0.219 HD
ENDBRANCH  14  40
BRANCH  11  42
HETATM   42  C14 UNL     1       5.616 -12.856  19.305  1.00  0.00     0.111 C
BRANCH  42  43
HETATM   43  C15 UNL     1       6.662 -13.685  18.766  1.00  0.00     0.085 A
HETATM   44  N3  UNL     1       6.563 -14.729  17.953  1.00  0.00    -0.354 N
HETATM   45  C16 UNL     1       7.766 -15.276  17.676  1.00  0.00     0.106 A
ATOM     46  H3  UNL     1       5.680 -15.078  17.580  1.00  0.00     0.166 HD
HETATM   47  C17 UNL     1       8.681 -14.536  18.355  1.00  0.00     0.108 A
HETATM   48  N4  UNL     1       7.991 -13.562  19.019  1.00  0.00    -0.350 N
HETATM   49  C18 UNL     1       8.644 -12.584  19.877  1.00  0.00     0.156 C
ENDBRANCH  42  43
ENDBRANCH  11  42
BRANCH   6  50
HETATM   50  C8  UNL     1       2.206 -11.498  16.281  1.00  0.00     0.038 C
BRANCH  50  51
HETATM   51  C9  UNL     1       0.906 -11.955  16.838  1.00  0.00    -0.020 C
HETATM   52  C10 UNL     1      -0.009 -12.463  15.731  1.00  0.00     0.009 C
HETATM   53  C11 UNL     1       1.208 -13.181  17.704  1.00  0.00     0.009 C
ENDBRANCH  50  51
ENDBRANCH   6  50
TORSDOF 13
ENDMDL