MODEL 2
REMARK VINA RESULT: -7.953041887      3.542      8.838
REMARK  12 active torsions:
REMARK  status: ('A' for Active; 'I' for Inactive)
REMARK       I    between atoms: N1_1  and  C1_4
REMARK       I    between atoms: C1_4  and  N3_6
REMARK    1  A    between atoms: C4_9  and  C5_10
REMARK       I    between atoms: C5_10  and  N4_12
REMARK    2  A    between atoms: C6_13  and  C7_14
REMARK       I    between atoms: C7_14  and  N5_16
REMARK    3  A    between atoms: N5_16  and  C8_17
REMARK    4  A    between atoms: C16_27  and  C17_28
REMARK       I    between atoms: C17_28  and  N7_30
REMARK    5  A    between atoms: N7_30  and  C18_32
REMARK       I    between atoms: N8_38  and  C24_39
REMARK    6  A    between atoms: C24_39  and  C25_41
REMARK    7  A    between atoms: C25_41  and  C26_42
REMARK    8  A    between atoms: C26_42  and  C27_43
REMARK    9  A    between atoms: C27_43  and  C28_44
REMARK   10  A    between atoms: C28_44  and  C29_45
REMARK   11  A    between atoms: C29_45  and  C30_46
REMARK   12  A    between atoms: C30_46  and  N9_47
REMARK       I    between atoms: N9_47  and  C31_49
ROOT
HETATM    1  C5  UNL     1       4.117  -3.831  15.078  1.00  0.00     0.246 C
HETATM    2  O1  UNL     1       3.546  -2.681  15.044  1.00  0.00    -0.271 OA
HETATM    3  N4  UNL     1       5.491  -3.836  15.213  1.00  0.00    -0.322 N
HETATM    4  C6  UNL     1       6.223  -2.635  15.092  1.00  0.00     0.195 C
HETATM    5  C13 UNL     1       7.621  -2.659  15.580  1.00  0.00     0.036 C
HETATM    6  C14 UNL     1       8.415  -3.869  15.193  1.00  0.00     0.005 C
HETATM    7  C15 UNL     1       7.554  -4.984  14.650  1.00  0.00     0.035 C
HETATM    8  C16 UNL     1       6.221  -5.051  15.451  1.00  0.00     0.180 C
ENDROOT
BRANCH   1   9
HETATM    9  C4  UNL     1       3.157  -4.954  14.941  1.00  0.00     0.205 C
HETATM   10  C3  UNL     1       1.767  -4.390  15.373  1.00  0.00     0.059 C
HETATM   11  C2  UNL     1       2.139  -3.979  16.793  1.00  0.00     0.155 C
HETATM   12  N3  UNL     1       2.916  -5.172  17.223  1.00  0.00    -0.259 N
HETATM   13  C1  UNL     1       3.090  -5.437  18.574  1.00  0.00     0.203 C
HETATM   14  N8  UNL     1       3.289  -5.881  16.047  1.00  0.00    -0.242 N
HETATM   15  N1  UNL     1       2.266  -6.145  19.268  1.00  0.00    -0.372 N
HETATM   16  N2  UNL     1       4.191  -4.967  19.384  1.00  0.00    -0.062 NA
ATOM     17  H12 UNL     1       2.395  -6.339  20.261  1.00  0.00     0.158 HD
ATOM     18  H11 UNL     1       1.489  -6.476  18.696  1.00  0.00     0.158 HD
HETATM   19  C24 UNL     1       3.743  -7.249  16.113  1.00  0.00     0.239 C
HETATM   20  O4  UNL     1       4.120  -7.736  17.174  1.00  0.00    -0.272 OA
BRANCH  19  21
HETATM   21  C25 UNL     1       3.736  -8.053  14.857  1.00  0.00     0.105 C
BRANCH  21  22
HETATM   22  C26 UNL     1       3.718  -9.551  15.136  1.00  0.00     0.009 C
BRANCH  22  23
HETATM   23  C27 UNL     1       3.730 -10.306  13.838  1.00  0.00     0.001 C
BRANCH  23  24
HETATM   24  C28 UNL     1       3.264 -11.761  14.053  1.00  0.00     0.002 C
BRANCH  24  25
HETATM   25  C29 UNL     1       2.469 -12.203  12.881  1.00  0.00     0.020 C
BRANCH  25  26
HETATM   26  C30 UNL     1       2.524 -11.292  11.659  1.00  0.00     0.122 C
BRANCH  26  27
HETATM   27  N9  UNL     1       1.148 -11.372  11.086  1.00  0.00    -0.365 N
HETATM   28  C31 UNL     1       0.919 -10.360  10.199  1.00  0.00     0.181 C
HETATM   29  N10 UNL     1       1.855  -9.420   9.933  1.00  0.00    -0.374 N
HETATM   30  N11 UNL     1      -0.356 -10.497   9.619  1.00  0.00    -0.064 NA
ATOM     31 2H10 UNL     1       2.779  -9.321  10.354  1.00  0.00     0.158 HD
ATOM     32 1H10 UNL     1       1.684  -8.664   9.270  1.00  0.00     0.158 HD
ATOM     33  H9  UNL     1       0.465 -12.091  11.326  1.00  0.00     0.162 HD
ENDBRANCH  26  27
ENDBRANCH  25  26
ENDBRANCH  24  25
ENDBRANCH  23  24
ENDBRANCH  22  23
ENDBRANCH  21  22
ENDBRANCH  19  21
ENDBRANCH   1   9
BRANCH   4  34
HETATM   34  C7  UNL     1       5.558  -1.367  15.683  1.00  0.00     0.315 C
HETATM   35  O2  UNL     1       5.392  -1.308  16.920  1.00  0.00    -0.255 OA
HETATM   36  N5  UNL     1       5.218  -0.459  14.775  1.00  0.00    -0.369 NA
BRANCH  36  37
HETATM   37  C8  UNL     1       4.918   0.341  13.976  1.00  0.00     0.113 A
HETATM   38  C9  UNL     1       6.301   0.828  13.495  1.00  0.00     0.062 A
HETATM   39  C10 UNL     1       6.383   1.733  12.540  1.00  0.00     0.091 A
HETATM   40  N6  UNL     1       5.220   2.283  11.934  1.00  0.00    -0.375 N
HETATM   41  C11 UNL     1       4.063   1.835  12.386  1.00  0.00     0.091 A
ATOM     42  H6  UNL     1       5.276   2.983  11.194  1.00  0.00     0.164 HD
HETATM   43  C12 UNL     1       3.933   0.907  13.361  1.00  0.00     0.062 A
ENDBRANCH  36  37
ENDBRANCH   4  34
BRANCH   8  44
HETATM   44  C17 UNL     1       6.599  -5.273  16.880  1.00  0.00     0.241 C
HETATM   45  O3  UNL     1       6.705  -4.719  17.870  1.00  0.00    -0.271 OA
HETATM   46  N7  UNL     1       6.986  -6.780  17.004  1.00  0.00    -0.355 N
ATOM     47  H7  UNL     1       6.891  -7.407  16.204  1.00  0.00     0.162 HD
BRANCH  46  48
HETATM   48  C18 UNL     1       7.473  -7.265  18.251  1.00  0.00     0.084 C
HETATM   49  C19 UNL     1       9.024  -7.137  18.173  1.00  0.00     0.025 C
HETATM   50  C20 UNL     1       9.542  -7.965  17.040  1.00  0.00     0.002 C
HETATM   51  C21 UNL     1       9.307  -9.404  17.352  1.00  0.00     0.000 C
HETATM   52  C22 UNL     1       8.414  -9.520  18.551  1.00  0.00     0.002 C
HETATM   53  C23 UNL     1       7.161  -8.702  18.478  1.00  0.00     0.025 C
ENDBRANCH  46  48
ENDBRANCH   8  44
TORSDOF 12
ENDMDL