MODEL 1
REMARK VINA RESULT: -5.335521113      0.000      0.000
REMARK  14 active torsions:
REMARK  status: ('A' for Active; 'I' for Inactive)
REMARK    1  A    between atoms: C3_3  and  C5_5
REMARK    2  A    between atoms: C9_10  and  C10_11
REMARK    3  A    between atoms: C10_11  and  O2_12
REMARK    4  A    between atoms: C12_16  and  O3_17
REMARK    5  A    between atoms: C13_19  and  N2_20
REMARK    6  A    between atoms: C18_28  and  C19_29
REMARK    7  A    between atoms: C18_28  and  C25_35
REMARK    8  A    between atoms: C20_30  and  C21_31
REMARK    9  A    between atoms: C21_31  and  C22_32
REMARK   10  A    between atoms: C22_32  and  C23_33
REMARK       I    between atoms: C25_35  and  N4_37
REMARK   11  A    between atoms: N4_37  and  C26_39
REMARK   12  A    between atoms: C28_43  and  O6_44
REMARK   13  A    between atoms: C30_48  and  C31_49
REMARK   14  A    between atoms: C31_49  and  N8_53
ROOT
HETATM    1  C5  UNL     1       4.941 -14.321  18.397  1.00  0.00     0.084 C
HETATM    2  C6  UNL     1       4.870 -12.806  18.491  1.00  0.00     0.163 C
HETATM    3  O1  UNL     1       3.699 -12.503  18.053  1.00  0.00    -0.341 OA
HETATM    4  C7  UNL     1       3.027 -11.495  17.632  1.00  0.00     0.119 C
HETATM    5  C8  UNL     1       1.671 -11.758  17.005  1.00  0.00     0.125 C
HETATM    6  C9  UNL     1       0.959 -13.001  17.335  1.00  0.00     0.020 C
HETATM    7  N1  UNL     1       1.292 -13.722  18.510  1.00  0.00    -0.339 N
HETATM    8  C11 UNL     1       0.084 -14.083  19.355  1.00  0.00     0.158 C
HETATM    9  C12 UNL     1       2.478 -14.172  19.095  1.00  0.00     0.150 C
HETATM   10  C13 UNL     1       3.602 -14.986  18.678  1.00  0.00     0.273 C
HETATM   11  C17 UNL     1       2.829 -10.280  18.464  1.00  0.00     0.273 C
HETATM   12  O4  UNL     1       2.720 -10.347  19.744  1.00  0.00    -0.266 OA
HETATM   13  N3  UNL     1       2.735  -8.959  17.944  1.00  0.00    -0.318 N
ATOM     14  H3  UNL     1       1.876  -8.434  18.104  1.00  0.00     0.166 HD
HETATM   15  C18 UNL     1       3.831  -8.310  17.178  1.00  0.00     0.211 C
HETATM   16  N5  UNL     1       5.175  -8.665  17.372  1.00  0.00    -0.319 N
ATOM     17  H5  UNL     1       5.751  -7.984  16.878  1.00  0.00     0.166 HD
HETATM   18  C28 UNL     1       6.029  -9.584  17.977  1.00  0.00     0.218 C
HETATM   19  N6  UNL     1       6.466 -10.890  17.882  1.00  0.00    -0.339 N
HETATM   20  C29 UNL     1       7.798 -11.611  17.640  1.00  0.00     0.141 C
HETATM   21  C30 UNL     1       7.270 -12.164  18.989  1.00  0.00     0.096 C
HETATM   22  C33 UNL     1       6.118 -12.236  18.019  1.00  0.00     0.131 C
ENDROOT
BRANCH  15  23
HETATM   23  C19 UNL     1       3.406  -8.281  15.747  1.00  0.00     0.033 C
HETATM   24  C20 UNL     1       3.295  -9.436  14.909  1.00  0.00    -0.026 C
BRANCH  24  25
HETATM   25  C21 UNL     1       4.256 -10.451  14.512  1.00  0.00     0.027 C
BRANCH  25  26
HETATM   26  C22 UNL     1       3.700 -11.065  13.174  1.00  0.00     0.003 C
BRANCH  26  27
HETATM   27  C23 UNL     1       2.867 -12.236  13.502  1.00  0.00    -0.004 C
HETATM   28  C24 UNL     1       1.848 -12.532  12.410  1.00  0.00     0.005 C
ENDBRANCH  26  27
ENDBRANCH  25  26
ENDBRANCH  24  25
ENDBRANCH  15  23
BRANCH  15  29
HETATM   29  C25 UNL     1       3.649  -6.853  17.742  1.00  0.00     0.271 C
HETATM   30  O5  UNL     1       4.283  -6.585  18.748  1.00  0.00    -0.268 OA
HETATM   31  N4  UNL     1       2.826  -5.986  17.051  1.00  0.00    -0.357 N
ATOM     32  H4  UNL     1       2.378  -6.391  16.229  1.00  0.00     0.162 HD
BRANCH  31  33
HETATM   33  C26 UNL     1       2.498  -4.625  17.291  1.00  0.00     0.118 C
HETATM   34  C27 UNL     1       2.206  -3.803  16.088  1.00  0.00     0.026 C
ENDBRANCH  31  33
ENDBRANCH  15  29
BRANCH  18  35
HETATM   35  O6  UNL     1       6.643  -8.965  19.023  1.00  0.00    -0.333 OA
ATOM     36  H6  UNL     1       7.530  -8.752  18.759  1.00  0.00     0.220 HD
ENDBRANCH  18  35
BRANCH   6  37
HETATM   37  C10 UNL     1       0.738 -13.790  16.060  1.00  0.00     0.217 C
BRANCH  37  38
HETATM   38  O2  UNL     1      -0.307 -13.077  15.393  1.00  0.00    -0.395 OA
ATOM     39  H2  UNL     1      -0.946 -12.920  16.078  1.00  0.00     0.209 HD
ENDBRANCH  37  38
ENDBRANCH   6  37
BRANCH  21  40
HETATM   40  C31 UNL     1       8.150 -13.107  19.479  1.00  0.00     0.078 C
HETATM   41  N7  UNL     1       7.873 -13.954  20.450  1.00  0.00    -0.389 N
ATOM     42  H72 UNL     1       6.926 -13.855  20.815  1.00  0.00     0.157 HD
ATOM     43  H71 UNL     1       8.524 -14.651  20.812  1.00  0.00     0.157 HD
BRANCH  40  44
HETATM   44  N8  UNL     1       9.480 -13.246  18.966  1.00  0.00    -0.384 N
HETATM   45  C32 UNL     1      10.050 -14.499  18.546  1.00  0.00     0.147 C
ATOM     46  H8  UNL     1      10.057 -12.409  18.894  1.00  0.00     0.160 HD
ENDBRANCH  40  44
ENDBRANCH  21  40
BRANCH   1  47
HETATM   47  C3  UNL     1       5.543 -14.879  17.157  1.00  0.00    -0.079 C
HETATM   48  C2  UNL     1       6.740 -15.433  17.029  1.00  0.00    -0.028 C
HETATM   49  C1  UNL     1       7.346 -16.021  15.819  1.00  0.00     0.036 C
HETATM   50  C4  UNL     1       4.823 -14.922  15.828  1.00  0.00     0.043 C
ENDBRANCH   1  47
BRANCH  10  51
HETATM   51  N2  UNL     1       3.748 -16.069  19.685  1.00  0.00    -0.066 N
HETATM   52  C14 UNL     1       2.561 -16.335  20.440  1.00  0.00     0.272 C
HETATM   53  C15 UNL     1       4.798 -15.824  20.629  1.00  0.00     0.272 C
HETATM   54  C16 UNL     1       4.143 -17.292  18.986  1.00  0.00     0.272 C
ENDBRANCH  10  51
BRANCH   9  55
HETATM   55  O3  UNL     1       2.610 -13.753  20.340  1.00  0.00    -0.348 OA
ATOM     56  H3  UNL     1       2.896 -14.447  20.923  1.00  0.00     0.219 HD
ENDBRANCH   9  55
TORSDOF 14
ENDMDL