MODEL 5
REMARK VINA RESULT: -8.001565949      3.160      7.768
REMARK  11 active torsions:
REMARK  status: ('A' for Active; 'I' for Inactive)
REMARK    1  A    between atoms: C2_2  and  C3_3
REMARK    2  A    between atoms: C3_3  and  C5_5
REMARK    3  A    between atoms: C5_5  and  N1_6
REMARK    4  A    between atoms: C5_5  and  C30_49
REMARK       I    between atoms: N1_6  and  C6_8
REMARK    5  A    between atoms: C6_8  and  C7_10
REMARK    6  A    between atoms: C7_10  and  N2_12
REMARK    7  A    between atoms: N2_12  and  S1_14
REMARK    8  A    between atoms: S1_14  and  C9_16
REMARK    9  A    between atoms: S1_14  and  N6_37
REMARK       I    between atoms: C9_16  and  N3_18
REMARK       I    between atoms: C10_20  and  N4_21
REMARK       I    between atoms: C10_20  and  N5_29
REMARK   10  A    between atoms: N4_21  and  C11_23
REMARK   11  A    between atoms: N5_29  and  C18_31
REMARK       I    between atoms: N7_41  and  C27_42
ROOT
HETATM    1  S1  UNL     1       3.921  -6.116  16.770  1.00  0.00     0.194 S
HETATM    2  O2  UNL     1       4.219  -6.743  18.477  1.00  0.00    -0.218 OA
ENDROOT
BRANCH   1   3
HETATM    3  N2  UNL     1       2.439  -5.322  17.506  1.00  0.00    -0.315 N
ATOM      4  H2  UNL     1       1.818  -5.884  18.089  1.00  0.00     0.172 HD
BRANCH   3   5
HETATM    5  C7  UNL     1       2.131  -3.976  17.297  1.00  0.00     0.179 C
HETATM    6  C8  UNL     1       2.648  -3.002  18.339  1.00  0.00     0.043 C
BRANCH   5   7
HETATM    7  C6  UNL     1       2.573  -3.475  15.949  1.00  0.00     0.241 C
HETATM    8  N1  UNL     1       2.948  -2.122  15.840  1.00  0.00    -0.346 N
ATOM      9  H1  UNL     1       2.919  -1.522  16.664  1.00  0.00     0.163 HD
HETATM   10  O1  UNL     1       2.587  -4.289  14.994  1.00  0.00    -0.271 OA
BRANCH   8  11
HETATM   11  C5  UNL     1       3.386  -1.557  14.533  1.00  0.00     0.177 C
BRANCH  11  12
HETATM   12  C3  UNL     1       4.737  -1.001  14.713  1.00  0.00     0.013 C
HETATM   13  C4  UNL     1       4.842   0.293  15.499  1.00  0.00     0.012 C
BRANCH  12  14
HETATM   14  C2  UNL     1       5.710  -1.082  13.615  1.00  0.00     0.002 C
HETATM   15  C1  UNL     1       5.445  -2.047  12.512  1.00  0.00     0.005 C
ENDBRANCH  12  14
ENDBRANCH  11  12
BRANCH  11  16
HETATM   16  C30 UNL     1       2.392  -0.617  14.043  1.00  0.00     0.254 C
HETATM   17  N10 UNL     1       2.543   0.339  13.008  1.00  0.00    -0.060 NA
HETATM   18  O4  UNL     1       1.219  -0.618  14.577  1.00  0.00    -0.275 OA
ENDBRANCH  11  16
ENDBRANCH   8  11
ENDBRANCH   5   7
ENDBRANCH   3   5
ENDBRANCH   1   3
BRANCH   1  19
HETATM   19  C9  UNL     1       3.586  -8.192  16.461  1.00  0.00     0.353 C
HETATM   20  O3  UNL     1       2.410  -8.414  16.197  1.00  0.00    -0.254 OA
HETATM   21  N3  UNL     1       4.687  -8.983  16.591  1.00  0.00    -0.146 N
HETATM   22  C10 UNL     1       4.689 -10.217  16.958  1.00  0.00     0.679 C
ATOM     23  H3  UNL     1       5.590  -8.560  16.380  1.00  0.00     0.188 HD
HETATM   24  N4  UNL     1       5.964 -10.822  17.016  1.00  0.00    -0.221 N
HETATM   25  N5  UNL     1       3.530 -10.934  17.270  1.00  0.00    -0.217 N
ATOM     26  H4  UNL     1       6.717 -10.270  16.604  1.00  0.00     0.178 HD
HETATM   27  C17 UNL     1       2.674 -11.457  16.190  1.00  0.00     0.169 C
BRANCH  24  28
HETATM   28  C11 UNL     1       6.371 -12.080  17.556  1.00  0.00     0.099 C
HETATM   29  C12 UNL     1       6.127 -13.178  16.584  1.00  0.00     0.026 C
HETATM   30  C13 UNL     1       7.053 -14.335  16.579  1.00  0.00     0.002 C
HETATM   31  C14 UNL     1       8.475 -14.078  16.941  1.00  0.00     0.000 C
HETATM   32  C15 UNL     1       8.467 -13.285  18.234  1.00  0.00     0.002 C
HETATM   33  C16 UNL     1       7.852 -11.962  17.899  1.00  0.00     0.026 C
ENDBRANCH  24  28
BRANCH  25  34
HETATM   34  C18 UNL     1       3.118 -11.195  18.610  1.00  0.00     0.101 C
HETATM   35  C19 UNL     1       3.196 -12.678  18.952  1.00  0.00     0.026 C
HETATM   36  C20 UNL     1       2.687 -12.861  20.352  1.00  0.00     0.002 C
HETATM   37  C21 UNL     1       2.510 -11.565  21.085  1.00  0.00     0.000 C
HETATM   38  C22 UNL     1       1.501 -10.724  20.376  1.00  0.00     0.002 C
HETATM   39  C23 UNL     1       1.711 -10.737  18.854  1.00  0.00     0.026 C
ENDBRANCH  25  34
ENDBRANCH   1  19
BRANCH   1  40
HETATM   40  N6  UNL     1       5.557  -5.577  16.645  1.00  0.00    -0.318 N
HETATM   41  C24 UNL     1       5.932  -4.176  16.570  1.00  0.00     0.135 C
HETATM   42  C25 UNL     1       6.872  -3.872  15.425  1.00  0.00     0.040 C
HETATM   43  C26 UNL     1       8.221  -3.534  16.076  1.00  0.00     0.127 C
HETATM   44  N7  UNL     1       8.536  -4.666  16.955  1.00  0.00    -0.354 N
HETATM   45  C27 UNL     1       9.926  -5.029  16.828  1.00  0.00     0.184 C
HETATM   46  C28 UNL     1       7.713  -5.426  17.871  1.00  0.00     0.146 C
HETATM   47  N8  UNL     1      10.329  -5.383  15.655  1.00  0.00    -0.374 N
HETATM   48  N9  UNL     1      10.826  -5.006  17.925  1.00  0.00    -0.064 NA
ATOM     49  H82 UNL     1       9.682  -5.400  14.867  1.00  0.00     0.158 HD
ATOM     50  H81 UNL     1      11.312  -5.640  15.565  1.00  0.00     0.158 HD
HETATM   51  C29 UNL     1       6.692  -6.278  17.204  1.00  0.00     0.153 C
ENDBRANCH   1  40
TORSDOF 11
ENDMDL