MODEL 1
REMARK VINA RESULT: -4.957151323      0.000      0.000
REMARK  14 active torsions:
REMARK  status: ('A' for Active; 'I' for Inactive)
REMARK    1  A    between atoms: C3_3  and  N1_4
REMARK    2  A    between atoms: C4_5  and  O1_6
REMARK    3  A    between atoms: N2_8  and  C5_9
REMARK    4  A    between atoms: C5_9  and  C6_10
REMARK    5  A    between atoms: C9_13  and  O2_14
REMARK    6  A    between atoms: C10_16  and  C11_17
REMARK    7  A    between atoms: C11_17  and  C12_18
REMARK    8  A    between atoms: C16_25  and  C17_26
REMARK    9  A    between atoms: C17_26  and  C18_27
REMARK   10  A    between atoms: C24_38  and  O5_39
REMARK   11  A    between atoms: C25_41  and  C26_42
REMARK   12  A    between atoms: C26_42  and  C27_43
REMARK   13  A    between atoms: C29_50  and  C30_51
REMARK   14  A    between atoms: C30_51  and  C31_52
ROOT
HETATM    1  C1  UNL     1       4.083 -11.015  14.688  1.00  0.00     0.098 C
HETATM    2  C2  UNL     1       4.491 -10.363  15.640  1.00  0.00    -0.168 C
HETATM    3  C3  UNL     1       4.959  -9.578  16.801  1.00  0.00     0.207 C
ENDROOT
BRANCH   3   4
HETATM    4  N1  UNL     1       5.240 -10.510  17.954  1.00  0.00    -0.324 N
HETATM    5  C4  UNL     1       4.227 -11.379  18.381  1.00  0.00     0.224 C
HETATM    6  N2  UNL     1       3.872 -12.772  18.237  1.00  0.00    -0.295 N
HETATM    7  C9  UNL     1       4.658 -13.888  18.053  1.00  0.00     0.144 C
HETATM    8  C10 UNL     1       5.719 -14.624  18.844  1.00  0.00     0.160 C
HETATM    9  N3  UNL     1       5.743 -16.022  18.378  1.00  0.00    -0.347 N
HETATM   10  C15 UNL     1       6.731 -16.691  17.695  1.00  0.00     0.241 C
ATOM     11  H3  UNL     1       4.909 -16.571  18.591  1.00  0.00     0.163 HD
HETATM   12  O3  UNL     1       6.723 -17.976  17.770  1.00  0.00    -0.271 OA
HETATM   13  C16 UNL     1       7.835 -16.152  16.863  1.00  0.00     0.177 C
HETATM   14  N4  UNL     1       9.102 -16.789  17.118  1.00  0.00    -0.346 N
HETATM   15  C21 UNL     1      10.347 -16.189  17.319  1.00  0.00     0.240 C
ATOM     16  H4  UNL     1       9.089 -17.808  17.156  1.00  0.00     0.163 HD
HETATM   17  O4  UNL     1      11.327 -16.581  16.635  1.00  0.00    -0.271 OA
HETATM   18  C22 UNL     1      10.636 -15.080  18.312  1.00  0.00     0.171 C
HETATM   19  C23 UNL     1       9.796 -15.245  19.530  1.00  0.00     0.042 C
HETATM   20  N5  UNL     1      10.604 -13.800  17.663  1.00  0.00    -0.360 N
HETATM   21  C24 UNL     1       9.805 -12.685  17.749  1.00  0.00     0.136 C
ATOM     22  H5  UNL     1      11.350 -13.694  16.975  1.00  0.00     0.162 HD
HETATM   23  C25 UNL     1       9.552 -11.699  18.826  1.00  0.00     0.167 C
HETATM   24  N7  UNL     1       8.313 -11.813  19.513  1.00  0.00    -0.347 N
HETATM   25  C28 UNL     1       7.137 -11.076  19.462  1.00  0.00     0.241 C
ATOM     26  H7  UNL     1       8.282 -12.590  20.174  1.00  0.00     0.163 HD
HETATM   27  O7  UNL     1       6.391 -11.085  20.515  1.00  0.00    -0.271 OA
HETATM   28  C29 UNL     1       6.597 -10.267  18.373  1.00  0.00     0.181 C
BRANCH   5  29
HETATM   29  O1  UNL     1       3.346 -10.755  19.122  1.00  0.00    -0.332 OA
ATOM     30  H1  UNL     1       2.648 -11.340  19.394  1.00  0.00     0.221 HD
ENDBRANCH   5  29
BRANCH   6  31
HETATM   31  C5  UNL     1       2.386 -13.031  18.227  1.00  0.00     0.138 C
BRANCH  31  32
HETATM   32  C6  UNL     1       1.595 -12.300  17.265  1.00  0.00    -0.004 C
HETATM   33  C7  UNL     1       0.214 -11.857  17.692  1.00  0.00     0.011 C
HETATM   34  C8  UNL     1       1.352 -13.268  16.085  1.00  0.00     0.011 C
ENDBRANCH  31  32
ENDBRANCH   6  31
BRANCH   7  35
HETATM   35  O2  UNL     1       4.462 -14.492  16.913  1.00  0.00    -0.348 OA
ATOM     36  H2  UNL     1       5.193 -14.422  16.309  1.00  0.00     0.219 HD
ENDBRANCH   7  35
BRANCH   8  37
HETATM   37  C11 UNL     1       5.417 -14.642  20.290  1.00  0.00     0.037 C
BRANCH  37  38
HETATM   38  C12 UNL     1       6.475 -14.676  21.296  1.00  0.00    -0.020 C
HETATM   39  C13 UNL     1       5.894 -13.949  22.544  1.00  0.00     0.009 C
HETATM   40  C14 UNL     1       6.894 -16.018  21.829  1.00  0.00     0.009 C
ENDBRANCH  37  38
ENDBRANCH   8  37
BRANCH  13  41
HETATM   41  C17 UNL     1       7.463 -16.062  15.412  1.00  0.00     0.038 C
BRANCH  41  42
HETATM   42  C18 UNL     1       7.931 -17.155  14.532  1.00  0.00    -0.020 C
HETATM   43  C19 UNL     1       6.771 -17.482  13.570  1.00  0.00     0.009 C
HETATM   44  C20 UNL     1       9.088 -16.773  13.633  1.00  0.00     0.009 C
ENDBRANCH  41  42
ENDBRANCH  13  41
BRANCH  21  45
HETATM   45  O5  UNL     1       9.123 -12.424  16.671  1.00  0.00    -0.348 OA
ATOM     46  H5  UNL     1       8.290 -12.878  16.611  1.00  0.00     0.219 HD
ENDBRANCH  21  45
BRANCH  23  47
HETATM   47  C26 UNL     1      10.762 -11.550  19.733  1.00  0.00     0.133 C
BRANCH  47  48
HETATM   48  C27 UNL     1      10.500 -11.607  21.157  1.00  0.00     0.233 C
HETATM   49  N6  UNL     1      10.084 -10.410  21.806  1.00  0.00    -0.062 NA
HETATM   50  O6  UNL     1      10.622 -12.645  21.820  1.00  0.00    -0.277 OA
ENDBRANCH  47  48
ENDBRANCH  23  47
BRANCH  28  51
HETATM   51  C30 UNL     1       7.034  -8.886  18.676  1.00  0.00     0.039 C
BRANCH  51  52
HETATM   52  C31 UNL     1       8.420  -8.428  18.485  1.00  0.00    -0.020 C
HETATM   53  C32 UNL     1       8.764  -8.819  16.993  1.00  0.00     0.009 C
HETATM   54  C33 UNL     1       8.722  -6.964  18.499  1.00  0.00     0.009 C
ENDBRANCH  51  52
ENDBRANCH  28  51
ENDBRANCH   3   4
TORSDOF 14
ENDMDL