MODEL 5
REMARK VINA RESULT: -4.669909829      2.648      6.662
REMARK  15 active torsions:
REMARK  status: ('A' for Active; 'I' for Inactive)
REMARK    1  A    between atoms: C2_2  and  C3_3
REMARK    2  A    between atoms: C3_3  and  C4_4
REMARK    3  A    between atoms: C4_4  and  C5_5
REMARK    4  A    between atoms: C7_10  and  C8_11
REMARK    5  A    between atoms: C14_23  and  C15_24
REMARK    6  A    between atoms: C15_24  and  C17_26
REMARK    7  A    between atoms: C19_30  and  O4_31
REMARK    8  A    between atoms: C20_33  and  C21_34
REMARK    9  A    between atoms: C27_41  and  O5_42
REMARK   10  A    between atoms: C28_44  and  C29_45
REMARK   11  A    between atoms: C29_45  and  C30_46
REMARK   12  A    between atoms: C30_46  and  C31_47
REMARK   13  A    between atoms: C31_47  and  C32_48
REMARK   14  A    between atoms: C32_48  and  N6_49
REMARK   15  A    between atoms: C34_54  and  O6_55
ROOT
HETATM    1  C5  UNL     1       7.903  -8.950  18.218  1.00  0.00     0.063 C
HETATM    2  N1  UNL     1       8.779  -9.420  19.234  1.00  0.00    -0.325 N
ATOM      3  H1  UNL     1       9.368  -8.679  19.613  1.00  0.00     0.169 HD
HETATM    4  C6  UNL     1       9.022 -10.654  19.833  1.00  0.00     0.245 C
HETATM    5  O1  UNL     1      10.155 -11.247  19.620  1.00  0.00    -0.271 OA
HETATM    6  C7  UNL     1       8.178 -11.480  20.733  1.00  0.00     0.180 C
HETATM    7  N2  UNL     1       8.211 -12.886  20.328  1.00  0.00    -0.346 N
ATOM      8  H2  UNL     1       9.089 -13.253  19.961  1.00  0.00     0.163 HD
HETATM    9  C11 UNL     1       7.112 -13.774  20.410  1.00  0.00     0.236 C
HETATM   10  O2  UNL     1       6.897 -14.549  19.406  1.00  0.00    -0.272 OA
HETATM   11  C12 UNL     1       6.203 -13.861  21.578  1.00  0.00     0.225 C
HETATM   12  N3  UNL     1       5.294 -12.758  21.716  1.00  0.00    -0.351 N
ATOM     13  H3  UNL     1       5.563 -12.030  22.378  1.00  0.00     0.163 HD
HETATM   14  C13 UNL     1       4.089 -12.570  21.049  1.00  0.00     0.241 C
HETATM   15  O3  UNL     1       3.857 -11.453  20.454  1.00  0.00    -0.271 OA
HETATM   16  C14 UNL     1       3.000 -13.563  20.949  1.00  0.00     0.179 C
HETATM   17  N4  UNL     1       1.995 -13.235  19.987  1.00  0.00    -0.360 N
ATOM     18  H4  UNL     1       1.055 -13.384  20.355  1.00  0.00     0.162 HD
HETATM   19  C19 UNL     1       1.969 -12.772  18.700  1.00  0.00     0.118 C
HETATM   20  C20 UNL     1       2.485 -13.310  17.401  1.00  0.00     0.086 C
HETATM   21  C24 UNL     1       2.505 -12.315  16.332  1.00  0.00     0.100 C
HETATM   22  C25 UNL     1       1.863 -12.715  15.009  1.00  0.00     0.046 C
HETATM   23  C26 UNL     1       3.233 -13.244  14.699  1.00  0.00     0.127 C
HETATM   24  N5  UNL     1       3.624 -12.054  15.500  1.00  0.00    -0.354 N
HETATM   25  C27 UNL     1       4.593 -11.028  15.475  1.00  0.00     0.166 C
HETATM   26  C28 UNL     1       5.713 -10.833  16.394  1.00  0.00     0.087 C
HETATM   27  N7  UNL     1       5.540  -9.783  17.391  1.00  0.00    -0.327 N
HETATM   28  C33 UNL     1       4.173  -9.215  17.440  1.00  0.00     0.159 C
HETATM   29  C34 UNL     1       6.497  -9.280  18.271  1.00  0.00     0.165 C
ENDROOT
BRANCH  26  30
HETATM   30  C29 UNL     1       6.480 -11.987  16.851  1.00  0.00     0.034 C
BRANCH  30  31
HETATM   31  C30 UNL     1       7.780 -12.481  16.500  1.00  0.00     0.004 C
BRANCH  31  32
HETATM   32  C31 UNL     1       8.442 -13.748  16.489  1.00  0.00     0.017 C
BRANCH  32  33
HETATM   33  C32 UNL     1       9.640 -14.126  17.246  1.00  0.00     0.080 C
BRANCH  33  34
HETATM   34  N6  UNL     1      10.665 -13.284  17.624  1.00  0.00    -0.408 N
ATOM     35  H62 UNL     1      11.597 -13.699  17.638  1.00  0.00     0.155 HD
ATOM     36  H61 UNL     1      10.574 -12.302  17.886  1.00  0.00     0.155 HD
ENDBRANCH  33  34
ENDBRANCH  32  33
ENDBRANCH  31  32
ENDBRANCH  30  31
ENDBRANCH  26  30
BRANCH  25  37
HETATM   37  O5  UNL     1       4.533 -10.109  14.537  1.00  0.00    -0.344 OA
ATOM     38  H5  UNL     1       5.247 -10.033  13.916  1.00  0.00     0.219 HD
ENDBRANCH  25  37
BRANCH  29  39
HETATM   39  O6  UNL     1       6.000  -9.036  19.456  1.00  0.00    -0.344 OA
ATOM     40  H6  UNL     1       5.497  -9.775  19.775  1.00  0.00     0.219 HD
ENDBRANCH  29  39
BRANCH   1  41
HETATM   41  C4  UNL     1       8.606  -9.038  16.891  1.00  0.00     0.062 C
BRANCH  41  42
HETATM   42  C3  UNL     1       9.679  -7.923  16.942  1.00  0.00     0.006 C
BRANCH  42  43
HETATM   43  C2  UNL     1       8.965  -6.658  16.450  1.00  0.00    -0.004 C
HETATM   44  C1  UNL     1       9.689  -6.026  15.308  1.00  0.00     0.005 C
ENDBRANCH  42  43
ENDBRANCH  41  42
ENDBRANCH   1  41
BRANCH  20  45
HETATM   45  C21 UNL     1       1.658 -14.548  17.130  1.00  0.00    -0.009 C
HETATM   46  C22 UNL     1       2.340 -15.759  17.788  1.00  0.00     0.010 C
HETATM   47  C23 UNL     1       0.303 -14.450  17.871  1.00  0.00     0.010 C
ENDBRANCH  20  45
BRANCH  19  48
HETATM   48  O4  UNL     1       1.368 -11.618  18.532  1.00  0.00    -0.349 OA
ATOM     49  H4  UNL     1       1.900 -10.937  18.137  1.00  0.00     0.219 HD
ENDBRANCH  19  48
BRANCH   6  50
HETATM   50  C8  UNL     1       8.739 -11.365  22.171  1.00  0.00     0.009 C
HETATM   51  C9  UNL     1       7.632 -11.078  23.150  1.00  0.00     0.012 C
HETATM   52  C10 UNL     1       9.363 -12.690  22.485  1.00  0.00     0.012 C
ENDBRANCH   6  50
BRANCH  16  53
HETATM   53  C15 UNL     1       2.358 -13.783  22.332  1.00  0.00     0.013 C
HETATM   54  C16 UNL     1       1.160 -12.969  22.598  1.00  0.00     0.012 C
BRANCH  53  55
HETATM   55  C17 UNL     1       2.131 -15.261  22.573  1.00  0.00     0.002 C
HETATM   56  C18 UNL     1       3.129 -16.092  21.796  1.00  0.00     0.005 C
ENDBRANCH  53  55
ENDBRANCH  16  53
TORSDOF 15
ENDMDL