MODEL 4
REMARK VINA RESULT: -7.680518817      3.184      9.177
REMARK  11 active torsions:
REMARK  status: ('A' for Active; 'I' for Inactive)
REMARK    1  A    between atoms: N1_2  and  C3_4
REMARK    2  A    between atoms: N1_2  and  C9_10
REMARK    3  A    between atoms: C14_18  and  C15_19
REMARK    4  A    between atoms: C15_19  and  C16_20
REMARK    5  A    between atoms: C16_20  and  C17_21
REMARK    6  A    between atoms: C17_21  and  N3_22
REMARK    7  A    between atoms: C20_31  and  C21_32
REMARK    8  A    between atoms: C21_32  and  C22_33
REMARK    9  A    between atoms: C22_33  and  C23_34
REMARK   10  A    between atoms: C23_34  and  C24_35
REMARK   11  A    between atoms: C24_35  and  N7_36
ROOT
HETATM    1  C9  UNL     1       3.942  -4.752  16.271  1.00  0.00     0.293 C
HETATM    2  C10 UNL     1       3.492  -5.313  14.926  1.00  0.00     0.058 C
HETATM    3  C11 UNL     1       3.046  -6.681  15.345  1.00  0.00     0.039 C
HETATM    4  C12 UNL     1       4.073  -7.028  16.403  1.00  0.00     0.181 C
HETATM    5  C13 UNL     1       3.283  -7.589  17.538  1.00  0.00     0.241 C
HETATM    6  O1  UNL     1       2.672  -6.733  18.280  1.00  0.00    -0.271 OA
HETATM    7  N2  UNL     1       3.188  -8.962  17.812  1.00  0.00    -0.346 N
ATOM      8  H2  UNL     1       2.608  -9.209  18.614  1.00  0.00     0.163 HD
HETATM    9  C14 UNL     1       3.788 -10.064  17.124  1.00  0.00     0.176 C
HETATM   10  C19 UNL     1       3.873 -11.244  18.043  1.00  0.00     0.241 C
HETATM   11  O2  UNL     1       2.748 -11.634  18.510  1.00  0.00    -0.271 OA
HETATM   12  N6  UNL     1       5.036 -11.929  18.423  1.00  0.00    -0.347 N
ATOM     13  H6  UNL     1       5.175 -12.042  19.428  1.00  0.00     0.163 HD
HETATM   14  C20 UNL     1       6.055 -12.491  17.592  1.00  0.00     0.162 C
HETATM   15  C26 UNL     1       6.866 -11.529  16.825  1.00  0.00     0.217 C
HETATM   16  O3  UNL     1       6.745 -11.480  15.548  1.00  0.00    -0.287 OA
HETATM   17  C27 UNL     1       7.817 -10.605  17.411  1.00  0.00     0.197 C
HETATM   18  O4  UNL     1       8.950 -10.420  16.846  1.00  0.00    -0.289 OA
HETATM   19  C28 UNL     1       7.592  -9.829  18.641  1.00  0.00     0.087 C
HETATM   20  C29 UNL     1       8.412  -8.549  18.653  1.00  0.00     0.008 C
HETATM   21  C30 UNL     1       7.516  -7.338  18.777  1.00  0.00     0.010 C
HETATM   22  C31 UNL     1       6.824  -7.035  17.437  1.00  0.00     0.103 C
HETATM   23  C32 UNL     1       5.847  -5.950  17.640  1.00  0.00     0.222 C
HETATM   24  O5  UNL     1       6.052  -5.155  18.582  1.00  0.00    -0.273 OA
HETATM   25  N10 UNL     1       4.699  -5.774  16.819  1.00  0.00    -0.310 N
ENDROOT
BRANCH   1  26
HETATM   26  N1  UNL     1       4.335  -3.426  16.062  1.00  0.00    -0.050 N
HETATM   27  C1  UNL     1       3.885  -2.500  17.104  1.00  0.00     0.275 C
HETATM   28  C2  UNL     1       3.504  -3.019  14.890  1.00  0.00     0.275 C
BRANCH  26  29
HETATM   29  C3  UNL     1       5.658  -3.168  15.603  1.00  0.00     0.192 C
HETATM   30  C4  UNL     1       5.643  -2.403  14.298  1.00  0.00     0.033 C
HETATM   31  C5  UNL     1       6.350  -1.053  14.426  1.00  0.00     0.002 C
HETATM   32  C6  UNL     1       7.815  -1.359  14.626  1.00  0.00     0.000 C
HETATM   33  C7  UNL     1       7.929  -2.353  15.721  1.00  0.00     0.002 C
HETATM   34  C8  UNL     1       6.617  -2.515  16.513  1.00  0.00     0.033 C
ENDBRANCH  26  29
ENDBRANCH   1  26
BRANCH   9  35
HETATM   35  C15 UNL     1       3.206 -10.508  15.852  1.00  0.00     0.036 C
BRANCH  35  36
HETATM   36  C16 UNL     1       3.769 -10.112  14.559  1.00  0.00     0.022 C
BRANCH  36  37
HETATM   37  C17 UNL     1       3.560 -11.113  13.481  1.00  0.00     0.122 C
BRANCH  37  38
HETATM   38  N3  UNL     1       3.502 -10.387  12.180  1.00  0.00    -0.367 N
HETATM   39  C18 UNL     1       2.736 -10.818  11.263  1.00  0.00     0.196 C
HETATM   40  N4  UNL     1       2.686 -10.124  10.029  1.00  0.00    -0.067 NA
HETATM   41  N5  UNL     1       1.918 -11.974  11.412  1.00  0.00    -0.067 NA
ATOM     42  H3  UNL     1       4.072  -9.554  12.028  1.00  0.00     0.161 HD
ENDBRANCH  37  38
ENDBRANCH  36  37
ENDBRANCH  35  36
ENDBRANCH   9  35
BRANCH  14  43
HETATM   43  C21 UNL     1       6.996 -13.390  18.397  1.00  0.00     0.033 C
BRANCH  43  44
HETATM   44  C22 UNL     1       7.350 -14.628  17.628  1.00  0.00     0.004 C
BRANCH  44  45
HETATM   45  C23 UNL     1       8.461 -14.366  16.649  1.00  0.00     0.020 C
BRANCH  45  46
HETATM   46  C24 UNL     1       9.820 -14.448  17.299  1.00  0.00     0.122 C
BRANCH  46  47
HETATM   47  N7  UNL     1      10.264 -13.126  17.726  1.00  0.00    -0.367 N
HETATM   48  C25 UNL     1      10.576 -12.862  18.956  1.00  0.00     0.196 C
HETATM   49  N8  UNL     1      10.484 -13.888  19.918  1.00  0.00    -0.067 NA
HETATM   50  N9  UNL     1      10.991 -11.544  19.237  1.00  0.00    -0.067 NA
ATOM     51  H7  UNL     1      10.330 -12.382  17.032  1.00  0.00     0.161 HD
ENDBRANCH  46  47
ENDBRANCH  45  46
ENDBRANCH  44  45
ENDBRANCH  43  44
ENDBRANCH  14  43
TORSDOF 11
ENDMDL