MODEL 1
REMARK VINA RESULT: -5.712983148      0.000      0.000
REMARK  14 active torsions:
REMARK  status: ('A' for Active; 'I' for Inactive)
REMARK    1  A    between atoms: C2_2  and  C3_3
REMARK       I    between atoms: C3_3  and  N1_5
REMARK    2  A    between atoms: C4_6  and  O2_7
REMARK    3  A    between atoms: C5_11  and  C6_12
REMARK    4  A    between atoms: C6_12  and  C7_13
REMARK    5  A    between atoms: C10_16  and  O3_17
REMARK    6  A    between atoms: C11_21  and  C12_22
REMARK    7  A    between atoms: C12_22  and  C13_23
REMARK    8  A    between atoms: C16_26  and  O4_27
REMARK    9  A    between atoms: C18_32  and  C19_33
REMARK   10  A    between atoms: C22_36  and  O5_37
REMARK   11  A    between atoms: C27_46  and  O6_47
REMARK   12  A    between atoms: C28_49  and  C29_50
REMARK   13  A    between atoms: C30_51  and  C31_52
REMARK   14  A    between atoms: C31_52  and  N7_53
ROOT
HETATM    1  C3  UNL     1       4.160 -12.072  19.121  1.00  0.00     0.254 C
HETATM    2  O1  UNL     1       4.765 -12.954  19.852  1.00  0.00    -0.268 OA
HETATM    3  N1  UNL     1       4.608 -11.890  17.809  1.00  0.00    -0.240 N
HETATM    4  C4  UNL     1       5.716 -12.774  17.425  1.00  0.00     0.227 C
HETATM    5  N2  UNL     1       6.828 -12.522  16.645  1.00  0.00    -0.344 N
ATOM      6  H2  UNL     1       6.895 -13.090  15.800  1.00  0.00     0.164 HD
HETATM    7  C5  UNL     1       7.918 -11.579  16.834  1.00  0.00     0.160 C
HETATM    8  C10 UNL     1       7.789 -10.811  18.079  1.00  0.00     0.135 C
HETATM    9  N3  UNL     1       7.703  -9.431  18.206  1.00  0.00    -0.361 N
ATOM     10  H3  UNL     1       6.800  -9.115  18.562  1.00  0.00     0.162 HD
HETATM   11  C11 UNL     1       8.613  -8.354  17.943  1.00  0.00     0.158 C
HETATM   12  C16 UNL     1       8.286  -7.141  18.764  1.00  0.00     0.139 C
HETATM   13  N4  UNL     1       7.143  -6.471  19.085  1.00  0.00    -0.336 N
ATOM     14  H4  UNL     1       6.793  -6.768  19.996  1.00  0.00     0.168 HD
HETATM   15  C17 UNL     1       6.264  -5.438  18.498  1.00  0.00     0.081 C
HETATM   16  C18 UNL     1       6.749  -4.829  17.281  1.00  0.00     0.011 C
HETATM   17  C22 UNL     1       4.857  -5.866  18.689  1.00  0.00     0.167 C
HETATM   18  N5  UNL     1       3.794  -6.386  18.009  1.00  0.00    -0.338 N
HETATM   19  C23 UNL     1       2.458  -5.797  18.387  1.00  0.00     0.154 C
HETATM   20  C24 UNL     1       3.591  -7.424  17.011  1.00  0.00     0.101 C
HETATM   21  C25 UNL     1       2.524  -6.921  15.990  1.00  0.00     0.063 C
HETATM   22  C26 UNL     1       4.763  -7.715  16.139  1.00  0.00     0.063 C
HETATM   23  N6  UNL     1       3.127  -8.670  17.593  1.00  0.00    -0.343 N
ATOM     24  H6  UNL     1       2.744  -8.569  18.533  1.00  0.00     0.164 HD
HETATM   25  C27 UNL     1       3.105  -9.983  17.111  1.00  0.00     0.166 C
HETATM   26  C28 UNL     1       4.107 -10.968  16.789  1.00  0.00     0.096 C
ENDROOT
BRANCH  26  27
HETATM   27  C29 UNL     1       4.068 -11.551  15.421  1.00  0.00     0.032 C
HETATM   28  C30 UNL     1       3.608 -12.858  15.061  1.00  0.00    -0.005 C
BRANCH  28  29
HETATM   29  C31 UNL     1       2.259 -13.379  15.311  1.00  0.00     0.149 C
BRANCH  29  30
HETATM   30  N7  UNL     1       2.260 -14.201  16.542  1.00  0.00    -0.363 N
HETATM   31  C32 UNL     1       1.558 -14.005  17.560  1.00  0.00     0.197 C
HETATM   32  N8  UNL     1       1.672 -14.883  18.668  1.00  0.00    -0.067 NA
HETATM   33  N9  UNL     1       0.650 -12.929  17.636  1.00  0.00    -0.067 NA
ATOM     34  H7  UNL     1       2.892 -15.002  16.563  1.00  0.00     0.162 HD
ENDBRANCH  29  30
ENDBRANCH  28  29
ENDBRANCH  26  27
BRANCH  25  35
HETATM   35  O6  UNL     1       1.894 -10.431  16.897  1.00  0.00    -0.345 OA
ATOM     36  H6  UNL     1       1.874 -11.350  16.657  1.00  0.00     0.219 HD
ENDBRANCH  25  35
BRANCH   1  37
HETATM   37  C2  UNL     1       3.117 -11.468  19.897  1.00  0.00     0.065 C
HETATM   38  C1  UNL     1       2.581 -12.108  20.939  1.00  0.00     0.017 C
ENDBRANCH   1  37
BRANCH   4  39
HETATM   39  O2  UNL     1       5.609 -13.982  17.910  1.00  0.00    -0.332 OA
ATOM     40  H2  UNL     1       5.250 -14.006  18.788  1.00  0.00     0.221 HD
ENDBRANCH   4  39
BRANCH   7  41
HETATM   41  C6  UNL     1       9.264 -12.277  16.865  1.00  0.00     0.037 C
BRANCH  41  42
HETATM   42  C7  UNL     1       9.175 -13.714  17.272  1.00  0.00    -0.020 C
HETATM   43  C8  UNL     1      10.345 -13.990  18.219  1.00  0.00     0.009 C
HETATM   44  C9  UNL     1       9.360 -14.650  16.098  1.00  0.00     0.009 C
ENDBRANCH  41  42
ENDBRANCH   7  41
BRANCH   8  45
HETATM   45  O3  UNL     1       7.756 -11.566  19.157  1.00  0.00    -0.348 OA
ATOM     46  H3  UNL     1       7.451 -11.106  19.930  1.00  0.00     0.219 HD
ENDBRANCH   8  45
BRANCH  17  47
HETATM   47  O5  UNL     1       4.541  -5.668  19.983  1.00  0.00    -0.344 OA
ATOM     48  H5  UNL     1       3.632  -5.394  20.021  1.00  0.00     0.219 HD
ENDBRANCH  17  47
BRANCH  11  49
HETATM   49  C12 UNL     1       8.763  -8.119  16.489  1.00  0.00     0.037 C
BRANCH  49  50
HETATM   50  C13 UNL     1       9.325  -6.727  16.247  1.00  0.00    -0.020 C
HETATM   51  C14 UNL     1       9.354  -6.473  14.735  1.00  0.00     0.009 C
HETATM   52  C15 UNL     1      10.804  -6.787  16.652  1.00  0.00     0.009 C
ENDBRANCH  49  50
ENDBRANCH  11  49
BRANCH  16  53
HETATM   53  C19 UNL     1       6.127  -3.685  16.610  1.00  0.00     0.002 C
HETATM   54  C20 UNL     1       6.869  -2.465  16.250  1.00  0.00     0.013 C
HETATM   55  C21 UNL     1       5.261  -4.109  15.407  1.00  0.00     0.013 C
ENDBRANCH  16  53
BRANCH  12  56
HETATM   56  O4  UNL     1       9.386  -6.640  19.285  1.00  0.00    -0.348 OA
ATOM     57  H4  UNL     1       9.242  -5.736  19.539  1.00  0.00     0.219 HD
ENDBRANCH  12  56
TORSDOF 14
ENDMDL