MODEL 4
REMARK VINA RESULT: -5.371133907      1.015      1.017
REMARK  12 active torsions:
REMARK  status: ('A' for Active; 'I' for Inactive)
REMARK    1  A    between atoms: C3_3  and  N1_4
REMARK    2  A    between atoms: C6_10  and  C7_11
REMARK    3  A    between atoms: C7_11  and  C8_12
REMARK    4  A    between atoms: C12_19  and  C13_20
REMARK    5  A    between atoms: C13_20  and  C14_21
REMARK    6  A    between atoms: C18_28  and  C19_29
REMARK    7  A    between atoms: C19_29  and  C20_30
REMARK    8  A    between atoms: C23_33  and  O4_34
REMARK    9  A    between atoms: C24_38  and  C25_39
REMARK   10  A    between atoms: C25_39  and  C26_40
REMARK   11  A    between atoms: C30_47  and  C31_48
REMARK   12  A    between atoms: C31_48  and  C32_49
ROOT
HETATM    1  C1  UNL     1       5.241 -14.862  22.916  1.00  0.00     0.014 C
HETATM    2  C2  UNL     1       5.091 -14.850  21.719  1.00  0.00    -0.098 C
HETATM    3  C3  UNL     1       4.938 -14.821  20.268  1.00  0.00     0.219 C
ENDROOT
BRANCH   3   4
HETATM    4  N1  UNL     1       4.692 -13.463  19.753  1.00  0.00    -0.331 N
HETATM    5  C4  UNL     1       5.802 -12.548  19.962  1.00  0.00     0.229 C
HETATM    6  C5  UNL     1       6.884 -12.772  18.968  1.00  0.00     0.236 C
HETATM    7  O1  UNL     1       6.826 -13.884  18.319  1.00  0.00    -0.272 OA
HETATM    8  N2  UNL     1       7.949 -11.909  18.668  1.00  0.00    -0.346 N
HETATM    9  C6  UNL     1       7.984 -10.462  18.759  1.00  0.00     0.177 C
ATOM     10  H2  UNL     1       8.806 -12.356  18.343  1.00  0.00     0.163 HD
HETATM   11  C11 UNL     1       8.364  -9.918  17.431  1.00  0.00     0.241 C
HETATM   12  O2  UNL     1       9.147 -10.680  16.769  1.00  0.00    -0.271 OA
HETATM   13  N3  UNL     1       7.976  -8.704  16.841  1.00  0.00    -0.346 N
HETATM   14  C12 UNL     1       8.019  -7.377  17.392  1.00  0.00     0.177 C
ATOM     15  H3  UNL     1       7.614  -8.773  15.891  1.00  0.00     0.163 HD
HETATM   16  C17 UNL     1       6.814  -6.937  18.114  1.00  0.00     0.241 C
HETATM   17  O3  UNL     1       6.988  -6.642  19.362  1.00  0.00    -0.271 OA
HETATM   18  N4  UNL     1       5.500  -6.782  17.665  1.00  0.00    -0.347 N
HETATM   19  C18 UNL     1       4.749  -7.678  16.798  1.00  0.00     0.159 C
ATOM     20  H4  UNL     1       5.010  -5.945  17.981  1.00  0.00     0.163 HD
HETATM   21  C23 UNL     1       4.398  -8.921  17.537  1.00  0.00     0.135 C
HETATM   22  N5  UNL     1       4.288 -10.232  17.089  1.00  0.00    -0.359 N
HETATM   23  C24 UNL     1       3.301 -10.851  16.235  1.00  0.00     0.175 C
ATOM     24  H5  UNL     1       5.024 -10.859  17.416  1.00  0.00     0.162 HD
HETATM   25  C29 UNL     1       2.152 -11.376  16.986  1.00  0.00     0.241 C
HETATM   26  O5  UNL     1       1.229 -11.907  16.260  1.00  0.00    -0.271 OA
HETATM   27  N6  UNL     1       1.905 -11.384  18.366  1.00  0.00    -0.346 N
HETATM   28  C30 UNL     1       2.508 -12.080  19.469  1.00  0.00     0.185 C
ATOM     29  H6  UNL     1       1.140 -10.770  18.644  1.00  0.00     0.163 HD
HETATM   30  C33 UNL     1       3.466 -13.144  19.120  1.00  0.00     0.244 C
HETATM   31  O7  UNL     1       3.190 -13.907  18.118  1.00  0.00    -0.271 OA
BRANCH   9  32
HETATM   32  C7  UNL     1       8.768  -9.941  19.902  1.00  0.00     0.038 C
BRANCH  32  33
HETATM   33  C8  UNL     1       9.322 -10.864  20.904  1.00  0.00    -0.020 C
HETATM   34  C9  UNL     1       9.640 -10.292  22.255  1.00  0.00     0.009 C
HETATM   35  C10 UNL     1      10.650 -11.381  20.316  1.00  0.00     0.009 C
ENDBRANCH  32  33
ENDBRANCH   9  32
BRANCH  14  36
HETATM   36  C13 UNL     1       8.367  -6.350  16.308  1.00  0.00     0.038 C
BRANCH  36  37
HETATM   37  C14 UNL     1       9.794  -6.292  15.926  1.00  0.00    -0.020 C
HETATM   38  C15 UNL     1      10.113  -5.357  14.777  1.00  0.00     0.009 C
HETATM   39  C16 UNL     1      10.788  -6.156  17.024  1.00  0.00     0.009 C
ENDBRANCH  36  37
ENDBRANCH  14  36
BRANCH  19  40
HETATM   40  C19 UNL     1       3.563  -7.002  16.167  1.00  0.00     0.037 C
BRANCH  40  41
HETATM   41  C20 UNL     1       3.458  -5.539  16.313  1.00  0.00    -0.020 C
HETATM   42  C21 UNL     1       3.722  -4.929  14.934  1.00  0.00     0.009 C
HETATM   43  C22 UNL     1       2.228  -4.946  16.882  1.00  0.00     0.009 C
ENDBRANCH  40  41
ENDBRANCH  19  40
BRANCH  21  44
HETATM   44  O4  UNL     1       4.172  -8.679  18.808  1.00  0.00    -0.348 OA
ATOM     45  H4  UNL     1       4.439  -9.408  19.355  1.00  0.00     0.219 HD
ENDBRANCH  21  44
BRANCH  23  46
HETATM   46  C25 UNL     1       4.007 -11.752  15.300  1.00  0.00     0.038 C
BRANCH  46  47
HETATM   47  C26 UNL     1       3.828 -11.542  13.846  1.00  0.00    -0.020 C
HETATM   48  C27 UNL     1       3.720 -10.025  13.602  1.00  0.00     0.009 C
HETATM   49  C28 UNL     1       2.651 -12.180  13.209  1.00  0.00     0.009 C
ENDBRANCH  46  47
ENDBRANCH  23  46
BRANCH  28  50
HETATM   50  C31 UNL     1       1.472 -12.673  20.416  1.00  0.00     0.134 C
BRANCH  50  51
HETATM   51  C32 UNL     1       0.119 -12.801  19.926  1.00  0.00     0.233 C
HETATM   52  N7  UNL     1      -0.819 -11.748  20.212  1.00  0.00    -0.062 NA
HETATM   53  O6  UNL     1      -0.314 -13.760  19.268  1.00  0.00    -0.277 OA
ENDBRANCH  50  51
ENDBRANCH  28  50
ENDBRANCH   3   4
TORSDOF 12
ENDMDL