MODEL 2
REMARK VINA RESULT: -5.823849784      1.074      1.463
REMARK  12 active torsions:
REMARK  status: ('A' for Active; 'I' for Inactive)
REMARK    1  A    between atoms: C2_2  and  C4_4
REMARK    2  A    between atoms: C4_4  and  C5_5
REMARK    3  A    between atoms: C7_10  and  C8_11
REMARK    4  A    between atoms: C11_16  and  C12_17
REMARK    5  A    between atoms: C12_17  and  C13_18
REMARK    6  A    between atoms: C13_18  and  C14_19
REMARK    7  A    between atoms: C14_19  and  N3_20
REMARK    8  A    between atoms: C17_27  and  O2_28
REMARK    9  A    between atoms: C18_30  and  C19_31
REMARK   10  A    between atoms: C19_31  and  C20_32
REMARK   11  A    between atoms: C25_39  and  C26_40
REMARK   12  A    between atoms: C30_47  and  C31_48
ROOT
HETATM    1  C5  UNL     1       8.439 -10.185  19.515  1.00  0.00     0.177 C
HETATM    2  N1  UNL     1       8.613  -8.747  19.499  1.00  0.00    -0.346 N
ATOM      3  H1  UNL     1       9.334  -8.383  20.121  1.00  0.00     0.163 HD
HETATM    4  C6  UNL     1       7.919  -7.786  18.740  1.00  0.00     0.241 C
HETATM    5  O1  UNL     1       7.510  -6.772  19.391  1.00  0.00    -0.271 OA
HETATM    6  C7  UNL     1       7.624  -7.830  17.288  1.00  0.00     0.174 C
HETATM    7  N2  UNL     1       6.297  -7.903  16.874  1.00  0.00    -0.388 N
ATOM      8  H2  UNL     1       6.067  -8.675  16.249  1.00  0.00     0.156 HD
HETATM    9  C11 UNL     1       5.265  -7.071  17.198  1.00  0.00     0.181 C
HETATM   10  N6  UNL     1       4.052  -7.789  17.553  1.00  0.00    -0.347 N
HETATM   11  C16 UNL     1       2.910  -6.883  17.843  1.00  0.00     0.153 C
HETATM   12  C17 UNL     1       3.802  -9.134  17.705  1.00  0.00     0.138 C
HETATM   13  C18 UNL     1       4.144 -10.295  16.788  1.00  0.00     0.161 C
HETATM   14  N7  UNL     1       3.317 -11.419  17.291  1.00  0.00    -0.343 N
HETATM   15  C23 UNL     1       1.870 -11.158  17.335  1.00  0.00     0.153 C
HETATM   16  C24 UNL     1       3.757 -12.640  17.757  1.00  0.00     0.243 C
HETATM   17  O3  UNL     1       3.020 -13.680  17.622  1.00  0.00    -0.271 OA
HETATM   18  C25 UNL     1       5.064 -12.914  18.442  1.00  0.00     0.180 C
HETATM   19  N8  UNL     1       5.770 -13.855  17.575  1.00  0.00    -0.346 N
ATOM     20  H8  UNL     1       5.243 -14.590  17.104  1.00  0.00     0.163 HD
HETATM   21  C29 UNL     1       7.194 -13.770  17.371  1.00  0.00     0.241 C
HETATM   22  O4  UNL     1       7.633 -14.195  16.277  1.00  0.00    -0.271 OA
HETATM   23  C30 UNL     1       8.080 -13.199  18.430  1.00  0.00     0.180 C
HETATM   24  N9  UNL     1       8.939 -12.165  17.946  1.00  0.00    -0.346 N
ATOM     25  H9  UNL     1       9.427 -12.368  17.073  1.00  0.00     0.163 HD
HETATM   26  C34 UNL     1       9.202 -10.906  18.511  1.00  0.00     0.241 C
HETATM   27  O5  UNL     1      10.265 -10.319  18.068  1.00  0.00    -0.271 OA
ENDROOT
BRANCH   9  28
HETATM   28  C12 UNL     1       4.909  -5.888  16.374  1.00  0.00     0.048 C
BRANCH  28  29
HETATM   29  C13 UNL     1       5.714  -4.668  16.405  1.00  0.00     0.023 C
BRANCH  29  30
HETATM   30  C14 UNL     1       4.749  -3.497  16.124  1.00  0.00     0.122 C
BRANCH  30  31
HETATM   31  N3  UNL     1       3.923  -3.235  17.268  1.00  0.00    -0.367 N
HETATM   32  C15 UNL     1       2.640  -3.365  17.299  1.00  0.00     0.196 C
HETATM   33  N4  UNL     1       1.865  -3.788  16.197  1.00  0.00    -0.067 NA
HETATM   34  N5  UNL     1       1.986  -3.059  18.522  1.00  0.00    -0.067 NA
ATOM     35  H3  UNL     1       4.385  -2.920  18.122  1.00  0.00     0.161 HD
ENDBRANCH  30  31
ENDBRANCH  29  30
ENDBRANCH  28  29
ENDBRANCH   9  28
BRANCH   6  36
HETATM   36  C8  UNL     1       8.491  -6.789  16.562  1.00  0.00     0.009 C
HETATM   37  C9  UNL     1       9.707  -7.412  15.942  1.00  0.00     0.012 C
HETATM   38  C10 UNL     1       8.934  -5.673  17.446  1.00  0.00     0.012 C
ENDBRANCH   6  36
BRANCH  12  39
HETATM   39  O2  UNL     1       3.183  -9.475  18.798  1.00  0.00    -0.348 OA
ATOM     40  H2  UNL     1       3.654  -9.315  19.607  1.00  0.00     0.219 HD
ENDBRANCH  12  39
BRANCH  13  41
HETATM   41  C19 UNL     1       3.700 -10.027  15.390  1.00  0.00     0.037 C
BRANCH  41  42
HETATM   42  C20 UNL     1       3.982 -10.994  14.326  1.00  0.00    -0.020 C
HETATM   43  C21 UNL     1       3.769 -10.210  12.988  1.00  0.00     0.009 C
HETATM   44  C22 UNL     1       3.267 -12.267  14.202  1.00  0.00     0.009 C
ENDBRANCH  41  42
ENDBRANCH  13  41
BRANCH   1  45
HETATM   45  C4  UNL     1       8.615 -10.705  20.905  1.00  0.00     0.038 C
BRANCH  45  46
HETATM   46  C2  UNL     1       9.907 -10.401  21.596  1.00  0.00    -0.020 C
HETATM   47  C1  UNL     1       9.615 -10.301  23.125  1.00  0.00     0.009 C
HETATM   48  C3  UNL     1      10.964 -11.454  21.480  1.00  0.00     0.009 C
ENDBRANCH  45  46
ENDBRANCH   1  45
BRANCH  18  49
HETATM   49  C26 UNL     1       4.711 -13.538  19.768  1.00  0.00     0.009 C
HETATM   50  C27 UNL     1       5.105 -14.996  19.757  1.00  0.00     0.012 C
HETATM   51  C28 UNL     1       5.311 -12.828  20.927  1.00  0.00     0.012 C
ENDBRANCH  18  49
BRANCH  23  52
HETATM   52  C31 UNL     1       8.908 -14.331  18.977  1.00  0.00     0.009 C
HETATM   53  C32 UNL     1      10.321 -14.361  18.457  1.00  0.00     0.012 C
HETATM   54  C33 UNL     1       8.844 -14.453  20.473  1.00  0.00     0.012 C
ENDBRANCH  23  52
TORSDOF 12
ENDMDL