MODEL 2
REMARK VINA RESULT: -5.644141020      0.776      1.416
REMARK  11 active torsions:
REMARK  status: ('A' for Active; 'I' for Inactive)
REMARK    1  A    between atoms: C2_2  and  C3_3
REMARK    2  A    between atoms: C3_3  and  C4_4
REMARK    3  A    between atoms: C4_4  and  C5_5
REMARK    4  A    between atoms: C7_10  and  C8_11
REMARK    5  A    between atoms: C8_11  and  C9_12
REMARK    6  A    between atoms: C18_26  and  C19_27
REMARK    7  A    between atoms: C19_27  and  C20_28
REMARK    8  A    between atoms: C20_28  and  C21_29
REMARK    9  A    between atoms: C26_40  and  C27_41
REMARK   10  A    between atoms: C27_41  and  N6_42
REMARK   11  A    between atoms: N6_42  and  C28_43
ROOT
HETATM    1  C5  UNL     1       7.195  -9.987  18.574  1.00  0.00     0.176 C
HETATM    2  N1  UNL     1       6.699 -10.867  19.608  1.00  0.00    -0.346 N
ATOM      3  H1  UNL     1       6.406 -10.402  20.467  1.00  0.00     0.163 HD
HETATM    4  C6  UNL     1       6.561 -12.243  19.613  1.00  0.00     0.241 C
HETATM    5  O1  UNL     1       5.429 -12.742  19.845  1.00  0.00    -0.271 OA
HETATM    6  C7  UNL     1       7.675 -13.254  19.359  1.00  0.00     0.177 C
HETATM    7  N2  UNL     1       7.019 -14.538  19.224  1.00  0.00    -0.346 N
ATOM      8  H2  UNL     1       6.650 -14.943  20.085  1.00  0.00     0.163 HD
HETATM    9  C12 UNL     1       6.828 -15.287  18.069  1.00  0.00     0.241 C
HETATM   10  O2  UNL     1       6.600 -16.544  18.175  1.00  0.00    -0.271 OA
HETATM   11  C13 UNL     1       6.860 -14.792  16.670  1.00  0.00     0.179 C
HETATM   12  C14 UNL     1       8.322 -14.869  16.220  1.00  0.00     0.037 C
HETATM   13  C15 UNL     1       8.384 -16.288  15.682  1.00  0.00     0.022 C
HETATM   14  C16 UNL     1       7.087 -16.413  14.961  1.00  0.00     0.127 C
HETATM   15  N3  UNL     1       6.149 -15.660  15.758  1.00  0.00    -0.337 N
HETATM   16  C17 UNL     1       4.729 -15.710  15.703  1.00  0.00     0.243 C
HETATM   17  O3  UNL     1       4.161 -16.718  15.218  1.00  0.00    -0.271 OA
HETATM   18  C18 UNL     1       3.850 -14.604  16.200  1.00  0.00     0.176 C
HETATM   19  N4  UNL     1       3.411 -13.764  15.105  1.00  0.00    -0.346 N
ATOM     20  H4  UNL     1       3.296 -14.227  14.204  1.00  0.00     0.163 HD
HETATM   21  C23 UNL     1       3.127 -12.402  15.132  1.00  0.00     0.236 C
HETATM   22  O4  UNL     1       3.560 -11.705  14.148  1.00  0.00    -0.272 OA
HETATM   23  C24 UNL     1       2.378 -11.663  16.174  1.00  0.00     0.225 C
HETATM   24  N5  UNL     1       3.096 -11.426  17.383  1.00  0.00    -0.350 N
ATOM     25  H5  UNL     1       3.258 -12.255  17.954  1.00  0.00     0.163 HD
HETATM   26  C25 UNL     1       3.617 -10.226  17.915  1.00  0.00     0.242 C
HETATM   27  O5  UNL     1       3.328  -9.960  19.152  1.00  0.00    -0.271 OA
HETATM   28  C26 UNL     1       4.458  -9.238  17.232  1.00  0.00     0.202 C
HETATM   29  N7  UNL     1       5.593  -9.900  16.550  1.00  0.00    -0.344 N
ATOM     30  H7  UNL     1       5.525 -10.065  15.545  1.00  0.00     0.163 HD
HETATM   31  C34 UNL     1       6.757 -10.313  17.218  1.00  0.00     0.241 C
HETATM   32  O6  UNL     1       7.525 -11.077  16.526  1.00  0.00    -0.271 OA
ENDROOT
BRANCH  28  33
HETATM   33  C27 UNL     1       3.757  -8.395  16.263  1.00  0.00     0.272 C
BRANCH  33  34
HETATM   34  N6  UNL     1       3.633  -7.001  16.349  1.00  0.00    -0.065 N
HETATM   35  C30 UNL     1       3.796  -6.355  15.032  1.00  0.00     0.237 C
HETATM   36  C31 UNL     1       2.449  -6.242  14.414  1.00  0.00     0.029 C
HETATM   37  C32 UNL     1       1.503  -6.213  15.574  1.00  0.00     0.029 C
HETATM   38  C33 UNL     1       2.253  -6.726  16.752  1.00  0.00     0.237 C
BRANCH  34  39
HETATM   39  C28 UNL     1       4.502  -6.279  17.230  1.00  0.00     0.233 C
HETATM   40  C29 UNL     1       5.437  -5.359  16.428  1.00  0.00     0.035 C
ENDBRANCH  34  39
ENDBRANCH  33  34
ENDBRANCH  28  33
BRANCH   1  41
HETATM   41  C4  UNL     1       8.722  -9.845  18.675  1.00  0.00     0.035 C
BRANCH  41  42
HETATM   42  C3  UNL     1       9.205  -8.594  17.985  1.00  0.00     0.002 C
BRANCH  42  43
HETATM   43  C2  UNL     1       8.532  -7.363  18.605  1.00  0.00    -0.004 C
HETATM   44  C1  UNL     1       9.300  -6.137  18.121  1.00  0.00     0.005 C
ENDBRANCH  42  43
ENDBRANCH  41  42
ENDBRANCH   1  41
BRANCH  18  45
HETATM   45  C19 UNL     1       2.622 -15.267  16.774  1.00  0.00     0.035 C
BRANCH  45  46
HETATM   46  C20 UNL     1       2.408 -14.897  18.235  1.00  0.00     0.002 C
BRANCH  46  47
HETATM   47  C21 UNL     1       3.245 -15.769  19.143  1.00  0.00    -0.004 C
HETATM   48  C22 UNL     1       3.045 -17.204  18.742  1.00  0.00     0.005 C
ENDBRANCH  46  47
ENDBRANCH  45  46
ENDBRANCH  18  45
BRANCH   6  49
HETATM   49  C8  UNL     1       8.564 -13.283  20.567  1.00  0.00     0.038 C
BRANCH  49  50
HETATM   50  C9  UNL     1      10.005 -13.145  20.235  1.00  0.00    -0.020 C
HETATM   51  C10 UNL     1      10.776 -12.027  20.819  1.00  0.00     0.009 C
HETATM   52  C11 UNL     1      10.146 -13.071  18.699  1.00  0.00     0.009 C
ENDBRANCH  49  50
ENDBRANCH   6  49
TORSDOF 11
ENDMDL