MODEL 3
REMARK VINA RESULT: -9.334153323      1.585      2.232
REMARK  12 active torsions:
REMARK  status: ('A' for Active; 'I' for Inactive)
REMARK    1  A    between atoms: C2_2  and  C3_6
REMARK    2  A    between atoms: C3_6  and  N2_8
REMARK       I    between atoms: N2_8  and  C5_10
REMARK    3  A    between atoms: C5_10  and  C6_12
REMARK    4  A    between atoms: C6_12  and  C7_13
REMARK    5  A    between atoms: C6_12  and  N9_41
REMARK       I    between atoms: N3_18  and  C12_19
REMARK    6  A    between atoms: C12_19  and  C13_21
REMARK    7  A    between atoms: C13_21  and  N4_23
REMARK       I    between atoms: N4_23  and  C15_25
REMARK    8  A    between atoms: C15_25  and  C16_27
REMARK    9  A    between atoms: C16_27  and  C17_28
REMARK   10  A    between atoms: C16_27  and  N5_32
REMARK   11  A    between atoms: C17_28  and  C18_29
REMARK       I    between atoms: N5_32  and  C21_34
REMARK       I    between atoms: C21_34  and  N6_36
REMARK   12  A    between atoms: C31_52  and  O5_53
ROOT
HETATM    1  C7  UNL     1       4.575  -5.390  15.664  1.00  0.00     0.024 C
HETATM    2  C8  UNL     1       3.480  -4.642  14.935  1.00  0.00     0.055 C
HETATM    3  C9  UNL     1       2.206  -4.665  15.815  1.00  0.00     0.007 C
HETATM    4  C10 UNL     1       2.521  -3.935  17.109  1.00  0.00     0.021 C
HETATM    5  C11 UNL     1       3.419  -4.872  17.865  1.00  0.00     0.131 C
HETATM    6  N3  UNL     1       4.092  -5.765  16.946  1.00  0.00    -0.321 N
HETATM    7  C12 UNL     1       4.196  -7.117  17.451  1.00  0.00     0.246 C
HETATM    8  O2  UNL     1       3.797  -7.315  18.644  1.00  0.00    -0.271 OA
ENDROOT
BRANCH   1   9
HETATM    9  C6  UNL     1       5.943  -4.856  15.517  1.00  0.00     0.222 C
BRANCH   9  10
HETATM   10  C5  UNL     1       6.822  -5.374  16.582  1.00  0.00     0.246 C
HETATM   11  N2  UNL     1       7.928  -6.268  16.356  1.00  0.00    -0.350 N
ATOM     12  H2  UNL     1       8.113  -6.549  15.394  1.00  0.00     0.163 HD
HETATM   13  O1  UNL     1       6.694  -5.087  17.823  1.00  0.00    -0.271 OA
BRANCH  11  14
HETATM   14  C3  UNL     1       8.787  -6.795  17.369  1.00  0.00     0.125 C
HETATM   15  C4  UNL     1       8.997  -8.289  17.248  1.00  0.00     0.038 C
BRANCH  14  16
HETATM   16  C2  UNL     1      10.134  -6.161  17.426  1.00  0.00    -0.002 C
HETATM   17  C1  UNL     1      10.309  -4.704  17.682  1.00  0.00     0.065 C
HETATM   18  N1  UNL     1      11.227  -6.848  17.253  1.00  0.00    -0.404 N
ATOM     19  H12 UNL     1      12.149  -6.413  17.292  1.00  0.00     0.155 HD
ATOM     20  H11 UNL     1      11.107  -7.845  17.079  1.00  0.00     0.155 HD
ENDBRANCH  14  16
ENDBRANCH  11  14
ENDBRANCH   9  10
BRANCH   9  21
HETATM   21  N9  UNL     1       6.087  -3.439  15.311  1.00  0.00    -0.368 N
HETATM   22  C23 UNL     1       7.051  -3.164  14.250  1.00  0.00     0.123 C
HETATM   23  C24 UNL     1       6.616  -2.348  13.114  1.00  0.00     0.020 C
HETATM   24  C25 UNL     1       7.043  -0.911  13.121  1.00  0.00     0.002 C
HETATM   25  C26 UNL     1       6.179  -0.160  12.144  1.00  0.00     0.000 C
HETATM   26  C27 UNL     1       5.113   0.672  12.825  1.00  0.00     0.000 C
HETATM   27  C28 UNL     1       3.753   0.014  12.750  1.00  0.00     0.002 C
HETATM   28  C29 UNL     1       3.063  -0.075  14.068  1.00  0.00     0.020 C
HETATM   29  C30 UNL     1       2.986  -1.450  14.676  1.00  0.00     0.121 C
HETATM   30  N10 UNL     1       3.545  -1.549  16.008  1.00  0.00    -0.370 N
HETATM   31  C31 UNL     1       4.855  -1.581  16.454  1.00  0.00     0.151 C
ATOM     32  H10 UNL     1       2.849  -1.606  16.751  1.00  0.00     0.161 HD
HETATM   33  C32 UNL     1       5.984  -2.497  16.282  1.00  0.00     0.142 C
BRANCH  31  34
HETATM   34  O5  UNL     1       5.166  -0.560  17.210  1.00  0.00    -0.345 OA
ATOM     35  H5  UNL     1       6.085  -0.323  17.158  1.00  0.00     0.219 HD
ENDBRANCH  31  34
ENDBRANCH   9  21
ENDBRANCH   1   9
BRANCH   7  36
HETATM   36  C13 UNL     1       4.712  -8.279  16.727  1.00  0.00     0.173 C
HETATM   37  C14 UNL     1       3.545  -8.883  15.955  1.00  0.00     0.042 C
BRANCH  36  38
HETATM   38  N4  UNL     1       5.142  -9.265  17.739  1.00  0.00    -0.346 N
HETATM   39  C15 UNL     1       5.953 -10.338  17.307  1.00  0.00     0.241 C
HETATM   40  O3  UNL     1       6.303 -10.452  16.114  1.00  0.00    -0.271 OA
ATOM     41  H4  UNL     1       4.863  -9.174  18.716  1.00  0.00     0.163 HD
BRANCH  39  42
HETATM   42  C16 UNL     1       6.366 -11.324  18.353  1.00  0.00     0.178 C
BRANCH  42  43
HETATM   43  C17 UNL     1       5.109 -11.751  19.058  1.00  0.00     0.038 C
BRANCH  43  44
HETATM   44  C18 UNL     1       4.224 -12.680  18.298  1.00  0.00    -0.020 C
HETATM   45  C19 UNL     1       2.814 -12.051  18.320  1.00  0.00     0.009 C
HETATM   46  C20 UNL     1       4.077 -14.014  19.019  1.00  0.00     0.009 C
ENDBRANCH  43  44
ENDBRANCH  42  43
BRANCH  42  47
HETATM   47  N5  UNL     1       7.157 -12.382  17.837  1.00  0.00    -0.330 N
HETATM   48  C21 UNL     1       8.576 -12.398  18.028  1.00  0.00     0.323 C
HETATM   49  O4  UNL     1       9.089 -11.446  18.665  1.00  0.00    -0.247 OA
HETATM   50  N6  UNL     1       9.410 -13.418  17.540  1.00  0.00    -0.285 N
HETATM   51  C22 UNL     1      10.349 -13.878  18.325  1.00  0.00     0.204 C
ATOM     52  H6  UNL     1       9.286 -13.791  16.599  1.00  0.00     0.172 HD
HETATM   53  N7  UNL     1      10.522 -13.361  19.632  1.00  0.00    -0.066 NA
HETATM   54  N8  UNL     1      11.190 -14.906  17.828  1.00  0.00    -0.066 NA
ATOM     55  H5  UNL     1       6.709 -13.141  17.323  1.00  0.00     0.165 HD
ENDBRANCH  42  47
ENDBRANCH  39  42
ENDBRANCH  36  38
ENDBRANCH   7  36
TORSDOF 12
ENDMDL