MODEL 4
REMARK VINA RESULT: -10.401609101      0.915      1.227
REMARK  11 active torsions:
REMARK  status: ('A' for Active; 'I' for Inactive)
REMARK    1  A    between atoms: C7_9  and  C8_10
REMARK    2  A    between atoms: C8_10  and  C9_11
REMARK    3  A    between atoms: C9_11  and  C10_12
REMARK    4  A    between atoms: C10_12  and  C11_13
REMARK    5  A    between atoms: C11_13  and  C12_14
REMARK       I    between atoms: C12_14  and  N2_16
REMARK    6  A    between atoms: N2_16  and  C13_18
REMARK    7  A    between atoms: C13_18  and  C14_19
REMARK       I    between atoms: C14_19  and  N3_21
REMARK    8  A    between atoms: C23_32  and  C24_33
REMARK    9  A    between atoms: C25_36  and  C26_37
REMARK       I    between atoms: C26_37  and  N6_39
REMARK   10  A    between atoms: N6_39  and  C27_41
REMARK   11  A    between atoms: C27_41  and  C28_42
ROOT
HETATM    1  C14 UNL     1       7.617  -2.986  15.976  1.00  0.00     0.243 C
HETATM    2  O2  UNL     1       8.420  -3.878  15.633  1.00  0.00    -0.271 OA
HETATM    3  N3  UNL     1       6.486  -3.241  16.729  1.00  0.00    -0.297 N
HETATM    4  C15 UNL     1       5.644  -1.978  16.915  1.00  0.00     0.261 C
HETATM    5  N4  UNL     1       4.392  -2.495  16.414  1.00  0.00    -0.330 N
HETATM    6  C16 UNL     1       4.253  -2.521  15.010  1.00  0.00     0.230 C
HETATM    7  O3  UNL     1       4.461  -1.645  14.176  1.00  0.00    -0.273 OA
HETATM    8  C17 UNL     1       3.750  -3.922  14.553  1.00  0.00     0.112 C
HETATM    9  C18 UNL     1       4.700  -4.862  15.172  1.00  0.00     0.029 C
HETATM   10  C19 UNL     1       4.796  -5.018  16.627  1.00  0.00     0.044 C
HETATM   11  C20 UNL     1       3.593  -4.549  17.429  1.00  0.00     0.036 C
HETATM   12  C21 UNL     1       3.283  -3.092  17.138  1.00  0.00     0.093 C
HETATM   13  C22 UNL     1       2.046  -3.151  16.230  1.00  0.00     0.066 C
HETATM   14  C23 UNL     1       2.328  -3.940  14.962  1.00  0.00    -0.000 C
HETATM   15  C25 UNL     1       6.039  -4.440  17.301  1.00  0.00     0.088 C
ENDROOT
BRANCH   1  16
HETATM   16  C13 UNL     1       7.996  -1.606  15.497  1.00  0.00     0.225 C
BRANCH  16  17
HETATM   17  N2  UNL     1       7.586  -1.334  14.157  1.00  0.00    -0.352 N
HETATM   18  C12 UNL     1       7.836  -0.098  13.480  1.00  0.00     0.217 C
HETATM   19  O1  UNL     1       8.452   0.795  14.106  1.00  0.00    -0.274 OA
ATOM     20  H2  UNL     1       7.083  -2.064  13.651  1.00  0.00     0.162 HD
BRANCH  18  21
HETATM   21  C11 UNL     1       7.376   0.131  12.070  1.00  0.00     0.103 C
BRANCH  21  22
HETATM   22  C10 UNL     1       7.951   1.410  11.527  1.00  0.00     0.010 C
BRANCH  22  23
HETATM   23  C9  UNL     1       6.997   2.124  10.609  1.00  0.00     0.006 C
BRANCH  23  24
HETATM   24  C8  UNL     1       6.089   3.064  11.406  1.00  0.00     0.057 C
BRANCH  24  25
HETATM   25  C7  UNL     1       4.745   3.104  10.820  1.00  0.00     0.010 A
HETATM   26  N1  UNL     1       4.444   3.548   9.581  1.00  0.00    -0.362 N
HETATM   27  C6  UNL     1       3.144   3.471   9.340  1.00  0.00     0.016 A
ATOM     28  H1  UNL     1       5.131   3.899   8.914  1.00  0.00     0.165 HD
HETATM   29  C5  UNL     1       2.223   3.775   8.215  1.00  0.00     0.057 C
HETATM   30  C33 UNL     1       2.574   2.948  10.492  1.00  0.00    -0.030 A
HETATM   31  C4  UNL     1       1.070   4.582   8.718  1.00  0.00     0.007 C
HETATM   32  C3  UNL     1       0.469   4.083   9.988  1.00  0.00     0.009 C
HETATM   33  C2  UNL     1       1.088   2.780  10.455  1.00  0.00     0.016 C
HETATM   34  C1  UNL     1       0.622   2.445  11.855  1.00  0.00     0.015 C
HETATM   35  C32 UNL     1       3.573   2.717  11.419  1.00  0.00     0.034 A
ENDBRANCH  24  25
ENDBRANCH  23  24
ENDBRANCH  22  23
ENDBRANCH  21  22
ENDBRANCH  18  21
ENDBRANCH  16  17
ENDBRANCH   1  16
BRANCH  15  36
HETATM   36  C26 UNL     1       6.991  -5.429  17.810  1.00  0.00     0.265 C
HETATM   37  O5  UNL     1       7.239  -5.658  19.022  1.00  0.00    -0.266 OA
HETATM   38  N6  UNL     1       7.752  -6.266  16.910  1.00  0.00    -0.340 N
ATOM     39  H6  UNL     1       7.613  -6.157  15.905  1.00  0.00     0.164 HD
BRANCH  38  40
HETATM   40  C27 UNL     1       8.695  -7.245  17.374  1.00  0.00     0.088 C
HETATM   41  C29 UNL     1       9.746  -6.712  18.318  1.00  0.00     0.039 C
HETATM   42  C30 UNL     1      10.669  -6.450  17.130  1.00  0.00     0.006 C
HETATM   43  C31 UNL     1       9.836  -7.445  16.359  1.00  0.00     0.039 C
BRANCH  40  44
HETATM   44  C28 UNL     1       8.165  -8.537  17.834  1.00  0.00     0.115 C
HETATM   45  N7  UNL     1       7.738  -8.689  19.040  1.00  0.00    -0.389 N
ATOM     46  H72 UNL     1       7.779  -7.870  19.648  1.00  0.00     0.157 HD
ATOM     47  H71 UNL     1       7.370  -9.585  19.359  1.00  0.00     0.157 HD
HETATM   48  N8  UNL     1       8.107  -9.670  16.992  1.00  0.00    -0.085 NA
ENDBRANCH  40  44
ENDBRANCH  38  40
ENDBRANCH  15  36
BRANCH  14  49
HETATM   49  C24 UNL     1       1.643  -5.236  14.891  1.00  0.00     0.258 C
HETATM   50  N5  UNL     1       0.261  -5.345  15.182  1.00  0.00    -0.058 NA
HETATM   51  O4  UNL     1       2.270  -6.259  14.571  1.00  0.00    -0.272 OA
ENDBRANCH  14  49
TORSDOF 11
ENDMDL