MODEL 5
REMARK VINA RESULT: -6.616785739      5.835     12.374
REMARK  13 active torsions:
REMARK  status: ('A' for Active; 'I' for Inactive)
REMARK    1  A    between atoms: C2_2  and  C3_3
REMARK    2  A    between atoms: C2_2  and  N3_12
REMARK    3  A    between atoms: C3_3  and  C4_4
REMARK    4  A    between atoms: C5_5  and  C6_6
REMARK    5  A    between atoms: C6_6  and  N1_7
REMARK    6  A    between atoms: N1_7  and  N2_9
REMARK    7  A    between atoms: C9_18  and  C10_19
REMARK    8  A    between atoms: C14_26  and  C15_27
REMARK    9  A    between atoms: C15_27  and  C16_28
REMARK   10  A    between atoms: C20_35  and  C21_36
REMARK   11  A    between atoms: C21_36  and  C22_37
REMARK   12  A    between atoms: C25_42  and  O4_43
REMARK   13  A    between atoms: C30_52  and  C31_53
ROOT
HETATM    1  N3  UNL     1       6.730 -11.746  19.994  1.00  0.00    -0.363 N
HETATM    2  C7  UNL     1       5.326 -11.316  19.964  1.00  0.00     0.249 C
HETATM    3  N4  UNL     1       4.487 -12.246  19.235  1.00  0.00    -0.343 N
ATOM      4  H4  UNL     1       4.441 -13.201  19.591  1.00  0.00     0.164 HD
HETATM    5  C8  UNL     1       3.732 -11.962  18.090  1.00  0.00     0.242 C
HETATM    6  O1  UNL     1       3.732 -12.740  17.101  1.00  0.00    -0.271 OA
HETATM    7  C9  UNL     1       2.864 -10.734  17.914  1.00  0.00     0.180 C
HETATM    8  N5  UNL     1       3.202 -10.247  16.592  1.00  0.00    -0.346 N
ATOM      9  H5  UNL     1       3.152 -10.927  15.834  1.00  0.00     0.163 HD
HETATM   10  C13 UNL     1       3.592  -8.942  16.236  1.00  0.00     0.241 C
HETATM   11  O2  UNL     1       4.653  -8.854  15.539  1.00  0.00    -0.271 OA
HETATM   12  C14 UNL     1       2.930  -7.697  16.566  1.00  0.00     0.177 C
HETATM   13  N6  UNL     1       3.395  -6.924  17.670  1.00  0.00    -0.346 N
ATOM     14  H6  UNL     1       2.635  -6.482  18.188  1.00  0.00     0.163 HD
HETATM   15  C19 UNL     1       4.635  -6.635  18.201  1.00  0.00     0.241 C
HETATM   16  O3  UNL     1       4.817  -6.910  19.420  1.00  0.00    -0.271 OA
HETATM   17  C20 UNL     1       5.836  -6.012  17.497  1.00  0.00     0.176 C
HETATM   18  N7  UNL     1       6.975  -6.195  18.355  1.00  0.00    -0.356 N
ATOM     19  H7  UNL     1       6.823  -5.925  19.327  1.00  0.00     0.162 HD
HETATM   20  C25 UNL     1       8.248  -6.678  18.081  1.00  0.00     0.159 C
HETATM   21  C26 UNL     1       8.749  -7.609  17.105  1.00  0.00     0.059 C
HETATM   22  C27 UNL     1       9.723  -7.044  16.072  1.00  0.00     0.072 C
HETATM   23  N8  UNL     1       8.481  -8.880  17.041  1.00  0.00    -0.327 N
ATOM     24  H8  UNL     1       8.925  -9.390  16.277  1.00  0.00     0.168 HD
HETATM   25  C28 UNL     1       7.661  -9.635  17.885  1.00  0.00     0.224 C
HETATM   26  O5  UNL     1       6.952 -10.525  17.313  1.00  0.00    -0.273 OA
HETATM   27  C29 UNL     1       7.550  -9.497  19.330  1.00  0.00     0.128 C
HETATM   28  C30 UNL     1       7.740 -10.796  20.121  1.00  0.00     0.094 C
ENDROOT
BRANCH   1  29
HETATM   29  C2  UNL     1       6.924 -13.137  19.906  1.00  0.00     0.003 C
HETATM   30  C1  UNL     1       7.020 -13.903  20.994  1.00  0.00     0.038 C
BRANCH  29  31
HETATM   31  C3  UNL     1       7.009 -13.872  18.590  1.00  0.00     0.083 C
BRANCH  31  32
HETATM   32  C4  UNL     1       7.793 -15.088  18.668  1.00  0.00    -0.019 C
HETATM   33  C5  UNL     1       8.893 -15.396  18.102  1.00  0.00     0.015 C
BRANCH  33  34
HETATM   34  C6  UNL     1       9.825 -14.768  17.188  1.00  0.00     0.106 C
BRANCH  34  35
HETATM   35  N1  UNL     1      10.299 -13.458  17.395  1.00  0.00    -0.318 N
ATOM     36  H1  UNL     1      11.080 -13.194  17.996  1.00  0.00     0.185 HD
BRANCH  35  37
HETATM   37  N2  UNL     1       9.492 -12.554  16.614  1.00  0.00    -0.345 N
ATOM     38  H22 UNL     1       8.990 -11.748  16.986  1.00  0.00     0.176 HD
ATOM     39  H21 UNL     1       9.515 -12.860  15.641  1.00  0.00     0.176 HD
ENDBRANCH  35  37
ENDBRANCH  34  35
ENDBRANCH  33  34
ENDBRANCH  31  32
ENDBRANCH  29  31
ENDBRANCH   1  29
BRANCH  28  40
HETATM   40  C31 UNL     1       9.165 -11.178  19.963  1.00  0.00     0.021 C
HETATM   41  C32 UNL     1       9.951 -11.334  21.236  1.00  0.00     0.007 C
ENDBRANCH  28  40
BRANCH   7  42
HETATM   42  C10 UNL     1       1.455 -11.347  17.962  1.00  0.00     0.009 C
HETATM   43  C11 UNL     1       0.863 -11.642  16.644  1.00  0.00     0.012 C
HETATM   44  C12 UNL     1       0.586 -10.355  18.717  1.00  0.00     0.012 C
ENDBRANCH   7  42
BRANCH  20  45
HETATM   45  O4  UNL     1       9.181  -6.195  18.859  1.00  0.00    -0.345 OA
ATOM     46  H4  UNL     1       9.915  -6.783  18.996  1.00  0.00     0.219 HD
ENDBRANCH  20  45
BRANCH  12  47
HETATM   47  C15 UNL     1       2.921  -6.798  15.304  1.00  0.00     0.038 C
BRANCH  47  48
HETATM   48  C16 UNL     1       2.339  -5.453  15.597  1.00  0.00    -0.020 C
HETATM   49  C17 UNL     1       0.872  -5.489  15.162  1.00  0.00     0.009 C
HETATM   50  C18 UNL     1       2.987  -4.326  14.866  1.00  0.00     0.009 C
ENDBRANCH  47  48
ENDBRANCH  12  47
BRANCH  17  51
HETATM   51  C21 UNL     1       5.522  -4.602  17.147  1.00  0.00     0.038 C
BRANCH  51  52
HETATM   52  C22 UNL     1       6.525  -3.669  16.669  1.00  0.00    -0.020 C
HETATM   53  C23 UNL     1       6.106  -2.250  16.437  1.00  0.00     0.009 C
HETATM   54  C24 UNL     1       6.989  -4.185  15.283  1.00  0.00     0.009 C
ENDBRANCH  51  52
ENDBRANCH  17  51
TORSDOF 13
ENDMDL