MODEL 5
REMARK VINA RESULT: -8.917240081      3.296     10.695
REMARK  12 active torsions:
REMARK  status: ('A' for Active; 'I' for Inactive)
REMARK    1  A    between atoms: C6_6  and  N1_7
REMARK       I    between atoms: N1_7  and  C7_9
REMARK    2  A    between atoms: C13_18  and  C14_19
REMARK    3  A    between atoms: C14_19  and  C15_20
REMARK    4  A    between atoms: C15_20  and  C16_21
REMARK    5  A    between atoms: C16_21  and  C17_22
REMARK    6  A    between atoms: C17_22  and  N4_23
REMARK       I    between atoms: C18_25  and  N5_26
REMARK       I    between atoms: C18_25  and  N10_48
REMARK    7  A    between atoms: N5_26  and  C19_28
REMARK    8  A    between atoms: C19_28  and  C20_29
REMARK    9  A    between atoms: C20_29  and  N6_30
REMARK   10  A    between atoms: C23_33  and  N7_34
REMARK       I    between atoms: N7_34  and  C24_36
REMARK   11  A    between atoms: C24_36  and  C25_38
REMARK   12  A    between atoms: C25_38  and  N8_39
ROOT
HETATM    1  N4  UNL     1       6.514  -1.262  13.003  1.00  0.00    -0.226 N
ATOM      2  H4  UNL     1       7.258  -1.596  12.390  1.00  0.00     0.177 HD
HETATM    3  C18 UNL     1       6.670  -1.494  14.240  1.00  0.00     0.671 C
HETATM    4  N5  UNL     1       5.734  -1.100  15.243  1.00  0.00    -0.225 N
ATOM      5  H5  UNL     1       5.052  -0.372  15.028  1.00  0.00     0.177 HD
HETATM    6  N10 UNL     1       7.841  -2.188  14.667  1.00  0.00    -0.218 N
HETATM    7  C29 UNL     1       7.985  -3.623  14.629  1.00  0.00     0.141 C
HETATM    8  C30 UNL     1       8.996  -3.944  15.704  1.00  0.00     0.022 C
HETATM    9  C31 UNL     1       9.888  -2.716  15.701  1.00  0.00     0.022 C
HETATM   10  C32 UNL     1       9.023  -1.581  15.189  1.00  0.00     0.141 C
ENDROOT
BRANCH   1  11
HETATM   11  C17 UNL     1       5.426  -0.590  12.357  1.00  0.00     0.138 C
BRANCH  11  12
HETATM   12  C16 UNL     1       5.815   0.852  12.051  1.00  0.00     0.020 C
BRANCH  12  13
HETATM   13  C15 UNL     1       7.086   0.960  11.315  1.00  0.00     0.002 C
BRANCH  13  14
HETATM   14  C14 UNL     1       7.683   2.256  10.999  1.00  0.00     0.005 C
BRANCH  14  15
HETATM   15  C13 UNL     1       8.095   2.614   9.615  1.00  0.00    -0.007 C
HETATM   16  C8  UNL     1       6.967   2.396   8.629  1.00  0.00     0.014 C
HETATM   17  C6  UNL     1       5.969   3.493   8.526  1.00  0.00     0.091 C
HETATM   18  C9  UNL     1       7.421   1.813   7.312  1.00  0.00     0.033 C
HETATM   19  C5  UNL     1       5.380   3.592   7.112  1.00  0.00     0.040 C
HETATM   20  C4  UNL     1       6.246   4.299   6.140  1.00  0.00     0.089 C
HETATM   21  C2  UNL     1       7.137   3.371   5.343  1.00  0.00    -0.015 C
HETATM   22  C33 UNL     1       7.318   5.063   6.880  1.00  0.00     0.225 C
HETATM   23  C1  UNL     1       7.972   4.249   4.424  1.00  0.00     0.018 C
HETATM   24  C3  UNL     1       6.420   2.370   4.538  1.00  0.00     0.018 C
HETATM   25  C10 UNL     1       8.037   2.846   6.406  1.00  0.00     0.096 C
HETATM   26  N3  UNL     1       8.290   4.072   7.191  1.00  0.00    -0.346 N
HETATM   27  C11 UNL     1       9.355   4.214   8.113  1.00  0.00     0.127 C
HETATM   28  C12 UNL     1       8.872   3.842   9.509  1.00  0.00     0.025 C
HETATM   29  O3  UNL     1       7.356   6.278   7.161  1.00  0.00    -0.273 OA
BRANCH  17  30
HETATM   30  N1  UNL     1       4.793   3.264   9.361  1.00  0.00    -0.340 N
HETATM   31  C7  UNL     1       4.653   3.963  10.580  1.00  0.00     0.329 C
HETATM   32  N2  UNL     1       3.542   3.798  11.449  1.00  0.00    -0.040 NA
HETATM   33  O1  UNL     1       5.544   4.775  10.934  1.00  0.00    -0.251 OA
ATOM     34  H1  UNL     1       4.075   2.603   9.064  1.00  0.00     0.164 HD
ENDBRANCH  17  30
ENDBRANCH  14  15
ENDBRANCH  13  14
ENDBRANCH  12  13
ENDBRANCH  11  12
ENDBRANCH   1  11
BRANCH   4  35
HETATM   35  C19 UNL     1       5.729  -1.710  16.562  1.00  0.00     0.168 C
BRANCH  35  36
HETATM   36  C20 UNL     1       4.355  -2.232  16.917  1.00  0.00     0.285 C
BRANCH  36  37
HETATM   37  N6  UNL     1       4.309  -3.656  16.745  1.00  0.00     0.013 N
HETATM   38  C21 UNL     1       4.078  -4.064  15.372  1.00  0.00     0.268 C
HETATM   39  C22 UNL     1       3.965  -5.555  15.304  1.00  0.00     0.067 C
HETATM   40  C23 UNL     1       4.369  -6.171  16.634  1.00  0.00     0.069 C
HETATM   41  C26 UNL     1       5.618  -5.482  17.072  1.00  0.00     0.118 C
HETATM   42  C27 UNL     1       3.290  -5.723  17.621  1.00  0.00     0.067 C
HETATM   43  N9  UNL     1       5.552  -4.199  17.118  1.00  0.00    -0.229 N
ATOM     44  H9  UNL     1       6.340  -3.618  17.403  1.00  0.00     0.192 HD
HETATM   45  C28 UNL     1       3.230  -4.208  17.534  1.00  0.00     0.268 C
BRANCH  40  46
HETATM   46  N7  UNL     1       4.512  -7.589  16.554  1.00  0.00    -0.346 N
HETATM   47  C24 UNL     1       4.874  -8.425  17.631  1.00  0.00     0.244 C
HETATM   48  O2  UNL     1       5.101  -7.948  18.770  1.00  0.00    -0.272 OA
ATOM     49  H7  UNL     1       4.339  -8.030  15.650  1.00  0.00     0.163 HD
BRANCH  47  50
HETATM   50  C25 UNL     1       4.991  -9.903  17.424  1.00  0.00     0.332 C
BRANCH  50  51
HETATM   51  N8  UNL     1       6.082 -10.193  16.509  1.00  0.00    -0.071 N
ATOM     52  H83 UNL     1       6.010  -9.655  15.646  1.00  0.00     0.274 HD
ATOM     53  H82 UNL     1       6.970  -9.820  16.844  1.00  0.00     0.274 HD
ATOM     54  H81 UNL     1       6.132 -11.196  16.331  1.00  0.00     0.274 HD
ENDBRANCH  50  51
ENDBRANCH  47  50
ENDBRANCH  40  46
ENDBRANCH  36  37
ENDBRANCH  35  36
ENDBRANCH   4  35
TORSDOF 12
ENDMDL