MODEL 2
REMARK VINA RESULT: -9.828368819      0.828      1.001
REMARK  14 active torsions:
REMARK  status: ('A' for Active; 'I' for Inactive)
REMARK    1  A    between atoms: C2_2  and  C3_3
REMARK    2  A    between atoms: C3_3  and  N1_5
REMARK    3  A    between atoms: C3_3  and  C8_15
REMARK       I    between atoms: N1_5  and  C5_7
REMARK    4  A    between atoms: C5_7  and  C6_9
REMARK    5  A    between atoms: C6_9  and  C7_10
REMARK    6  A    between atoms: C7_10  and  S1_11
REMARK    7  A    between atoms: N2_18  and  C11_19
REMARK    8  A    between atoms: C15_23  and  C16_24
REMARK    9  A    between atoms: C16_24  and  N3_25
REMARK   10  A    between atoms: C16_24  and  C24_35
REMARK       I    between atoms: N3_25  and  C17_27
REMARK   11  A    between atoms: C17_27  and  C18_29
REMARK   12  A    between atoms: C24_35  and  O6_36
REMARK   13  A    between atoms: C24_35  and  N4_38
REMARK       I    between atoms: N4_38  and  C25_40
REMARK       I    between atoms: C25_40  and  N6_42
REMARK   14  A    between atoms: N6_42  and  C26_44
ROOT
HETATM    1  C11 UNL     1       4.127  -5.168  15.663  1.00  0.00     0.200 C
HETATM    2  C12 UNL     1       3.221  -6.205  15.072  1.00  0.00     0.034 C
HETATM    3  C13 UNL     1       2.488  -6.861  16.216  1.00  0.00     0.003 C
HETATM    4  C14 UNL     1       3.148  -6.316  17.492  1.00  0.00     0.013 C
HETATM    5  C15 UNL     1       4.454  -5.780  17.052  1.00  0.00     0.071 C
ENDROOT
BRANCH   5   6
HETATM    6  C16 UNL     1       5.622  -6.657  16.946  1.00  0.00     0.069 C
BRANCH   6   7
HETATM    7  N3  UNL     1       6.745  -5.934  16.291  1.00  0.00    -0.326 N
HETATM    8  C17 UNL     1       7.574  -5.042  16.972  1.00  0.00     0.226 C
HETATM    9  O5  UNL     1       7.354  -4.853  18.229  1.00  0.00    -0.273 OA
ATOM     10  H3  UNL     1       6.917  -6.098  15.299  1.00  0.00     0.168 HD
BRANCH   8  11
HETATM   11  C18 UNL     1       8.685  -4.295  16.348  1.00  0.00     0.078 C
HETATM   12  C19 UNL     1       9.535  -5.091  15.430  1.00  0.00     0.014 C
HETATM   13  C20 UNL     1      10.308  -4.225  14.452  1.00  0.00     0.001 C
HETATM   14  C21 UNL     1      10.486  -2.825  14.971  1.00  0.00     0.000 C
HETATM   15  C22 UNL     1       9.165  -2.149  15.123  1.00  0.00     0.001 C
HETATM   16  C23 UNL     1       8.104  -3.049  15.700  1.00  0.00     0.014 C
ENDBRANCH   8  11
ENDBRANCH   6   7
BRANCH   6  17
HETATM   17  C24 UNL     1       6.142  -7.555  17.915  1.00  0.00     0.166 C
BRANCH  17  18
HETATM   18  O6  UNL     1       5.897  -7.297  19.165  1.00  0.00    -0.345 OA
ATOM     19  H6  UNL     1       5.234  -6.644  19.357  1.00  0.00     0.219 HD
ENDBRANCH  17  18
BRANCH  17  20
HETATM   20  N4  UNL     1       6.925  -8.743  17.781  1.00  0.00    -0.309 N
HETATM   21  C25 UNL     1       6.452  -9.873  17.133  1.00  0.00     0.196 C
HETATM   22  N5  UNL     1       8.107 -10.488  16.950  1.00  0.00    -0.063 NA
HETATM   23  N6  UNL     1       6.061 -10.811  16.595  1.00  0.00    -0.310 N
ATOM     24  H6  UNL     1       6.871 -11.431  16.588  1.00  0.00     0.170 HD
ATOM     25  H4  UNL     1       7.865  -8.759  18.176  1.00  0.00     0.170 HD
BRANCH  23  26
HETATM   26  C26 UNL     1       5.108 -11.536  15.967  1.00  0.00     0.187 C
HETATM   27  N7  UNL     1       4.410 -10.946  14.815  1.00  0.00    -0.070 NA
HETATM   28  S2  UNL     1       4.605 -13.076  16.332  1.00  0.00    -0.044 SA
ENDBRANCH  23  26
ENDBRANCH  17  20
ENDBRANCH   6  17
ENDBRANCH   5   6
BRANCH   1  29
HETATM   29  N2  UNL     1       3.766  -3.843  15.579  1.00  0.00    -0.061 N
HETATM   30  C10 UNL     1       2.486  -3.389  15.182  1.00  0.00     0.239 C
HETATM   31  C9  UNL     1       2.701  -1.859  14.993  1.00  0.00     0.042 C
HETATM   32  C8  UNL     1       4.185  -1.786  14.801  1.00  0.00     0.016 C
HETATM   33  C28 UNL     1       4.774  -1.729  16.194  1.00  0.00     0.042 C
HETATM   34  C29 UNL     1       4.562  -3.218  14.485  1.00  0.00     0.250 C
HETATM   35  C27 UNL     1       4.154  -3.035  16.730  1.00  0.00     0.239 C
BRANCH  32  36
HETATM   36  C3  UNL     1       4.661  -0.810  13.811  1.00  0.00     0.056 C
HETATM   37  C4  UNL     1       5.622  -1.451  12.842  1.00  0.00     0.044 C
BRANCH  36  38
HETATM   38  C2  UNL     1       5.333   0.368  14.423  1.00  0.00    -0.006 C
HETATM   39  C1  UNL     1       6.589   0.667  14.168  1.00  0.00     0.009 C
ENDBRANCH  36  38
BRANCH  36  40
HETATM   40  N1  UNL     1       3.514  -0.386  13.015  1.00  0.00    -0.348 N
HETATM   41  C5  UNL     1       3.628   0.326  11.783  1.00  0.00     0.219 C
HETATM   42  O1  UNL     1       4.772   0.593  11.395  1.00  0.00    -0.274 OA
ATOM     43  H1  UNL     1       2.580  -0.610  13.357  1.00  0.00     0.163 HD
BRANCH  41  44
HETATM   44  C6  UNL     1       2.404   0.675  11.084  1.00  0.00     0.120 C
BRANCH  44  45
HETATM   45  C7  UNL     1       1.265   1.129  11.903  1.00  0.00     0.174 C
BRANCH  45  46
HETATM   46  S1  UNL     1       0.279   2.351  11.103  1.00  0.00     0.102 S
HETATM   47  O2  UNL     1      -1.174   2.249  11.317  1.00  0.00    -0.595 OA
HETATM   48  O3  UNL     1       0.707   3.724  11.600  1.00  0.00    -0.595 OA
HETATM   49  O4  UNL     1       0.656   2.341   9.455  1.00  0.00    -0.595 OA
ENDBRANCH  45  46
ENDBRANCH  44  45
ENDBRANCH  41  44
ENDBRANCH  36  40
ENDBRANCH  32  36
ENDBRANCH   1  29
TORSDOF 14
ENDMDL