MODEL 5
REMARK VINA RESULT: -8.095441730      5.408      9.464
REMARK  12 active torsions:
REMARK  status: ('A' for Active; 'I' for Inactive)
REMARK    1  A    between atoms: N1_2  and  C3_4
REMARK    2  A    between atoms: C5_9  and  C6_10
REMARK    3  A    between atoms: C6_10  and  C7_11
REMARK    4  A    between atoms: C7_11  and  C8_12
REMARK    5  A    between atoms: C11_18  and  C13_20
REMARK    6  A    between atoms: C13_20  and  C14_21
REMARK    7  A    between atoms: C22_31  and  O3_32
REMARK    8  A    between atoms: C23_36  and  C24_37
REMARK    9  A    between atoms: C24_37  and  C25_38
REMARK   10  A    between atoms: C25_38  and  C26_39
REMARK   11  A    between atoms: C26_39  and  N6_40
REMARK   12  A    between atoms: C33_53  and  O5_54
ROOT
HETATM    1  C14 UNL     1       4.924  -5.411  17.324  1.00  0.00    -0.038 A
HETATM    2  C15 UNL     1       3.731  -5.041  17.909  1.00  0.00     0.013 A
HETATM    3  C16 UNL     1       2.849  -6.017  18.285  1.00  0.00     0.031 A
HETATM    4  C17 UNL     1       3.115  -7.371  18.097  1.00  0.00     0.044 A
HETATM    5  N4  UNL     1       2.436  -8.488  18.382  1.00  0.00    -0.352 N
ATOM      6  H4  UNL     1       1.516  -8.511  18.823  1.00  0.00     0.166 HD
HETATM    7  C18 UNL     1       3.146  -9.596  18.002  1.00  0.00     0.081 A
HETATM    8  C19 UNL     1       4.324  -9.180  17.451  1.00  0.00     0.056 A
HETATM    9  C20 UNL     1       4.271  -7.761  17.529  1.00  0.00     0.008 A
HETATM   10  C21 UNL     1       5.151  -6.749  17.156  1.00  0.00     0.026 A
HETATM   11  C22 UNL     1       5.415  -9.964  16.892  1.00  0.00     0.150 C
HETATM   12  N5  UNL     1       5.533 -11.003  16.016  1.00  0.00    -0.360 N
ATOM     13  H5  UNL     1       6.422 -11.495  16.096  1.00  0.00     0.162 HD
HETATM   14  C23 UNL     1       4.644 -11.572  14.969  1.00  0.00     0.129 C
HETATM   15  C28 UNL     1       3.997 -12.776  15.571  1.00  0.00     0.008 C
HETATM   16  C29 UNL     1       2.944 -13.496  14.785  1.00  0.00     0.065 C
HETATM   17  N9  UNL     1       4.269 -13.241  16.696  1.00  0.00    -0.333 N
ATOM     18  H9  UNL     1       3.675 -14.058  16.836  1.00  0.00     0.168 HD
HETATM   19  C30 UNL     1       5.029 -13.104  17.806  1.00  0.00     0.225 C
HETATM   20  O4  UNL     1       6.210 -13.573  17.954  1.00  0.00    -0.273 OA
HETATM   21  C31 UNL     1       4.574 -12.366  19.059  1.00  0.00     0.133 C
HETATM   22  C32 UNL     1       3.148 -12.112  18.885  1.00  0.00     0.021 C
HETATM   23  C33 UNL     1       2.647 -10.948  18.196  1.00  0.00     0.090 C
ENDROOT
BRANCH   1  24
HETATM   24  C13 UNL     1       5.910  -4.432  16.965  1.00  0.00     0.007 C
BRANCH  24  25
HETATM   25  C11 UNL     1       5.739  -3.442  15.886  1.00  0.00     0.094 C
HETATM   26  C3  UNL     1       4.901  -3.738  14.742  1.00  0.00     0.206 C
HETATM   27  N2  UNL     1       5.075  -3.000  13.530  1.00  0.00    -0.337 N
HETATM   28  C4  UNL     1       5.748  -1.829  13.198  1.00  0.00     0.242 C
ATOM     29  H2  UNL     1       4.601  -3.426  12.734  1.00  0.00     0.164 HD
HETATM   30  O1  UNL     1       5.119  -0.992  12.469  1.00  0.00    -0.271 OA
HETATM   31  C5  UNL     1       7.082  -1.431  13.574  1.00  0.00     0.176 C
HETATM   32  N3  UNL     1       7.702  -2.264  14.576  1.00  0.00    -0.347 N
HETATM   33  C10 UNL     1       7.151  -3.268  15.337  1.00  0.00     0.234 C
ATOM     34  H3  UNL     1       8.691  -2.082  14.744  1.00  0.00     0.163 HD
HETATM   35  O2  UNL     1       7.988  -4.199  15.617  1.00  0.00    -0.272 OA
HETATM   36  C12 UNL     1       5.443  -2.108  16.567  1.00  0.00     0.034 C
BRANCH  26  37
HETATM   37  N1  UNL     1       3.479  -3.822  14.883  1.00  0.00    -0.381 N
HETATM   38  C1  UNL     1       2.881  -4.922  14.630  1.00  0.00     0.116 C
HETATM   39  C2  UNL     1       2.639  -2.722  15.239  1.00  0.00     0.150 C
ENDBRANCH  26  37
BRANCH  31  40
HETATM   40  C6  UNL     1       7.327   0.002  13.928  1.00  0.00     0.035 C
BRANCH  40  41
HETATM   41  C7  UNL     1       8.463   0.681  13.249  1.00  0.00     0.002 C
BRANCH  41  42
HETATM   42  C8  UNL     1       7.994   1.633  12.152  1.00  0.00    -0.004 C
HETATM   43  C9  UNL     1       8.147   0.842  10.846  1.00  0.00     0.005 C
ENDBRANCH  41  42
ENDBRANCH  40  41
ENDBRANCH  31  40
ENDBRANCH  24  25
ENDBRANCH   1  24
BRANCH  11  44
HETATM   44  O3  UNL     1       6.591  -9.572  17.351  1.00  0.00    -0.346 OA
ATOM     45  H3  UNL     1       7.140  -9.216  16.662  1.00  0.00     0.219 HD
ENDBRANCH  11  44
BRANCH  23  46
HETATM   46  O5  UNL     1       1.491 -11.159  17.623  1.00  0.00    -0.359 OA
ATOM     47  H5  UNL     1       0.860 -10.467  17.787  1.00  0.00     0.217 HD
ENDBRANCH  23  46
BRANCH  14  48
HETATM   48  C24 UNL     1       3.823 -10.559  14.323  1.00  0.00     0.033 C
BRANCH  48  49
HETATM   49  C25 UNL     1       3.827 -10.310  12.877  1.00  0.00     0.022 C
BRANCH  49  50
HETATM   50  C26 UNL     1       2.992 -11.247  12.027  1.00  0.00     0.122 C
BRANCH  50  51
HETATM   51  N6  UNL     1       2.745 -10.629  10.748  1.00  0.00    -0.367 N
HETATM   52  C27 UNL     1       1.760 -10.816   9.968  1.00  0.00     0.196 C
HETATM   53  N7  UNL     1       1.706 -10.099   8.746  1.00  0.00    -0.067 NA
HETATM   54  N8  UNL     1       0.711 -11.715  10.266  1.00  0.00    -0.067 NA
ATOM     55  H6  UNL     1       3.447  -9.960  10.432  1.00  0.00     0.161 HD
ENDBRANCH  50  51
ENDBRANCH  49  50
ENDBRANCH  48  49
ENDBRANCH  14  48
TORSDOF 12
ENDMDL