MODEL 3
REMARK VINA RESULT: -7.573297006      3.002      9.415
REMARK  17 active torsions:
REMARK  status: ('A' for Active; 'I' for Inactive)
REMARK    1  A    between atoms: C2_2  and  C3_3
REMARK    2  A    between atoms: C3_3  and  C4_4
REMARK    3  A    between atoms: C4_4  and  C5_5
REMARK    4  A    between atoms: C11_11  and  O1_12
REMARK    5  A    between atoms: N1_15  and  C13_16
REMARK    6  A    between atoms: C13_16  and  C14_17
REMARK    7  A    between atoms: C14_17  and  N2_18
REMARK    8  A    between atoms: C15_22  and  O2_23
REMARK    9  A    between atoms: C16_25  and  C17_26
REMARK   10  A    between atoms: C17_26  and  C18_27
REMARK   11  A    between atoms: C18_27  and  C19_28
REMARK   12  A    between atoms: C19_28  and  C20_29
REMARK   13  A    between atoms: C20_29  and  N3_30
REMARK       I    between atoms: N3_30  and  C21_32
REMARK       I    between atoms: N5_34  and  C22_36
REMARK   14  A    between atoms: C25_41  and  O4_42
REMARK   15  A    between atoms: C26_44  and  C27_45
REMARK   16  A    between atoms: C27_45  and  C28_46
REMARK   17  A    between atoms: C31_51  and  O5_52
ROOT
HETATM    1  C5  UNL     1       8.688  -1.850  14.959  1.00  0.00     0.001 A
HETATM    2  C6  UNL     1       7.510  -2.044  15.664  1.00  0.00    -0.043 A
HETATM    3  C7  UNL     1       7.224  -3.196  16.393  1.00  0.00     0.021 A
HETATM    4  C8  UNL     1       8.127  -4.235  16.420  1.00  0.00    -0.011 A
HETATM    5  C9  UNL     1       9.333  -4.043  15.683  1.00  0.00    -0.016 A
HETATM    6  C10 UNL     1      10.393  -5.133  15.663  1.00  0.00     0.052 C
HETATM    7  C11 UNL     1       9.647  -2.930  14.976  1.00  0.00     0.083 A
HETATM    8  C12 UNL     1       8.097  -5.428  16.985  1.00  0.00     0.105 C
HETATM    9  N1  UNL     1       7.120  -6.136  17.804  1.00  0.00    -0.337 N
HETATM   10  C15 UNL     1       5.770  -5.806  17.959  1.00  0.00     0.141 C
HETATM   11  C16 UNL     1       4.646  -5.695  16.965  1.00  0.00     0.160 C
HETATM   12  N6  UNL     1       3.629  -4.802  17.558  1.00  0.00    -0.352 N
HETATM   13  C24 UNL     1       2.931  -5.461  18.698  1.00  0.00     0.152 C
HETATM   14  C25 UNL     1       3.287  -3.487  17.226  1.00  0.00     0.161 C
HETATM   15  C26 UNL     1       2.611  -2.763  16.162  1.00  0.00     0.062 C
HETATM   16  N7  UNL     1       3.235  -1.934  15.219  1.00  0.00    -0.340 N
ATOM     17  H7  UNL     1       2.796  -1.015  15.276  1.00  0.00     0.167 HD
HETATM   18  C31 UNL     1       4.209  -1.873  14.245  1.00  0.00     0.124 C
HETATM   19  C32 UNL     1       5.633  -1.588  14.082  1.00  0.00     0.021 C
HETATM   20  C33 UNL     1       6.239  -2.827  13.439  1.00  0.00     0.024 C
HETATM   21  C34 UNL     1       5.715  -0.567  12.899  1.00  0.00     0.024 C
HETATM   22  C35 UNL     1       6.443  -1.055  15.231  1.00  0.00     0.056 C
ENDROOT
BRANCH  11  23
HETATM   23  C17 UNL     1       3.952  -6.943  16.599  1.00  0.00     0.034 C
BRANCH  23  24
HETATM   24  C18 UNL     1       4.482  -8.231  17.146  1.00  0.00     0.004 C
BRANCH  24  25
HETATM   25  C19 UNL     1       3.926  -9.359  16.301  1.00  0.00     0.020 C
BRANCH  25  26
HETATM   26  C20 UNL     1       4.876 -10.471  16.036  1.00  0.00     0.122 C
BRANCH  26  27
HETATM   27  N3  UNL     1       6.170 -10.167  16.615  1.00  0.00    -0.364 N
HETATM   28  C21 UNL     1       7.158 -11.153  16.875  1.00  0.00     0.190 C
HETATM   29  N4  UNL     1       8.536 -10.847  16.988  1.00  0.00    -0.063 NA
HETATM   30  N5  UNL     1       6.763 -12.378  17.010  1.00  0.00    -0.302 N
HETATM   31  C22 UNL     1       7.679 -13.431  17.270  1.00  0.00     0.220 C
ATOM     32  H5  UNL     1       5.770 -12.592  16.926  1.00  0.00     0.171 HD
HETATM   33  C23 UNL     1       7.398 -14.777  16.720  1.00  0.00     0.117 C
HETATM   34  O3  UNL     1       8.714 -13.242  17.953  1.00  0.00    -0.274 OA
ATOM     35  H3  UNL     1       6.382  -9.197  16.848  1.00  0.00     0.162 HD
ENDBRANCH  26  27
ENDBRANCH  25  26
ENDBRANCH  24  25
ENDBRANCH  23  24
ENDBRANCH  11  23
BRANCH  10  36
HETATM   36  O2  UNL     1       5.424  -5.543  19.192  1.00  0.00    -0.348 OA
ATOM     37  H2  UNL     1       5.039  -6.280  19.652  1.00  0.00     0.219 HD
ENDBRANCH  10  36
BRANCH   9  38
HETATM   38  C13 UNL     1       7.621  -7.276  18.605  1.00  0.00     0.157 C
BRANCH  38  39
HETATM   39  C14 UNL     1       9.090  -7.344  18.755  1.00  0.00     0.249 C
BRANCH  39  40
HETATM   40  N2  UNL     1       9.833  -8.305  18.050  1.00  0.00    -0.078 N
ATOM     41  H23 UNL     1       9.621  -8.208  17.056  1.00  0.00     0.274 HD
ATOM     42  H22 UNL     1      10.816  -8.035  18.078  1.00  0.00     0.274 HD
ATOM     43  H21 UNL     1       9.764  -9.293  18.296  1.00  0.00     0.274 HD
ENDBRANCH  39  40
ENDBRANCH  38  39
ENDBRANCH   9  38
BRANCH  14  44
HETATM   44  O4  UNL     1       3.703  -2.663  18.178  1.00  0.00    -0.345 OA
ATOM     45  H4  UNL     1       4.381  -3.084  18.692  1.00  0.00     0.219 HD
ENDBRANCH  14  44
BRANCH  15  46
HETATM   46  C27 UNL     1       1.458  -3.601  15.559  1.00  0.00     0.065 C
BRANCH  46  47
HETATM   47  C28 UNL     1       1.742  -5.035  15.384  1.00  0.00    -0.017 C
HETATM   48  C29 UNL     1       2.551  -5.353  14.143  1.00  0.00     0.010 C
HETATM   49  C30 UNL     1       0.354  -5.683  15.107  1.00  0.00     0.010 C
ENDBRANCH  46  47
ENDBRANCH  15  46
BRANCH  18  50
HETATM   50  O5  UNL     1       3.782  -2.158  12.996  1.00  0.00    -0.349 OA
ATOM     51  H5  UNL     1       4.282  -1.748  12.300  1.00  0.00     0.219 HD
ENDBRANCH  18  50
BRANCH   7  52
HETATM   52  O1  UNL     1      10.814  -2.790  14.288  1.00  0.00    -0.359 OA
ATOM     53  H1  UNL     1      11.412  -3.527  14.237  1.00  0.00     0.217 HD
ENDBRANCH   7  52
BRANCH   1  54
HETATM   54  C4  UNL     1       9.236  -0.775  14.469  1.00  0.00    -0.008 C
BRANCH  54  55
HETATM   55  C3  UNL     1       9.108   0.076  13.300  1.00  0.00     0.054 C
BRANCH  55  56
HETATM   56  C2  UNL     1       8.711   1.496  13.717  1.00  0.00    -0.033 C
HETATM   57  C1  UNL     1       8.008   2.275  12.933  1.00  0.00     0.007 C
ENDBRANCH  55  56
ENDBRANCH  54  55
ENDBRANCH   1  54
TORSDOF 17
ENDMDL