MODEL 5
REMARK VINA RESULT: -9.916385164      2.448      8.846
REMARK  13 active torsions:
REMARK  status: ('A' for Active; 'I' for Inactive)
REMARK    1  A    between atoms: C2_2  and  C3_3
REMARK    2  A    between atoms: C3_3  and  N1_4
REMARK       I    between atoms: N1_4  and  C4_6
REMARK    3  A    between atoms: C4_6  and  C5_8
REMARK    4  A    between atoms: C8_11  and  C9_12
REMARK       I    between atoms: C9_12  and  N2_14
REMARK    5  A    between atoms: N3_17  and  C11_18
REMARK    6  A    between atoms: C11_18  and  O3_19
REMARK    7  A    between atoms: C11_18  and  C12_21
REMARK    8  A    between atoms: C12_21  and  C14_23
REMARK    9  A    between atoms: C12_21  and  C22_41
REMARK   10  A    between atoms: C14_23  and  N4_24
REMARK       I    between atoms: N4_24  and  C15_26
REMARK       I    between atoms: C15_26  and  N5_28
REMARK   11  A    between atoms: C19_32  and  N6_33
REMARK       I    between atoms: N6_33  and  C20_35
REMARK   12  A    between atoms: C22_41  and  N9_42
REMARK       I    between atoms: N9_42  and  C23_44
REMARK   13  A    between atoms: C23_44  and  C24_46
ROOT
HETATM    1  C12 UNL     1       6.322   0.383  13.288  1.00  0.00     0.053 C
HETATM    2  C13 UNL     1       6.221  -0.897  12.533  1.00  0.00     0.027 C
ENDROOT
BRANCH   1   3
HETATM    3  C11 UNL     1       6.440   1.616  12.580  1.00  0.00     0.127 C
BRANCH   3   4
HETATM    4  N3  UNL     1       5.803   2.151  11.398  1.00  0.00    -0.338 N
HETATM    5  C5  UNL     1       4.470   2.745  11.539  1.00  0.00     0.179 C
HETATM    6  C6  UNL     1       4.354   3.735  10.440  1.00  0.00     0.037 C
HETATM    7  C7  UNL     1       5.193   3.126   9.364  1.00  0.00     0.037 C
HETATM    8  C8  UNL     1       6.197   2.198  10.046  1.00  0.00     0.179 C
BRANCH   5   9
HETATM    9  C4  UNL     1       3.360   1.789  11.428  1.00  0.00     0.240 C
HETATM   10  N1  UNL     1       1.983   2.067  11.619  1.00  0.00    -0.356 N
ATOM     11  H1  UNL     1       1.714   3.020  11.863  1.00  0.00     0.162 HD
HETATM   12  O1  UNL     1       3.635   0.573  11.134  1.00  0.00    -0.271 OA
BRANCH  10  13
HETATM   13  C3  UNL     1       0.946   1.082  11.488  1.00  0.00     0.149 C
BRANCH  13  14
HETATM   14  C2  UNL     1       0.001   0.972  12.601  1.00  0.00    -0.018 C
HETATM   15  C1  UNL     1      -0.130  -0.079  13.362  1.00  0.00     0.008 C
ENDBRANCH  13  14
ENDBRANCH  10  13
ENDBRANCH   5   9
BRANCH   8  16
HETATM   16  C9  UNL     1       7.561   2.716   9.740  1.00  0.00     0.240 C
HETATM   17  O2  UNL     1       8.558   2.151  10.184  1.00  0.00    -0.271 OA
HETATM   18  N2  UNL     1       7.670   3.853   8.928  1.00  0.00    -0.364 N
HETATM   19  C10 UNL     1       9.016   4.358   8.624  1.00  0.00     0.149 C
ATOM     20  H2  UNL     1       6.840   4.317   8.560  1.00  0.00     0.161 HD
ENDBRANCH   8  16
ENDBRANCH   3   4
BRANCH   3  21
HETATM   21  O3  UNL     1       7.290   2.468  13.078  1.00  0.00    -0.349 OA
ATOM     22  H3  UNL     1       8.171   2.289  12.769  1.00  0.00     0.219 HD
ENDBRANCH   3  21
ENDBRANCH   1   3
BRANCH   1  23
HETATM   23  C14 UNL     1       7.593   0.218  14.172  1.00  0.00     0.143 C
BRANCH  23  24
HETATM   24  N4  UNL     1       7.525  -0.990  14.972  1.00  0.00    -0.342 N
HETATM   25  C15 UNL     1       8.643  -1.831  15.000  1.00  0.00     0.318 C
HETATM   26  O4  UNL     1       9.667  -1.504  14.318  1.00  0.00    -0.247 OA
HETATM   27  N5  UNL     1       8.719  -3.027  15.735  1.00  0.00    -0.332 N
HETATM   28  C16 UNL     1       7.633  -3.501  16.567  1.00  0.00     0.127 C
HETATM   29  C21 UNL     1       9.913  -3.874  15.716  1.00  0.00     0.152 C
HETATM   30  C17 UNL     1       7.294  -4.909  16.206  1.00  0.00     0.022 C
HETATM   31  C18 UNL     1       8.050  -5.355  14.996  1.00  0.00     0.028 C
HETATM   32  C19 UNL     1       9.558  -5.261  15.193  1.00  0.00     0.102 C
ATOM     33  H4  UNL     1       6.684  -1.220  15.502  1.00  0.00     0.164 HD
BRANCH  32  34
HETATM   34  N6  UNL     1      10.064  -6.276  16.076  1.00  0.00    -0.359 N
HETATM   35  C20 UNL     1      10.638  -5.971  17.325  1.00  0.00     0.182 C
HETATM   36  N7  UNL     1      11.930  -6.052  17.479  1.00  0.00    -0.374 N
HETATM   37  N8  UNL     1       9.881  -5.574  18.456  1.00  0.00    -0.064 NA
ATOM     38  H72 UNL     1      12.475  -6.337  16.666  1.00  0.00     0.158 HD
ATOM     39  H71 UNL     1      12.346  -5.831  18.384  1.00  0.00     0.158 HD
ATOM     40  H6  UNL     1      10.004  -7.252  15.787  1.00  0.00     0.162 HD
ENDBRANCH  32  34
ENDBRANCH  23  24
ENDBRANCH   1  23
BRANCH   1  41
HETATM   41  C22 UNL     1       5.209   0.402  14.362  1.00  0.00     0.142 C
BRANCH  41  42
HETATM   42  N9  UNL     1       4.494  -0.845  14.369  1.00  0.00    -0.359 N
HETATM   43  C23 UNL     1       4.476  -1.609  15.563  1.00  0.00     0.226 C
HETATM   44  O5  UNL     1       5.077  -1.193  16.610  1.00  0.00    -0.273 OA
ATOM     45  H9  UNL     1       4.009  -1.174  13.534  1.00  0.00     0.162 HD
BRANCH  43  46
HETATM   46  C24 UNL     1       3.779  -2.913  15.671  1.00  0.00     0.042 C
HETATM   47  C25 UNL     1       4.348  -3.949  14.755  1.00  0.00     0.024 C
HETATM   48  C26 UNL     1       3.695  -5.265  15.003  1.00  0.00    -0.013 C
HETATM   49  C27 UNL     1       2.209  -5.136  14.675  1.00  0.00     0.009 C
HETATM   50  C31 UNL     1       3.765  -5.707  16.436  1.00  0.00     0.009 C
HETATM   51  C28 UNL     1       1.605  -4.081  15.557  1.00  0.00    -0.013 C
HETATM   52  C29 UNL     1       1.719  -4.513  17.000  1.00  0.00     0.009 C
HETATM   53  C33 UNL     1       2.315  -2.760  15.404  1.00  0.00     0.024 C
HETATM   54  C30 UNL     1       3.184  -4.644  17.347  1.00  0.00    -0.013 C
HETATM   55  C32 UNL     1       3.947  -3.387  17.124  1.00  0.00     0.024 C
ENDBRANCH  43  46
ENDBRANCH  41  42
ENDBRANCH   1  41
TORSDOF 13
ENDMDL