MODEL 3
REMARK VINA RESULT: -8.411428107      2.771     10.645
REMARK  12 active torsions:
REMARK  status: ('A' for Active; 'I' for Inactive)
REMARK    1  A    between atoms: C9_10  and  N2_11
REMARK       I    between atoms: N2_11  and  C10_13
REMARK    2  A    between atoms: C10_13  and  C11_15
REMARK    3  A    between atoms: C11_15  and  C12_16
REMARK    4  A    between atoms: C11_15  and  N6_24
REMARK    5  A    between atoms: C12_16  and  C13_17
REMARK    6  A    between atoms: C13_17  and  C14_18
REMARK    7  A    between atoms: C14_18  and  N3_19
REMARK       I    between atoms: N6_24  and  C16_26
REMARK    8  A    between atoms: C16_26  and  C17_28
REMARK    9  A    between atoms: C17_28  and  N7_29
REMARK   10  A    between atoms: C17_28  and  C18_33
REMARK       I    between atoms: C18_33  and  N8_35
REMARK   11  A    between atoms: C22_39  and  C23_40
REMARK   12  A    between atoms: C24_43  and  C25_44
ROOT
HETATM    1  C11 UNL     1       6.510  -2.936  14.375  1.00  0.00     0.176 C
ENDROOT
BRANCH   1   2
HETATM    2  C10 UNL     1       6.313  -1.466  14.409  1.00  0.00     0.240 C
HETATM    3  N2  UNL     1       6.990  -0.598  13.502  1.00  0.00    -0.352 N
ATOM      4  H2  UNL     1       7.620  -1.013  12.816  1.00  0.00     0.163 HD
HETATM    5  O1  UNL     1       5.543  -0.915  15.237  1.00  0.00    -0.271 OA
BRANCH   3   6
HETATM    6  C9  UNL     1       6.833   0.827  13.502  1.00  0.00     0.121 C
HETATM    7  C8  UNL     1       8.078   1.589  13.870  1.00  0.00     0.055 C
HETATM    8  C7  UNL     1       8.003   2.778  12.944  1.00  0.00     0.241 C
HETATM    9  N1  UNL     1       7.347   2.270  11.746  1.00  0.00    -0.054 N
HETATM   10  C2  UNL     1       7.084   3.338  10.879  1.00  0.00     0.187 C
HETATM   11  C6  UNL     1       8.412   1.482  11.088  1.00  0.00     0.239 C
HETATM   12  C24 UNL     1       6.356   1.384  12.157  1.00  0.00     0.236 C
HETATM   13  C1  UNL     1       6.124   4.398  11.315  1.00  0.00     0.040 C
HETATM   14  C3  UNL     1       6.751   2.994   9.451  1.00  0.00     0.033 C
HETATM   15  C4  UNL     1       6.926   1.578   9.057  1.00  0.00     0.004 C
HETATM   16  C5  UNL     1       7.944   0.814   9.842  1.00  0.00     0.028 C
BRANCH  12  17
HETATM   17  C25 UNL     1       5.006   1.877  12.375  1.00  0.00     0.011 C
HETATM   18  C26 UNL     1       3.906   1.155  12.229  1.00  0.00    -0.081 C
HETATM   19  C27 UNL     1       3.692  -0.252  11.832  1.00  0.00     0.034 C
HETATM   20  C32 UNL     1       2.496   1.651  12.450  1.00  0.00     0.042 C
HETATM   21  C28 UNL     1       2.673  -0.044  10.702  1.00  0.00     0.013 C
HETATM   22  C29 UNL     1       1.813   1.108  11.209  1.00  0.00    -0.044 C
HETATM   23  C30 UNL     1       0.421   0.600  11.508  1.00  0.00     0.015 C
HETATM   24  C31 UNL     1       1.732   2.225  10.203  1.00  0.00     0.015 C
ENDBRANCH  12  17
ENDBRANCH   3   6
ENDBRANCH   1   2
BRANCH   1  25
HETATM   25  C12 UNL     1       8.018  -3.148  14.320  1.00  0.00     0.036 C
BRANCH  25  26
HETATM   26  C13 UNL     1       8.641  -2.958  15.668  1.00  0.00     0.022 C
BRANCH  26  27
HETATM   27  C14 UNL     1       9.641  -4.086  15.922  1.00  0.00     0.122 C
BRANCH  27  28
HETATM   28  N3  UNL     1       9.314  -4.793  17.129  1.00  0.00    -0.367 N
HETATM   29  C15 UNL     1       9.951  -5.756  17.651  1.00  0.00     0.196 C
HETATM   30  N4  UNL     1      11.133  -6.302  17.096  1.00  0.00    -0.067 NA
HETATM   31  N5  UNL     1       9.413  -6.296  18.872  1.00  0.00    -0.067 NA
ATOM     32  H3  UNL     1       8.474  -4.486  17.620  1.00  0.00     0.161 HD
ENDBRANCH  27  28
ENDBRANCH  26  27
ENDBRANCH  25  26
ENDBRANCH   1  25
BRANCH   1  33
HETATM   33  N6  UNL     1       5.917  -3.632  15.465  1.00  0.00    -0.346 N
HETATM   34  C16 UNL     1       4.655  -4.256  15.507  1.00  0.00     0.258 C
HETATM   35  O2  UNL     1       3.905  -4.230  14.498  1.00  0.00    -0.271 OA
ATOM     36  H6  UNL     1       6.472  -3.684  16.318  1.00  0.00     0.163 HD
BRANCH  34  37
HETATM   37  C17 UNL     1       4.152  -4.966  16.712  1.00  0.00     0.365 C
BRANCH  37  38
HETATM   38  N7  UNL     1       3.604  -4.045  17.668  1.00  0.00    -0.058 N
ATOM     39  H73 UNL     1       4.323  -3.435  18.056  1.00  0.00     0.275 HD
ATOM     40  H72 UNL     1       3.025  -3.337  17.218  1.00  0.00     0.275 HD
ATOM     41  H71 UNL     1       3.093  -4.535  18.403  1.00  0.00     0.275 HD
ENDBRANCH  37  38
BRANCH  37  42
HETATM   42  C18 UNL     1       5.076  -5.959  17.254  1.00  0.00     0.260 C
HETATM   43  O3  UNL     1       6.270  -5.628  17.586  1.00  0.00    -0.270 OA
HETATM   44  N8  UNL     1       4.705  -7.311  17.427  1.00  0.00    -0.337 N
HETATM   45  C19 UNL     1       5.623  -8.302  18.017  1.00  0.00     0.127 C
HETATM   46  C22 UNL     1       3.471  -8.005  17.057  1.00  0.00     0.176 C
HETATM   47  C20 UNL     1       4.924  -9.615  17.923  1.00  0.00     0.022 C
HETATM   48  C21 UNL     1       3.464  -9.269  17.886  1.00  0.00     0.036 C
BRANCH  46  49
HETATM   49  C23 UNL     1       3.492  -8.316  15.597  1.00  0.00     0.254 C
HETATM   50  N9  UNL     1       3.827  -9.578  15.073  1.00  0.00    -0.060 NA
HETATM   51  O4  UNL     1       3.193  -7.408  14.751  1.00  0.00    -0.275 OA
ENDBRANCH  46  49
ENDBRANCH  37  42
ENDBRANCH  34  37
ENDBRANCH   1  33
TORSDOF 12
ENDMDL