MODEL 1
REMARK VINA RESULT: -9.879304039      0.000      0.000
REMARK  12 active torsions:
REMARK  status: ('A' for Active; 'I' for Inactive)
REMARK    1  A    between atoms: C2_2  and  N1_3
REMARK    2  A    between atoms: N1_3  and  N2_4
REMARK       I    between atoms: N1_3  and  C28_46
REMARK       I    between atoms: N2_4  and  C3_6
REMARK    3  A    between atoms: C3_6  and  O2_8
REMARK    4  A    between atoms: O2_8  and  C4_9
REMARK    5  A    between atoms: N3_11  and  C6_12
REMARK    6  A    between atoms: C6_12  and  C7_13
REMARK    7  A    between atoms: C7_13  and  C8_14
REMARK    8  A    between atoms: C8_14  and  C9_15
REMARK    9  A    between atoms: C9_15  and  N4_16
REMARK       I    between atoms: N4_16  and  C10_18
REMARK       I    between atoms: C10_18  and  N5_19
REMARK       I    between atoms: N5_19  and  C11_20
REMARK       I    between atoms: C11_20  and  N7_22
REMARK       I    between atoms: C12_24  and  N9_26
REMARK   10  A    between atoms: N9_26  and  C13_28
REMARK   11  A    between atoms: C13_28  and  C14_29
REMARK       I    between atoms: C28_46  and  N12_48
REMARK   12  A    between atoms: N12_48  and  C29_50
ROOT
HETATM    1  N4  UNL     1       3.566 -10.629  17.597  1.00  0.00    -0.350 N
ATOM      2  H4  UNL     1       3.291 -11.170  18.417  1.00  0.00     0.163 HD
HETATM    3  C10 UNL     1       4.963 -10.433  17.267  1.00  0.00     0.267 C
HETATM    4  N5  UNL     1       5.730  -9.439  17.688  1.00  0.00    -0.338 NA
HETATM    5  C11 UNL     1       6.414  -8.552  18.063  1.00  0.00     0.273 C
HETATM    6  N6  UNL     1       6.143  -7.686  19.178  1.00  0.00    -0.049 NA
HETATM    7  N7  UNL     1       7.662  -8.238  17.392  1.00  0.00    -0.293 N
ATOM      8  H7  UNL     1       7.668  -8.050  16.390  1.00  0.00     0.172 HD
HETATM    9  C12 UNL     1       8.752  -8.198  18.057  1.00  0.00     0.191 C
HETATM   10  N8  UNL     1       8.749  -8.457  19.441  1.00  0.00    -0.063 NA
HETATM   11  N9  UNL     1       9.968  -7.896  17.401  1.00  0.00    -0.364 N
ATOM     12  H9  UNL     1      10.607  -8.664  17.195  1.00  0.00     0.162 HD
HETATM   13  N10 UNL     1       5.412 -11.396  16.464  1.00  0.00    -0.253 N
ATOM     14  H10 UNL     1       6.386 -11.359  16.165  1.00  0.00     0.182 HD
HETATM   15  C23 UNL     1       4.632 -12.437  16.015  1.00  0.00     0.185 C
HETATM   16  N11 UNL     1       3.970 -13.297  15.625  1.00  0.00    -0.172 NA
ENDROOT
BRANCH   1  17
HETATM   17  C9  UNL     1       2.582 -10.042  16.739  1.00  0.00     0.123 C
BRANCH  17  18
HETATM   18  C8  UNL     1       2.292  -8.587  17.140  1.00  0.00     0.021 C
BRANCH  18  19
HETATM   19  C7  UNL     1       2.823  -7.639  16.107  1.00  0.00     0.029 C
BRANCH  19  20
HETATM   20  C6  UNL     1       3.831  -6.664  16.517  1.00  0.00     0.237 C
BRANCH  20  21
HETATM   21  N3  UNL     1       3.656  -5.285  16.339  1.00  0.00    -0.064 N
HETATM   22  C5  UNL     1       3.380  -4.894  14.946  1.00  0.00     0.270 C
HETATM   23  C4  UNL     1       3.877  -3.455  14.802  1.00  0.00     0.165 C
HETATM   24  C26 UNL     1       4.416  -3.188  16.191  1.00  0.00     0.045 C
HETATM   25  C25 UNL     1       3.333  -3.097  17.205  1.00  0.00     0.037 C
HETATM   26  C27 UNL     1       4.958  -4.572  16.496  1.00  0.00     0.244 C
HETATM   27  C24 UNL     1       2.846  -4.557  17.251  1.00  0.00     0.238 C
BRANCH  23  28
HETATM   28  O2  UNL     1       5.015  -3.406  13.956  1.00  0.00    -0.295 OA
BRANCH  28  29
HETATM   29  C3  UNL     1       5.259  -2.477  12.987  1.00  0.00     0.380 C
HETATM   30  N2  UNL     1       5.199  -1.105  13.342  1.00  0.00    -0.239 N
ATOM     31  H2  UNL     1       4.981  -0.824  14.297  1.00  0.00     0.192 HD
HETATM   32  O1  UNL     1       5.523  -2.874  11.827  1.00  0.00    -0.237 OA
BRANCH  30  33
HETATM   33  N1  UNL     1       5.445  -0.152  12.364  1.00  0.00    -0.239 N
HETATM   34  C28 UNL     1       4.408   0.580  11.738  1.00  0.00     0.337 C
HETATM   35  O3  UNL     1       4.653   1.443  10.859  1.00  0.00    -0.245 OA
HETATM   36  N12 UNL     1       3.030   0.353  12.093  1.00  0.00    -0.338 N
ATOM     37  H12 UNL     1       2.808  -0.345  12.802  1.00  0.00     0.164 HD
BRANCH  33  38
HETATM   38  C2  UNL     1       6.811   0.106  11.976  1.00  0.00     0.150 C
HETATM   39  C1  UNL     1       7.554   0.671  13.168  1.00  0.00     0.028 C
ENDBRANCH  33  38
BRANCH  36  40
HETATM   40  C29 UNL     1       1.965   1.082  11.476  1.00  0.00     0.078 C
HETATM   41  C30 UNL     1       1.484   0.414  10.199  1.00  0.00     0.032 C
HETATM   42  C31 UNL     1       0.781   1.189  12.405  1.00  0.00     0.032 C
ENDBRANCH  36  40
ENDBRANCH  30  33
ENDBRANCH  28  29
ENDBRANCH  23  28
ENDBRANCH  20  21
ENDBRANCH  19  20
ENDBRANCH  18  19
ENDBRANCH  17  18
ENDBRANCH   1  17
BRANCH  11  43
HETATM   43  C13 UNL     1      10.354  -6.569  17.008  1.00  0.00     0.127 C
BRANCH  43  44
HETATM   44  C14 UNL     1       9.289  -5.975  16.126  1.00  0.00     0.004 C
HETATM   45  C15 UNL     1       9.677  -5.989  14.681  1.00  0.00     0.007 C
HETATM   46  C16 UNL     1      10.414  -4.743  14.314  1.00  0.00     0.006 C
HETATM   47  C17 UNL     1       9.440  -3.579  14.352  1.00  0.00    -0.003 C
HETATM   48  C18 UNL     1      10.128  -2.301  14.782  1.00  0.00     0.032 C
HETATM   49  C21 UNL     1       8.377  -3.768  15.381  1.00  0.00     0.012 C
HETATM   50  C19 UNL     1       9.065  -1.597  15.535  1.00  0.00    -0.030 C
HETATM   51  C20 UNL     1       8.088  -2.407  15.872  1.00  0.00    -0.026 C
HETATM   52  C22 UNL     1       8.848  -4.604  16.555  1.00  0.00     0.015 C
ENDBRANCH  43  44
ENDBRANCH  11  43
TORSDOF 12
ENDMDL