MODEL 3
REMARK VINA RESULT: -8.595720941      1.121      1.854
REMARK  13 active torsions:
REMARK  status: ('A' for Active; 'I' for Inactive)
REMARK    1  A    between atoms: C3_3  and  O1_4
REMARK    2  A    between atoms: O1_4  and  C4_5
REMARK    3  A    between atoms: C4_5  and  C5_6
REMARK    4  A    between atoms: C5_6  and  N1_7
REMARK       I    between atoms: N1_7  and  C6_9
REMARK    5  A    between atoms: C6_9  and  C7_11
REMARK    6  A    between atoms: C11_15  and  N2_16
REMARK    7  A    between atoms: C12_18  and  N3_20
REMARK    8  A    between atoms: N3_20  and  C14_22
REMARK    9  A    between atoms: C14_22  and  C15_23
REMARK   10  A    between atoms: C15_23  and  C16_24
REMARK   11  A    between atoms: C16_24  and  C17_25
REMARK   12  A    between atoms: C17_25  and  N4_26
REMARK   13  A    between atoms: C20_34  and  C22_36
REMARK       I    between atoms: N8_45  and  C28_46
ROOT
HETATM    1  C1  UNL     1       0.386  -0.432  13.906  1.00  0.00     0.099 C
HETATM    2  C2  UNL     1       0.177   0.389  13.024  1.00  0.00    -0.162 C
HETATM    3  C3  UNL     1      -0.086   1.398  12.003  1.00  0.00     0.246 C
ENDROOT
BRANCH   3   4
HETATM    4  O1  UNL     1       0.941   1.758  11.259  1.00  0.00    -0.379 OA
BRANCH   4   5
HETATM    5  C4  UNL     1       2.098   1.114  11.204  1.00  0.00     0.188 C
BRANCH   5   6
HETATM    6  C5  UNL     1       3.192   1.424  12.167  1.00  0.00     0.148 C
BRANCH   6   7
HETATM    7  N1  UNL     1       3.917   0.201  12.547  1.00  0.00    -0.358 N
HETATM    8  C6  UNL     1       4.112  -0.086  13.895  1.00  0.00     0.229 C
HETATM    9  O2  UNL     1       3.660   0.704  14.763  1.00  0.00    -0.273 OA
ATOM     10  H1  UNL     1       4.273  -0.430  11.828  1.00  0.00     0.162 HD
BRANCH   8  11
HETATM   11  C7  UNL     1       4.837  -1.292  14.384  1.00  0.00     0.072 C
HETATM   12  C8  UNL     1       4.081  -2.518  13.963  1.00  0.00     0.048 C
HETATM   13  C9  UNL     1       4.704  -3.795  14.438  1.00  0.00     0.100 C
HETATM   14  C10 UNL     1       6.181  -3.781  14.572  1.00  0.00     0.057 C
HETATM   15  N8  UNL     1       4.028  -4.148  15.711  1.00  0.00    -0.274 N
HETATM   16  C11 UNL     1       6.819  -2.455  14.788  1.00  0.00     0.043 C
HETATM   17  C25 UNL     1       6.393  -1.846  16.132  1.00  0.00     0.058 C
HETATM   18  C29 UNL     1       6.223  -1.382  13.858  1.00  0.00    -0.004 C
HETATM   19  C26 UNL     1       5.044  -1.170  15.852  1.00  0.00     0.105 C
HETATM   20  N7  UNL     1       4.018  -1.759  16.682  1.00  0.00    -0.361 N
HETATM   21  C27 UNL     1       3.713  -3.172  16.696  1.00  0.00     0.178 C
ATOM     22  H7  UNL     1       3.479  -1.143  17.291  1.00  0.00     0.162 HD
HETATM   23  S1  UNL     1       2.902  -3.720  18.010  1.00  0.00    -0.041 SA
HETATM   24  C30 UNL     1       6.403  -1.831  12.462  1.00  0.00     0.019 C
HETATM   25  C31 UNL     1       7.035  -0.126  14.082  1.00  0.00     0.019 C
HETATM   26  C28 UNL     1       3.708  -5.495  15.904  1.00  0.00     0.337 C
HETATM   27  N9  UNL     1       3.068  -5.981  17.055  1.00  0.00    -0.039 NA
HETATM   28  O4  UNL     1       4.000  -6.323  15.013  1.00  0.00    -0.250 OA
BRANCH  16  29
HETATM   29  N2  UNL     1       8.220  -2.463  14.744  1.00  0.00    -0.370 N
HETATM   30  C12 UNL     1       9.133  -3.161  15.192  1.00  0.00     0.069 C
HETATM   31  C13 UNL     1      10.567  -2.789  14.885  1.00  0.00     0.088 C
ATOM     32  H2  UNL     1       8.581  -1.682  14.195  1.00  0.00     0.161 HD
BRANCH  30  33
HETATM   33  N3  UNL     1       9.034  -4.348  16.014  1.00  0.00    -0.380 N
ATOM     34  H3  UNL     1       8.254  -5.001  15.936  1.00  0.00     0.160 HD
BRANCH  33  35
HETATM   35  C14 UNL     1      10.098  -4.544  16.936  1.00  0.00     0.121 C
BRANCH  35  36
HETATM   36  C15 UNL     1       9.977  -5.536  18.008  1.00  0.00     0.021 C
BRANCH  36  37
HETATM   37  C16 UNL     1       8.688  -6.284  18.098  1.00  0.00     0.032 C
BRANCH  37  38
HETATM   38  C17 UNL     1       8.735  -7.493  18.894  1.00  0.00     0.268 C
BRANCH  38  39
HETATM   39  N4  UNL     1       8.578  -8.780  18.312  1.00  0.00     0.043 N
HETATM   40  C18 UNL     1       9.019  -8.780  16.926  1.00  0.00     0.306 C
HETATM   41  N5  UNL     1       9.522  -9.579  19.000  1.00  0.00    -0.164 N
HETATM   42  C19 UNL     1       8.883  -9.965  20.196  1.00  0.00     0.342 C
ATOM     43  H5  UNL     1      10.464  -9.825  18.695  1.00  0.00     0.199 HD
HETATM   44  O3  UNL     1       9.390 -10.388  21.276  1.00  0.00    -0.246 OA
HETATM   45  N6  UNL     1       7.464  -9.784  19.956  1.00  0.00    -0.303 N
HETATM   46  C20 UNL     1       7.412  -9.548  18.533  1.00  0.00     0.247 C
ATOM     47  H6  UNL     1       6.696  -9.815  20.626  1.00  0.00     0.167 HD
HETATM   48  C21 UNL     1       7.697 -10.968  17.946  1.00  0.00     0.079 C
BRANCH  46  49
HETATM   49  C22 UNL     1       6.142  -9.122  17.990  1.00  0.00    -0.035 C
HETATM   50  C23 UNL     1       5.500  -9.842  17.096  1.00  0.00     0.018 C
HETATM   51  C24 UNL     1       5.550  -7.824  18.395  1.00  0.00     0.047 C
ENDBRANCH  46  49
ENDBRANCH  38  39
ENDBRANCH  37  38
ENDBRANCH  36  37
ENDBRANCH  35  36
ENDBRANCH  33  35
ENDBRANCH  30  33
ENDBRANCH  16  29
ENDBRANCH   8  11
ENDBRANCH   6   7
ENDBRANCH   5   6
ENDBRANCH   4   5
ENDBRANCH   3   4
TORSDOF 13
ENDMDL