MODEL 3
REMARK VINA RESULT: -6.775676498      1.607      7.031
REMARK  12 active torsions:
REMARK  status: ('A' for Active; 'I' for Inactive)
REMARK    1  A    between atoms: C2_2  and  C3_3
REMARK    2  A    between atoms: C3_3  and  C4_4
REMARK    3  A    between atoms: C4_4  and  C5_5
REMARK    4  A    between atoms: C7_10  and  C8_11
REMARK    5  A    between atoms: C8_11  and  C9_12
REMARK    6  A    between atoms: C13_19  and  C14_20
REMARK    7  A    between atoms: C14_20  and  C15_21
REMARK    8  A    between atoms: C18_26  and  O3_27
REMARK    9  A    between atoms: C19_29  and  C20_30
REMARK   10  A    between atoms: C20_30  and  C21_31
REMARK   11  A    between atoms: C30_45  and  C31_46
REMARK   12  A    between atoms: C31_46  and  C33_48
ROOT
HETATM    1  C5  UNL     1       2.674  -8.393  16.391  1.00  0.00     0.178 C
HETATM    2  N1  UNL     1       3.927  -8.853  15.822  1.00  0.00    -0.346 N
ATOM      3  H1  UNL     1       4.331  -8.188  15.162  1.00  0.00     0.163 HD
HETATM    4  C6  UNL     1       4.686  -9.980  15.975  1.00  0.00     0.241 C
HETATM    5  O1  UNL     1       5.836  -9.823  16.546  1.00  0.00    -0.271 OA
HETATM    6  C7  UNL     1       4.499 -11.408  15.623  1.00  0.00     0.177 C
HETATM    7  N2  UNL     1       4.208 -12.150  16.824  1.00  0.00    -0.346 N
ATOM      8  H2  UNL     1       3.273 -11.979  17.193  1.00  0.00     0.163 HD
HETATM    9  C12 UNL     1       4.946 -13.048  17.575  1.00  0.00     0.241 C
HETATM   10  O2  UNL     1       4.517 -14.274  17.545  1.00  0.00    -0.271 OA
HETATM   11  C13 UNL     1       6.161 -12.859  18.430  1.00  0.00     0.175 C
HETATM   12  N3  UNL     1       7.401 -13.049  17.703  1.00  0.00    -0.359 N
ATOM     13  H3  UNL     1       7.627 -14.025  17.509  1.00  0.00     0.162 HD
HETATM   14  C18 UNL     1       8.332 -12.143  17.224  1.00  0.00     0.135 C
HETATM   15  C19 UNL     1       9.217 -11.190  17.901  1.00  0.00     0.159 C
HETATM   16  N4  UNL     1       8.581 -10.164  18.685  1.00  0.00    -0.347 N
ATOM     17  H4  UNL     1       7.865 -10.483  19.338  1.00  0.00     0.163 HD
HETATM   18  C24 UNL     1       8.819  -8.777  18.667  1.00  0.00     0.241 C
HETATM   19  O4  UNL     1       9.026  -8.190  19.802  1.00  0.00    -0.271 OA
HETATM   20  C25 UNL     1       8.867  -7.880  17.502  1.00  0.00     0.179 C
HETATM   21  C26 UNL     1      10.320  -7.780  17.021  1.00  0.00     0.037 C
HETATM   22  C27 UNL     1      10.643  -6.317  17.016  1.00  0.00     0.022 C
HETATM   23  C28 UNL     1       9.777  -5.849  18.169  1.00  0.00     0.127 C
HETATM   24  N5  UNL     1       8.522  -6.504  17.881  1.00  0.00    -0.337 N
HETATM   25  C29 UNL     1       7.198  -6.005  17.941  1.00  0.00     0.245 C
HETATM   26  O5  UNL     1       6.835  -5.348  18.980  1.00  0.00    -0.271 OA
HETATM   27  C30 UNL     1       6.174  -6.205  16.838  1.00  0.00     0.195 C
HETATM   28  N6  UNL     1       4.925  -6.544  17.365  1.00  0.00    -0.320 N
ATOM     29  H6  UNL     1       4.876  -7.137  18.193  1.00  0.00     0.181 HD
HETATM   30  N7  UNL     1       3.763  -6.093  16.790  1.00  0.00    -0.272 N
ATOM     31  H7  UNL     1       3.690  -5.086  16.647  1.00  0.00     0.189 HD
HETATM   32  C35 UNL     1       2.650  -6.873  16.371  1.00  0.00     0.258 C
HETATM   33  O6  UNL     1       1.588  -6.362  15.962  1.00  0.00    -0.269 OA
ENDROOT
BRANCH   1  34
HETATM   34  C4  UNL     1       2.467  -8.774  17.813  1.00  0.00     0.035 C
BRANCH  34  35
HETATM   35  C3  UNL     1       1.153  -9.486  17.980  1.00  0.00     0.002 C
BRANCH  35  36
HETATM   36  C2  UNL     1       1.269 -10.936  18.335  1.00  0.00    -0.004 C
HETATM   37  C1  UNL     1       2.216 -11.021  19.536  1.00  0.00     0.005 C
ENDBRANCH  35  36
ENDBRANCH  34  35
ENDBRANCH   1  34
BRANCH   6  38
HETATM   38  C8  UNL     1       3.422 -11.599  14.571  1.00  0.00     0.038 C
BRANCH  38  39
HETATM   39  C9  UNL     1       2.601 -12.822  14.727  1.00  0.00    -0.020 C
HETATM   40  C10 UNL     1       2.625 -13.778  13.563  1.00  0.00     0.009 C
HETATM   41  C11 UNL     1       1.144 -12.351  14.860  1.00  0.00     0.009 C
ENDBRANCH  38  39
ENDBRANCH   6  38
BRANCH  27  42
HETATM   42  C31 UNL     1       6.288  -5.017  15.938  1.00  0.00     0.014 C
HETATM   43  C32 UNL     1       7.591  -4.933  15.179  1.00  0.00     0.012 C
BRANCH  42  44
HETATM   44  C33 UNL     1       5.787  -3.726  16.478  1.00  0.00     0.002 C
HETATM   45  C34 UNL     1       6.881  -2.652  16.355  1.00  0.00     0.005 C
ENDBRANCH  42  44
ENDBRANCH  27  42
BRANCH  11  46
HETATM   46  C14 UNL     1       6.166 -13.994  19.486  1.00  0.00     0.038 C
BRANCH  46  47
HETATM   47  C15 UNL     1       5.992 -13.570  20.878  1.00  0.00    -0.020 C
HETATM   48  C16 UNL     1       4.488 -13.776  21.190  1.00  0.00     0.009 C
HETATM   49  C17 UNL     1       6.238 -12.113  21.143  1.00  0.00     0.009 C
ENDBRANCH  46  47
ENDBRANCH  11  46
BRANCH  14  50
HETATM   50  O3  UNL     1       8.437 -12.143  15.924  1.00  0.00    -0.348 OA
ATOM     51  H3  UNL     1       8.999 -12.831  15.589  1.00  0.00     0.219 HD
ENDBRANCH  14  50
BRANCH  15  52
HETATM   52  C20 UNL     1      10.308 -11.888  18.729  1.00  0.00     0.037 C
BRANCH  52  53
HETATM   53  C21 UNL     1       9.785 -12.112  20.130  1.00  0.00    -0.020 C
HETATM   54  C22 UNL     1       9.714 -13.566  20.518  1.00  0.00     0.009 C
HETATM   55  C23 UNL     1      10.677 -11.404  21.152  1.00  0.00     0.009 C
ENDBRANCH  52  53
ENDBRANCH  15  52
TORSDOF 12
ENDMDL