MODEL 3
REMARK VINA RESULT: -5.836206076     11.222     17.146
REMARK  14 active torsions:
REMARK  status: ('A' for Active; 'I' for Inactive)
REMARK    1  A    between atoms: C2_2  and  C4_4
REMARK    2  A    between atoms: C4_4  and  C5_5
REMARK    3  A    between atoms: C7_10  and  C8_11
REMARK    4  A    between atoms: C8_11  and  C9_12
REMARK    5  A    between atoms: C9_12  and  N2_13
REMARK    6  A    between atoms: C14_20  and  C15_21
REMARK    7  A    between atoms: C18_26  and  O2_27
REMARK    8  A    between atoms: C25_37  and  C26_38
REMARK    9  A    between atoms: C29_43  and  O4_44
REMARK   10  A    between atoms: C30_46  and  C31_47
REMARK   11  A    between atoms: C31_47  and  C32_48
REMARK   12  A    between atoms: C32_48  and  C33_49
REMARK   13  A    between atoms: C33_49  and  C34_50
REMARK   14  A    between atoms: C34_50  and  N7_51
ROOT
HETATM    1  C5  UNL     1       6.158  -4.683  16.790  1.00  0.00     0.177 C
HETATM    2  N1  UNL     1       5.405  -5.477  17.739  1.00  0.00    -0.346 N
ATOM      3  H1  UNL     1       5.272  -5.050  18.656  1.00  0.00     0.163 HD
HETATM    4  C6  UNL     1       4.837  -6.732  17.585  1.00  0.00     0.240 C
HETATM    5  O1  UNL     1       5.166  -7.621  18.451  1.00  0.00    -0.271 OA
HETATM    6  C7  UNL     1       3.890  -7.175  16.538  1.00  0.00     0.171 C
HETATM    7  N3  UNL     1       3.563  -8.573  16.702  1.00  0.00    -0.404 N
ATOM      8  H3  UNL     1       3.622  -9.044  17.605  1.00  0.00     0.154 HD
HETATM    9  C13 UNL     1       3.155  -9.244  15.524  1.00  0.00     0.167 C
HETATM   10  C14 UNL     1       4.140 -10.247  14.968  1.00  0.00     0.009 C
HETATM   11  N4  UNL     1       5.280 -10.393  15.792  1.00  0.00    -0.344 N
ATOM     12  H4  UNL     1       5.770  -9.503  15.873  1.00  0.00     0.167 HD
HETATM   13  C18 UNL     1       5.939 -11.366  16.523  1.00  0.00     0.139 C
HETATM   14  C19 UNL     1       5.854 -11.882  17.890  1.00  0.00     0.162 C
HETATM   15  C20 UNL     1       4.596 -11.533  18.655  1.00  0.00     0.034 C
HETATM   16  C21 UNL     1       4.622 -12.306  19.946  1.00  0.00     0.004 C
HETATM   17  C22 UNL     1       5.728 -13.305  20.054  1.00  0.00     0.020 C
HETATM   18  C23 UNL     1       7.091 -12.699  19.802  1.00  0.00     0.127 C
HETATM   19  N5  UNL     1       6.983 -11.640  18.754  1.00  0.00    -0.338 N
HETATM   20  C24 UNL     1       7.931 -10.641  18.816  1.00  0.00     0.243 C
HETATM   21  O3  UNL     1       8.034  -9.997  19.937  1.00  0.00    -0.271 OA
HETATM   22  C25 UNL     1       8.910 -10.134  17.792  1.00  0.00     0.179 C
HETATM   23  N6  UNL     1       9.638  -8.978  18.285  1.00  0.00    -0.359 N
ATOM     24  H6  UNL     1      10.589  -9.156  18.611  1.00  0.00     0.162 HD
HETATM   25  C29 UNL     1       9.202  -7.653  18.368  1.00  0.00     0.135 C
HETATM   26  C30 UNL     1       8.751  -6.780  17.276  1.00  0.00     0.159 C
HETATM   27  N8  UNL     1       8.395  -5.460  17.832  1.00  0.00    -0.347 N
ATOM     28  H8  UNL     1       8.807  -5.224  18.734  1.00  0.00     0.163 HD
HETATM   29  C35 UNL     1       7.561  -4.501  17.264  1.00  0.00     0.241 C
HETATM   30  O5  UNL     1       8.072  -3.325  17.140  1.00  0.00    -0.271 OA
ENDROOT
BRANCH  26  31
HETATM   31  C31 UNL     1       9.723  -6.627  16.175  1.00  0.00     0.033 C
BRANCH  31  32
HETATM   32  C32 UNL     1       9.344  -6.015  14.902  1.00  0.00     0.004 C
BRANCH  32  33
HETATM   33  C33 UNL     1      10.091  -4.810  14.419  1.00  0.00     0.027 C
BRANCH  33  34
HETATM   34  C34 UNL     1      10.801  -4.130  15.626  1.00  0.00     0.229 C
BRANCH  34  35
HETATM   35  N7  UNL     1      10.417  -2.756  15.716  1.00  0.00    -0.079 N
ATOM     36  H73 UNL     1      10.769  -2.209  14.930  1.00  0.00     0.274 HD
ATOM     37  H72 UNL     1       9.419  -2.628  15.552  1.00  0.00     0.274 HD
ATOM     38  H71 UNL     1      10.710  -2.365  16.612  1.00  0.00     0.274 HD
ENDBRANCH  34  35
ENDBRANCH  33  34
ENDBRANCH  32  33
ENDBRANCH  31  32
ENDBRANCH  26  31
BRANCH  25  39
HETATM   39  O4  UNL     1       9.189  -7.125  19.557  1.00  0.00    -0.348 OA
ATOM     40  H4  UNL     1       9.609  -6.277  19.645  1.00  0.00     0.219 HD
ENDBRANCH  25  39
BRANCH  22  41
HETATM   41  C26 UNL     1       9.969 -11.163  17.481  1.00  0.00     0.009 C
HETATM   42  C27 UNL     1      10.716 -11.469  18.752  1.00  0.00     0.012 C
HETATM   43  C28 UNL     1       9.403 -12.446  16.954  1.00  0.00     0.012 C
ENDBRANCH  22  41
BRANCH   1  44
HETATM   44  C4  UNL     1       6.089  -5.126  15.380  1.00  0.00     0.038 C
BRANCH  44  45
HETATM   45  C2  UNL     1       5.701  -3.957  14.490  1.00  0.00    -0.020 C
HETATM   46  C1  UNL     1       5.334  -2.820  15.456  1.00  0.00     0.009 C
HETATM   47  C3  UNL     1       6.947  -3.427  13.766  1.00  0.00     0.009 C
ENDBRANCH  44  45
ENDBRANCH   1  44
BRANCH   6  48
HETATM   48  C8  UNL     1       2.626  -6.327  16.538  1.00  0.00     0.062 C
BRANCH  48  49
HETATM   49  C9  UNL     1       2.621  -5.328  15.425  1.00  0.00     0.238 C
BRANCH  49  50
HETATM   50  N2  UNL     1       1.801  -4.185  15.849  1.00  0.00    -0.079 N
HETATM   51  C10 UNL     1       2.085  -4.042  17.286  1.00  0.00     0.271 C
HETATM   52  C11 UNL     1       0.429  -4.566  15.649  1.00  0.00     0.271 C
HETATM   53  C12 UNL     1       2.180  -2.997  15.134  1.00  0.00     0.271 C
ENDBRANCH  49  50
ENDBRANCH  48  49
ENDBRANCH   6  48
BRANCH  13  54
HETATM   54  O2  UNL     1       6.882 -12.011  15.874  1.00  0.00    -0.348 OA
ATOM     55  H2  UNL     1       7.002 -12.917  16.130  1.00  0.00     0.219 HD
ENDBRANCH  13  54
BRANCH  10  56
HETATM   56  C15 UNL     1       3.421 -11.384  14.388  1.00  0.00     0.025 C
HETATM   57  C16 UNL     1       3.036 -11.318  12.937  1.00  0.00     0.016 C
HETATM   58  C17 UNL     1       2.218 -11.866  15.166  1.00  0.00     0.016 C
ENDBRANCH  10  56
TORSDOF 14
ENDMDL