MODEL 3
REMARK VINA RESULT: -5.963328561      2.413      7.038
REMARK  12 active torsions:
REMARK  status: ('A' for Active; 'I' for Inactive)
REMARK    1  A    between atoms: C2_2  and  C4_4
REMARK    2  A    between atoms: C4_4  and  C5_5
REMARK    3  A    between atoms: C7_10  and  C8_11
REMARK    4  A    between atoms: C8_11  and  C9_12
REMARK    5  A    between atoms: C9_12  and  C10_13
REMARK    6  A    between atoms: C10_13  and  C11_14
REMARK    7  A    between atoms: C11_14  and  N2_15
REMARK    8  A    between atoms: C13_23  and  C14_24
REMARK    9  A    between atoms: C19_31  and  C20_32
REMARK   10  A    between atoms: C24_39  and  C25_40
REMARK   11  A    between atoms: C25_40  and  C26_41
REMARK   12  A    between atoms: C30_48  and  C31_49
ROOT
HETATM    1  C5  UNL     1       4.628  -8.715  16.506  1.00  0.00     0.177 C
HETATM    2  N1  UNL     1       4.784  -9.945  15.771  1.00  0.00    -0.346 N
ATOM      3  H1  UNL     1       5.563  -9.961  15.113  1.00  0.00     0.163 HD
HETATM    4  C6  UNL     1       4.028 -11.119  15.823  1.00  0.00     0.241 C
HETATM    5  O1  UNL     1       4.679 -12.198  16.096  1.00  0.00    -0.271 OA
HETATM    6  C7  UNL     1       2.581 -11.324  15.607  1.00  0.00     0.176 C
HETATM    7  N3  UNL     1       1.780 -11.566  16.766  1.00  0.00    -0.346 N
ATOM      8  H3  UNL     1       1.525 -10.707  17.252  1.00  0.00     0.163 HD
HETATM    9  C12 UNL     1       1.271 -12.699  17.382  1.00  0.00     0.241 C
HETATM   10  O2  UNL     1      -0.015 -12.869  17.333  1.00  0.00    -0.271 OA
HETATM   11  C13 UNL     1       1.969 -13.783  18.116  1.00  0.00     0.182 C
HETATM   12  N4  UNL     1       2.271 -13.376  19.490  1.00  0.00    -0.341 N
HETATM   13  C17 UNL     1       1.161 -13.399  20.456  1.00  0.00     0.153 C
HETATM   14  C18 UNL     1       3.507 -12.940  19.974  1.00  0.00     0.243 C
HETATM   15  O3  UNL     1       3.433 -11.901  20.742  1.00  0.00    -0.271 OA
HETATM   16  C19 UNL     1       4.858 -13.491  19.736  1.00  0.00     0.180 C
HETATM   17  N5  UNL     1       5.731 -12.910  20.738  1.00  0.00    -0.346 N
ATOM     18  H5  UNL     1       5.638 -13.286  21.681  1.00  0.00     0.163 HD
HETATM   19  C23 UNL     1       6.685 -11.900  20.576  1.00  0.00     0.241 C
HETATM   20  O4  UNL     1       6.535 -10.849  21.312  1.00  0.00    -0.271 OA
HETATM   21  C24 UNL     1       7.855 -11.862  19.676  1.00  0.00     0.177 C
HETATM   22  N6  UNL     1       7.589 -11.418  18.337  1.00  0.00    -0.346 N
ATOM     23  H6  UNL     1       7.064 -12.092  17.781  1.00  0.00     0.163 HD
HETATM   24  C29 UNL     1       7.903 -10.257  17.646  1.00  0.00     0.241 C
HETATM   25  O5  UNL     1       8.728 -10.386  16.653  1.00  0.00    -0.271 OA
HETATM   26  C30 UNL     1       7.462  -8.861  17.828  1.00  0.00     0.180 C
HETATM   27  N7  UNL     1       6.218  -8.697  18.529  1.00  0.00    -0.346 N
ATOM     28  H7  UNL     1       6.259  -8.420  19.511  1.00  0.00     0.163 HD
HETATM   29  C34 UNL     1       4.932  -8.894  17.950  1.00  0.00     0.241 C
HETATM   30  O6  UNL     1       3.991  -9.243  18.704  1.00  0.00    -0.271 OA
ENDROOT
BRANCH   6  31
HETATM   31  C8  UNL     1       2.367 -12.361  14.484  1.00  0.00     0.035 C
BRANCH  31  32
HETATM   32  C9  UNL     1       3.102 -11.937  13.233  1.00  0.00     0.004 C
BRANCH  32  33
HETATM   33  C10 UNL     1       2.148 -11.972  12.051  1.00  0.00     0.027 C
BRANCH  33  34
HETATM   34  C11 UNL     1       2.759 -11.158  10.922  1.00  0.00     0.229 C
BRANCH  34  35
HETATM   35  N2  UNL     1       3.970 -10.507  11.358  1.00  0.00    -0.079 N
ATOM     36  H23 UNL     1       3.775  -9.630  11.842  1.00  0.00     0.274 HD
ATOM     37  H22 UNL     1       4.415 -11.011  12.125  1.00  0.00     0.274 HD
ATOM     38  H21 UNL     1       4.609 -10.370  10.574  1.00  0.00     0.274 HD
ENDBRANCH  34  35
ENDBRANCH  33  34
ENDBRANCH  32  33
ENDBRANCH  31  32
ENDBRANCH   6  31
BRANCH   1  39
HETATM   39  C4  UNL     1       3.324  -8.011  16.301  1.00  0.00     0.038 C
BRANCH  39  40
HETATM   40  C2  UNL     1       3.551  -6.552  15.962  1.00  0.00    -0.020 C
HETATM   41  C1  UNL     1       3.062  -5.769  17.192  1.00  0.00     0.009 C
HETATM   42  C3  UNL     1       2.784  -6.116  14.730  1.00  0.00     0.009 C
ENDBRANCH  39  40
ENDBRANCH   1  39
BRANCH  11  43
HETATM   43  C14 UNL     1       1.403 -15.136  17.973  1.00  0.00     0.009 C
HETATM   44  C15 UNL     1       2.247 -16.141  18.784  1.00  0.00     0.012 C
HETATM   45  C16 UNL     1       1.185 -15.730  16.650  1.00  0.00     0.012 C
ENDBRANCH  11  43
BRANCH  26  46
HETATM   46  C31 UNL     1       8.553  -7.928  18.312  1.00  0.00     0.009 C
HETATM   47  C32 UNL     1       7.940  -6.562  18.649  1.00  0.00     0.012 C
HETATM   48  C33 UNL     1       9.553  -7.642  17.190  1.00  0.00     0.012 C
ENDBRANCH  26  46
BRANCH  16  49
HETATM   49  C20 UNL     1       4.927 -14.988  19.955  1.00  0.00     0.009 C
HETATM   50  C21 UNL     1       6.274 -15.431  19.361  1.00  0.00     0.012 C
HETATM   51  C22 UNL     1       4.930 -15.381  21.390  1.00  0.00     0.012 C
ENDBRANCH  16  49
BRANCH  21  52
HETATM   52  C25 UNL     1       9.022 -11.121  20.352  1.00  0.00     0.038 C
BRANCH  52  53
HETATM   53  C26 UNL     1      10.319 -11.835  20.009  1.00  0.00    -0.020 C
HETATM   54  C27 UNL     1      11.346 -11.526  21.082  1.00  0.00     0.009 C
HETATM   55  C28 UNL     1      10.084 -13.327  19.968  1.00  0.00     0.009 C
ENDBRANCH  52  53
ENDBRANCH  21  52
TORSDOF 12
ENDMDL