MODEL 4
REMARK VINA RESULT: -9.364683108      2.897     11.163
REMARK  13 active torsions:
REMARK  status: ('A' for Active; 'I' for Inactive)
REMARK    1  A    between atoms: C2_2  and  C3_3
REMARK    2  A    between atoms: C3_3  and  C4_4
REMARK    3  A    between atoms: N1_10  and  C10_11
REMARK    4  A    between atoms: C10_11  and  C11_12
REMARK    5  A    between atoms: N5_27  and  C18_28
REMARK    6  A    between atoms: C18_28  and  O3_29
REMARK    7  A    between atoms: C18_28  and  C19_31
REMARK    8  A    between atoms: C19_31  and  N6_32
REMARK    9  A    between atoms: C19_31  and  C32_53
REMARK       I    between atoms: N6_32  and  C20_34
REMARK   10  A    between atoms: C20_34  and  C21_36
REMARK   11  A    between atoms: C21_36  and  N7_37
REMARK   12  A    between atoms: C21_36  and  C29_50
REMARK       I    between atoms: N7_37  and  C22_39
REMARK       I    between atoms: N9_41  and  C23_43
REMARK   13  A    between atoms: C23_43  and  C24_45
ROOT
HETATM    1  C18 UNL     1       4.669  -6.312  16.343  1.00  0.00     0.139 C
ENDROOT
BRANCH   1   2
HETATM    2  N5  UNL     1       5.684  -6.366  17.287  1.00  0.00    -0.336 N
HETATM    3  C11 UNL     1       6.454  -7.520  17.670  1.00  0.00     0.227 C
HETATM    4  N2  UNL     1       7.556  -7.108  18.528  1.00  0.00    -0.333 N
HETATM    5  C12 UNL     1       8.822  -6.668  18.088  1.00  0.00     0.242 C
ATOM      6  H2  UNL     1       7.399  -7.142  19.536  1.00  0.00     0.165 HD
HETATM    7  O1  UNL     1       9.469  -5.901  18.866  1.00  0.00    -0.271 OA
HETATM    8  C13 UNL     1       9.475  -7.005  16.807  1.00  0.00     0.174 C
HETATM    9  C14 UNL     1      10.958  -7.120  17.099  1.00  0.00     0.042 C
HETATM   10  N3  UNL     1       9.207  -5.999  15.797  1.00  0.00    -0.330 N
HETATM   11  C15 UNL     1       9.057  -4.599  16.060  1.00  0.00     0.316 C
ATOM     12  H3  UNL     1       9.120  -6.311  14.830  1.00  0.00     0.165 HD
HETATM   13  O2  UNL     1       9.853  -3.782  15.441  1.00  0.00    -0.247 OA
HETATM   14  N4  UNL     1       8.097  -4.041  16.954  1.00  0.00    -0.342 N
HETATM   15  C16 UNL     1       6.680  -4.208  16.920  1.00  0.00     0.144 C
ATOM     16  H4  UNL     1       8.465  -3.455  17.703  1.00  0.00     0.164 HD
HETATM   17  C17 UNL     1       6.063  -5.090  17.948  1.00  0.00     0.147 C
BRANCH   3  18
HETATM   18  C10 UNL     1       5.621  -8.582  18.336  1.00  0.00     0.105 C
BRANCH  18  19
HETATM   19  N1  UNL     1       5.401  -9.704  17.558  1.00  0.00    -0.385 N
HETATM   20  C4  UNL     1       6.347 -10.426  16.865  1.00  0.00     0.087 C
HETATM   21  C5  UNL     1       5.646 -11.606  16.150  1.00  0.00     0.029 C
HETATM   22  C6  UNL     1       4.469 -11.172  15.345  1.00  0.00    -0.015 C
HETATM   23  C7  UNL     1       3.715 -12.430  14.953  1.00  0.00     0.010 C
HETATM   24  C8  UNL     1       3.543 -10.286  16.170  1.00  0.00     0.024 C
HETATM   25  C9  UNL     1       4.065 -10.254  17.594  1.00  0.00     0.123 C
BRANCH  20  26
HETATM   26  C3  UNL     1       7.385 -11.128  17.747  1.00  0.00     0.051 C
BRANCH  26  27
HETATM   27  C2  UNL     1       8.712 -10.656  17.284  1.00  0.00    -0.035 C
HETATM   28  C1  UNL     1       9.721 -10.518  18.123  1.00  0.00     0.007 C
ENDBRANCH  26  27
ENDBRANCH  20  26
ENDBRANCH  18  19
ENDBRANCH   3  18
ENDBRANCH   1   2
BRANCH   1  29
HETATM   29  O3  UNL     1       4.740  -7.219  15.396  1.00  0.00    -0.348 OA
ATOM     30  H3  UNL     1       5.591  -7.307  14.985  1.00  0.00     0.219 HD
ENDBRANCH   1  29
BRANCH   1  31
HETATM   31  C19 UNL     1       3.516  -5.419  16.210  1.00  0.00     0.162 C
BRANCH  31  32
HETATM   32  N6  UNL     1       3.754  -4.496  15.088  1.00  0.00    -0.347 N
HETATM   33  C20 UNL     1       3.880  -3.101  15.254  1.00  0.00     0.241 C
HETATM   34  O4  UNL     1       3.800  -2.498  16.350  1.00  0.00    -0.271 OA
ATOM     35  H6  UNL     1       3.832  -4.884  14.147  1.00  0.00     0.163 HD
BRANCH  33  36
HETATM   36  C21 UNL     1       4.132  -2.275  14.010  1.00  0.00     0.179 C
BRANCH  36  37
HETATM   37  N7  UNL     1       4.084  -0.885  14.326  1.00  0.00    -0.351 N
HETATM   38  C22 UNL     1       3.301   0.091  13.601  1.00  0.00     0.191 C
HETATM   39  N8  UNL     1       3.829   1.397  13.446  1.00  0.00    -0.063 NA
HETATM   40  N9  UNL     1       2.175  -0.206  13.122  1.00  0.00    -0.301 N
HETATM   41  C23 UNL     1       1.218   0.473  12.406  1.00  0.00     0.228 C
ATOM     42  H9  UNL     1       1.913  -1.174  13.309  1.00  0.00     0.171 HD
HETATM   43  O5  UNL     1       0.189  -0.228  12.052  1.00  0.00    -0.273 OA
ATOM     44  H7  UNL     1       4.639  -0.556  15.116  1.00  0.00     0.163 HD
BRANCH  41  45
HETATM   45  C24 UNL     1       1.209   1.898  11.988  1.00  0.00     0.078 C
HETATM   46  C25 UNL     1       2.033   2.037  10.705  1.00  0.00     0.014 C
HETATM   47  C26 UNL     1       0.973   2.006   9.606  1.00  0.00     0.001 C
HETATM   48  C27 UNL     1      -0.147   2.830  10.223  1.00  0.00     0.001 C
HETATM   49  C28 UNL     1      -0.143   2.420  11.663  1.00  0.00     0.014 C
ENDBRANCH  41  45
ENDBRANCH  36  37
BRANCH  36  50
HETATM   50  C29 UNL     1       5.494  -2.659  13.465  1.00  0.00     0.009 C
HETATM   51  C30 UNL     1       5.680  -2.462  11.994  1.00  0.00     0.012 C
HETATM   52  C31 UNL     1       6.596  -1.870  14.178  1.00  0.00     0.012 C
ENDBRANCH  36  50
ENDBRANCH  33  36
ENDBRANCH  31  32
BRANCH  31  53
HETATM   53  C32 UNL     1       2.263  -6.197  15.776  1.00  0.00     0.008 C
HETATM   54  C33 UNL     1       1.775  -7.158  16.811  1.00  0.00     0.012 C
HETATM   55  C34 UNL     1       1.128  -5.206  15.531  1.00  0.00     0.012 C
ENDBRANCH  31  53
ENDBRANCH   1  31
TORSDOF 13
ENDMDL