MODEL 3
REMARK VINA RESULT: -4.851744893      1.479      2.000
REMARK  13 active torsions:
REMARK  status: ('A' for Active; 'I' for Inactive)
REMARK    1  A    between atoms: C2_2  and  C4_4
REMARK    2  A    between atoms: C4_4  and  C5_5
REMARK    3  A    between atoms: C6_8  and  O1_9
REMARK    4  A    between atoms: C7_11  and  C8_12
REMARK    5  A    between atoms: C8_12  and  C9_13
REMARK    6  A    between atoms: C12_18  and  O2_19
REMARK    7  A    between atoms: C13_21  and  C14_22
REMARK    8  A    between atoms: C14_22  and  C15_23
REMARK    9  A    between atoms: C20_30  and  C21_31
REMARK   10  A    between atoms: C21_31  and  C22_32
REMARK   11  A    between atoms: C24_39  and  C25_40
REMARK   12  A    between atoms: C25_40  and  C26_41
REMARK   13  A    between atoms: C30_48  and  C31_49
ROOT
HETATM    1  C5  UNL     1       4.175  -9.477  17.120  1.00  0.00     0.175 C
HETATM    2  N1  UNL     1       3.132  -9.400  18.153  1.00  0.00    -0.359 N
ATOM      3  H1  UNL     1       2.992  -8.434  18.448  1.00  0.00     0.162 HD
HETATM    4  C6  UNL     1       2.310 -10.222  18.824  1.00  0.00     0.135 C
HETATM    5  C7  UNL     1       0.955 -10.843  18.521  1.00  0.00     0.158 C
HETATM    6  N2  UNL     1       0.706 -11.042  17.163  1.00  0.00    -0.361 N
ATOM      7  H2  UNL     1       0.688 -10.188  16.608  1.00  0.00     0.162 HD
HETATM    8  C12 UNL     1       0.473 -12.227  16.425  1.00  0.00     0.135 C
HETATM    9  C13 UNL     1       1.009 -13.578  16.687  1.00  0.00     0.161 C
HETATM   10  N3  UNL     1       0.446 -14.232  17.858  1.00  0.00    -0.343 N
HETATM   11  C18 UNL     1      -0.996 -14.192  18.065  1.00  0.00     0.153 C
HETATM   12  C19 UNL     1       1.216 -14.945  18.821  1.00  0.00     0.243 C
HETATM   13  O3  UNL     1       0.830 -16.127  19.149  1.00  0.00    -0.271 OA
HETATM   14  C20 UNL     1       2.433 -14.473  19.499  1.00  0.00     0.185 C
HETATM   15  N5  UNL     1       3.513 -15.435  19.531  1.00  0.00    -0.346 N
ATOM     16  H5  UNL     1       3.395 -16.217  20.175  1.00  0.00     0.163 HD
HETATM   17  C23 UNL     1       4.693 -15.426  18.793  1.00  0.00     0.241 C
HETATM   18  O5  UNL     1       5.036 -16.530  18.237  1.00  0.00    -0.271 OA
HETATM   19  C24 UNL     1       5.613 -14.272  18.570  1.00  0.00     0.177 C
HETATM   20  N6  UNL     1       5.679 -13.358  19.656  1.00  0.00    -0.346 N
ATOM     21  H6  UNL     1       5.425 -13.758  20.560  1.00  0.00     0.163 HD
HETATM   22  C29 UNL     1       6.029 -12.013  19.699  1.00  0.00     0.241 C
HETATM   23  O6  UNL     1       5.995 -11.472  20.879  1.00  0.00    -0.271 OA
HETATM   24  C30 UNL     1       6.433 -11.103  18.633  1.00  0.00     0.180 C
HETATM   25  N7  UNL     1       5.914 -11.365  17.322  1.00  0.00    -0.346 N
ATOM     26  H7  UNL     1       6.448 -11.971  16.700  1.00  0.00     0.163 HD
HETATM   27  C34 UNL     1       4.663 -10.806  16.842  1.00  0.00     0.241 C
HETATM   28  O7  UNL     1       4.018 -11.616  16.139  1.00  0.00    -0.271 OA
ENDROOT
BRANCH   1  29
HETATM   29  C4  UNL     1       3.747  -8.644  15.948  1.00  0.00     0.038 C
BRANCH  29  30
HETATM   30  C2  UNL     1       3.476  -7.210  16.144  1.00  0.00    -0.020 C
HETATM   31  C1  UNL     1       4.540  -6.325  16.691  1.00  0.00     0.009 C
HETATM   32  C3  UNL     1       3.029  -6.547  14.824  1.00  0.00     0.009 C
ENDBRANCH  29  30
ENDBRANCH   1  29
BRANCH   4  33
HETATM   33  O1  UNL     1       2.696 -10.603  20.008  1.00  0.00    -0.348 OA
ATOM     34  H1  UNL     1       3.104 -11.459  20.072  1.00  0.00     0.219 HD
ENDBRANCH   4  33
BRANCH   5  35
HETATM   35  C8  UNL     1      -0.078  -9.998  19.233  1.00  0.00     0.037 C
BRANCH  35  36
HETATM   36  C9  UNL     1      -0.897 -10.570  20.297  1.00  0.00    -0.020 C
HETATM   37  C10 UNL     1      -2.375 -10.558  20.069  1.00  0.00     0.009 C
HETATM   38  C11 UNL     1      -0.665  -9.678  21.549  1.00  0.00     0.009 C
ENDBRANCH  35  36
ENDBRANCH   5  35
BRANCH  24  39
HETATM   39  C31 UNL     1       7.959 -10.927  18.640  1.00  0.00     0.009 C
HETATM   40  C32 UNL     1       8.527 -11.028  17.256  1.00  0.00     0.012 C
HETATM   41  C33 UNL     1       8.308  -9.533  19.158  1.00  0.00     0.012 C
ENDBRANCH  24  39
BRANCH   8  42
HETATM   42  O2  UNL     1      -0.301 -12.149  15.380  1.00  0.00    -0.348 OA
ATOM     43  H2  UNL     1      -0.259 -12.854  14.745  1.00  0.00     0.219 HD
ENDBRANCH   8  42
BRANCH   9  44
HETATM   44  C14 UNL     1       0.734 -14.424  15.444  1.00  0.00     0.037 C
BRANCH  44  45
HETATM   45  C15 UNL     1       1.934 -14.911  14.730  1.00  0.00    -0.020 C
HETATM   46  C16 UNL     1       2.245 -13.850  13.649  1.00  0.00     0.009 C
HETATM   47  C17 UNL     1       3.151 -14.862  15.646  1.00  0.00     0.009 C
ENDBRANCH  44  45
ENDBRANCH   9  44
BRANCH  19  48
HETATM   48  C25 UNL     1       6.981 -14.763  18.206  1.00  0.00     0.038 C
BRANCH  48  49
HETATM   49  C26 UNL     1       7.396 -14.653  16.788  1.00  0.00    -0.020 C
HETATM   50  C27 UNL     1       8.942 -14.481  16.755  1.00  0.00     0.009 C
HETATM   51  C28 UNL     1       7.172 -15.918  15.973  1.00  0.00     0.009 C
ENDBRANCH  48  49
ENDBRANCH  19  48
BRANCH  14  52
HETATM   52  C21 UNL     1       2.164 -14.070  20.923  1.00  0.00     0.134 C
BRANCH  52  53
HETATM   53  C22 UNL     1       2.998 -14.699  21.935  1.00  0.00     0.233 C
HETATM   54  N4  UNL     1       4.245 -14.158  22.341  1.00  0.00    -0.062 NA
HETATM   55  O4  UNL     1       2.618 -15.760  22.485  1.00  0.00    -0.277 OA
ENDBRANCH  52  53
ENDBRANCH  14  52
TORSDOF 13
ENDMDL