MODEL 3
REMARK VINA RESULT: -9.578837547      2.146     10.762
REMARK  13 active torsions:
REMARK  status: ('A' for Active; 'I' for Inactive)
REMARK    1  A    between atoms: C4_4  and  C5_5
REMARK    2  A    between atoms: C6_6  and  C7_7
REMARK       I    between atoms: C7_7  and  N1_9
REMARK    3  A    between atoms: C8_11  and  C9_13
REMARK    4  A    between atoms: C12_16  and  C13_17
REMARK    5  A    between atoms: C13_17  and  C14_18
REMARK    6  A    between atoms: C14_18  and  N3_19
REMARK       I    between atoms: N3_19  and  C15_21
REMARK       I    between atoms: C15_21  and  N4_23
REMARK    7  A    between atoms: N4_23  and  C16_25
REMARK    8  A    between atoms: C22_31  and  O3_32
REMARK    9  A    between atoms: C22_31  and  N5_34
REMARK   10  A    between atoms: C28_43  and  C29_44
REMARK   11  A    between atoms: C29_44  and  O5_45
REMARK   12  A    between atoms: C29_44  and  N7_47
REMARK   13  A    between atoms: C33_51  and  C34_52
ROOT
HETATM    1  C1  UNL     1       8.237  -9.168  17.283  1.00  0.00     0.102 C
HETATM    2  C2  UNL     1       7.937  -8.108  17.870  1.00  0.00    -0.160 C
HETATM    3  C3  UNL     1       7.696  -6.911  18.569  1.00  0.00     0.050 C
HETATM    4  C4  UNL     1       6.402  -6.390  18.473  1.00  0.00     0.008 C
ENDROOT
BRANCH   4   5
HETATM    5  C5  UNL     1       5.460  -7.150  17.669  1.00  0.00     0.006 C
HETATM    6  C6  UNL     1       4.301  -6.729  17.287  1.00  0.00     0.074 C
BRANCH   6   7
HETATM    7  C7  UNL     1       3.710  -5.454  17.577  1.00  0.00     0.246 C
HETATM    8  O1  UNL     1       3.051  -5.130  18.530  1.00  0.00    -0.268 OA
HETATM    9  N1  UNL     1       3.967  -4.450  16.575  1.00  0.00    -0.310 N
HETATM   10  C8  UNL     1       3.806  -4.339  15.426  1.00  0.00     0.146 C
ATOM     11  H1  UNL     1       4.405  -3.621  16.976  1.00  0.00     0.170 HD
HETATM   12  N2  UNL     1       3.206  -5.283  14.512  1.00  0.00    -0.080 NA
BRANCH  10  13
HETATM   13  C9  UNL     1       4.365  -3.142  14.724  1.00  0.00     0.074 A
HETATM   14  C10 UNL     1       4.805  -3.233  13.432  1.00  0.00     0.035 A
HETATM   15  C11 UNL     1       5.294  -2.004  13.043  1.00  0.00     0.027 A
HETATM   16  C12 UNL     1       5.121  -1.167  14.199  1.00  0.00     0.015 A
HETATM   17  N8  UNL     1       4.568  -1.915  15.125  1.00  0.00    -0.357 N
ATOM     18  H8  UNL     1       4.324  -1.575  16.055  1.00  0.00     0.166 HD
BRANCH  16  19
HETATM   19  C13 UNL     1       5.651   0.223  14.244  1.00  0.00     0.118 C
BRANCH  19  20
HETATM   20  C14 UNL     1       7.053   0.458  13.863  1.00  0.00     0.070 C
HETATM   21  C22 UNL     1       7.399   1.551  12.994  1.00  0.00     0.163 C
BRANCH  20  22
HETATM   22  N3  UNL     1       8.066  -0.432  14.343  1.00  0.00    -0.308 N
HETATM   23  C15 UNL     1       8.006  -1.396  15.381  1.00  0.00     0.320 C
HETATM   24  O2  UNL     1       7.198  -1.708  16.198  1.00  0.00    -0.247 OA
HETATM   25  N4  UNL     1       9.255  -2.211  15.479  1.00  0.00    -0.338 N
ATOM     26  H4  UNL     1      10.066  -2.051  14.880  1.00  0.00     0.164 HD
ATOM     27  H3  UNL     1       8.966  -0.362  13.867  1.00  0.00     0.170 HD
BRANCH  25  28
HETATM   28  C16 UNL     1       9.223  -3.260  16.504  1.00  0.00     0.086 C
HETATM   29  C17 UNL     1       8.107  -4.222  16.261  1.00  0.00     0.025 C
HETATM   30  C18 UNL     1       8.423  -5.160  15.105  1.00  0.00     0.002 C
HETATM   31  C19 UNL     1       9.665  -5.949  15.333  1.00  0.00     0.000 C
HETATM   32  C20 UNL     1      10.455  -5.449  16.530  1.00  0.00     0.002 C
HETATM   33  C21 UNL     1      10.558  -3.964  16.573  1.00  0.00     0.025 C
ENDBRANCH  25  28
ENDBRANCH  20  22
BRANCH  21  34
HETATM   34  O3  UNL     1       8.707   1.689  12.769  1.00  0.00    -0.345 OA
ATOM     35  H3  UNL     1       8.924   2.151  11.968  1.00  0.00     0.219 HD
ENDBRANCH  21  34
BRANCH  21  36
HETATM   36  N5  UNL     1       6.734   2.569  12.303  1.00  0.00    -0.337 N
HETATM   37  C23 UNL     1       6.955   3.978  12.459  1.00  0.00     0.228 C
HETATM   38  C24 UNL     1       7.909   4.386  11.344  1.00  0.00     0.236 C
HETATM   39  O4  UNL     1       8.612   5.373  11.428  1.00  0.00    -0.272 OA
HETATM   40  N6  UNL     1       7.846   3.466  10.234  1.00  0.00    -0.349 N
HETATM   41  C25 UNL     1       6.563   2.883   9.909  1.00  0.00     0.053 C
ATOM     42  H6  UNL     1       8.681   3.234   9.696  1.00  0.00     0.163 HD
HETATM   43  C26 UNL     1       6.824   1.796   8.854  1.00  0.00     0.041 C
HETATM   44  C27 UNL     1       5.767   3.965   9.271  1.00  0.00     0.041 C
HETATM   45  C28 UNL     1       5.869   2.262  11.145  1.00  0.00     0.188 C
BRANCH  45  46
HETATM   46  C29 UNL     1       4.467   2.453  11.218  1.00  0.00     0.140 C
BRANCH  46  47
HETATM   47  O5  UNL     1       4.140   3.652  11.689  1.00  0.00    -0.348 OA
ATOM     48  H5  UNL     1       4.332   4.350  11.074  1.00  0.00     0.219 HD
ENDBRANCH  46  47
BRANCH  46  49
HETATM   49  N7  UNL     1       3.320   1.690  10.924  1.00  0.00    -0.349 N
HETATM   50  C30 UNL     1       3.078   0.273  11.217  1.00  0.00     0.126 C
HETATM   51  C31 UNL     1       1.790   0.345  11.997  1.00  0.00     0.022 C
HETATM   52  C32 UNL     1       1.035   1.368  11.215  1.00  0.00     0.038 C
HETATM   53  C33 UNL     1       2.085   2.050  10.286  1.00  0.00     0.187 C
BRANCH  53  54
HETATM   54  C34 UNL     1       1.708   3.468  10.179  1.00  0.00     0.196 C
HETATM   55  O6  UNL     1       2.294   4.115   9.267  1.00  0.00    -0.646 OA
HETATM   56  O7  UNL     1       0.800   4.162  10.933  1.00  0.00    -0.646 OA
ENDBRANCH  53  54
ENDBRANCH  46  49
ENDBRANCH  45  46
ENDBRANCH  21  36
ENDBRANCH  19  20
ENDBRANCH  16  19
ENDBRANCH  10  13
ENDBRANCH   6   7
ENDBRANCH   4   5
TORSDOF 13
ENDMDL