MODEL 1
REMARK VINA RESULT: -7.831551788      0.000      0.000
REMARK  12 active torsions:
REMARK  status: ('A' for Active; 'I' for Inactive)
REMARK    1  A    between atoms: C3_3  and  C4_4
REMARK    2  A    between atoms: C4_4  and  C5_5
REMARK    3  A    between atoms: C5_5  and  C6_6
REMARK    4  A    between atoms: C6_6  and  C7_7
REMARK    5  A    between atoms: C9_12  and  C10_13
REMARK    6  A    between atoms: C20_29  and  C21_30
REMARK    7  A    between atoms: C21_30  and  C22_31
REMARK    8  A    between atoms: C22_31  and  C23_32
REMARK    9  A    between atoms: C23_32  and  C24_33
REMARK   10  A    between atoms: C24_33  and  N4_34
REMARK   11  A    between atoms: C26_42  and  C27_43
REMARK   12  A    between atoms: C27_43  and  C28_44
ROOT
HETATM    1  C1  UNL     1       3.413  -1.816  14.616  1.00  0.00     0.012 C
HETATM    2  C2  UNL     1       2.812  -2.560  15.348  1.00  0.00    -0.117 C
HETATM    3  C3  UNL     1       2.106  -3.478  16.230  1.00  0.00     0.093 C
ENDROOT
BRANCH   3   4
HETATM    4  C4  UNL     1       2.637  -3.402  17.666  1.00  0.00     0.012 C
BRANCH   4   5
HETATM    5  C5  UNL     1       3.131  -4.725  18.127  1.00  0.00     0.003 C
BRANCH   5   6
HETATM    6  C6  UNL     1       4.563  -4.963  17.943  1.00  0.00     0.035 C
BRANCH   6   7
HETATM    7  C7  UNL     1       5.131  -5.396  16.665  1.00  0.00     0.176 C
HETATM    8  N1  UNL     1       5.666  -4.321  15.855  1.00  0.00    -0.346 N
HETATM    9  C8  UNL     1       6.900  -4.188  15.226  1.00  0.00     0.241 C
ATOM     10  H1  UNL     1       5.033  -3.532  15.723  1.00  0.00     0.163 HD
HETATM   11  O1  UNL     1       6.889  -4.197  13.927  1.00  0.00    -0.271 OA
HETATM   12  C9  UNL     1       8.245  -4.032  15.805  1.00  0.00     0.180 C
HETATM   13  N2  UNL     1       8.446  -4.578  17.115  1.00  0.00    -0.344 N
HETATM   14  C13 UNL     1       9.701  -5.076  17.555  1.00  0.00     0.241 C
ATOM     15  H2  UNL     1       7.654  -4.610  17.758  1.00  0.00     0.163 HD
HETATM   16  O2  UNL     1      10.141  -4.699  18.713  1.00  0.00    -0.269 OA
HETATM   17  C14 UNL     1      10.556  -5.984  16.821  1.00  0.00     0.070 C
HETATM   18  C15 UNL     1      10.238  -7.142  16.302  1.00  0.00    -0.021 C
HETATM   19  C16 UNL     1       8.908  -7.777  16.362  1.00  0.00     0.029 C
HETATM   20  C17 UNL     1       8.560  -8.240  17.752  1.00  0.00     0.023 C
HETATM   21  C18 UNL     1       9.568  -9.181  18.279  1.00  0.00     0.123 C
HETATM   22  N3  UNL     1       9.517 -10.534  17.845  1.00  0.00    -0.356 N
HETATM   23  C19 UNL     1       8.441 -11.355  17.545  1.00  0.00     0.267 C
ATOM     24  H3  UNL     1      10.429 -10.978  17.735  1.00  0.00     0.162 HD
HETATM   25  O3  UNL     1       8.557 -12.067  16.481  1.00  0.00    -0.266 OA
HETATM   26  C20 UNL     1       7.169 -11.539  18.274  1.00  0.00     0.099 C
HETATM   27  N5  UNL     1       6.433 -12.710  17.819  1.00  0.00    -0.321 N
HETATM   28  C25 UNL     1       5.085 -12.684  17.361  1.00  0.00     0.245 C
ATOM     29  H5  UNL     1       6.916 -13.608  17.828  1.00  0.00     0.169 HD
HETATM   30  O4  UNL     1       4.314 -13.590  17.757  1.00  0.00    -0.271 OA
HETATM   31  C26 UNL     1       4.520 -11.660  16.446  1.00  0.00     0.177 C
HETATM   32  N6  UNL     1       3.482 -10.863  17.012  1.00  0.00    -0.346 N
HETATM   33  C31 UNL     1       3.584  -9.565  17.536  1.00  0.00     0.236 C
ATOM     34  H6  UNL     1       2.555 -11.286  17.040  1.00  0.00     0.163 HD
HETATM   35  O5  UNL     1       2.877  -9.224  18.548  1.00  0.00    -0.272 OA
HETATM   36  C32 UNL     1       4.469  -8.493  17.013  1.00  0.00     0.228 C
HETATM   37  N7  UNL     1       3.739  -7.521  16.253  1.00  0.00    -0.346 N
HETATM   38  C33 UNL     1       2.388  -7.862  15.860  1.00  0.00     0.153 C
HETATM   39  C34 UNL     1       4.282  -6.278  15.863  1.00  0.00     0.242 C
HETATM   40  O6  UNL     1       4.002  -5.881  14.665  1.00  0.00    -0.271 OA
BRANCH  12  41
HETATM   41  C10 UNL     1       8.646  -2.561  15.881  1.00  0.00     0.009 C
HETATM   42  C11 UNL     1      10.110  -2.404  15.538  1.00  0.00     0.012 C
HETATM   43  C12 UNL     1       7.852  -1.735  14.889  1.00  0.00     0.012 C
ENDBRANCH  12  41
BRANCH  26  44
HETATM   44  C21 UNL     1       7.184 -11.310  19.720  1.00  0.00     0.009 C
BRANCH  44  45
HETATM   45  C22 UNL     1       7.770 -12.263  20.656  1.00  0.00     0.031 C
BRANCH  45  46
HETATM   46  C23 UNL     1       9.131 -12.009  21.191  1.00  0.00     0.031 C
BRANCH  46  47
HETATM   47  C24 UNL     1       9.104 -10.580  21.766  1.00  0.00     0.230 C
BRANCH  47  48
HETATM   48  N4  UNL     1      10.453 -10.063  21.880  1.00  0.00    -0.079 N
ATOM     49  H43 UNL     1      10.753  -9.990  22.852  1.00  0.00     0.274 HD
ATOM     50  H42 UNL     1      11.148 -10.738  21.560  1.00  0.00     0.274 HD
ATOM     51  H41 UNL     1      10.530  -9.173  21.388  1.00  0.00     0.274 HD
ENDBRANCH  47  48
ENDBRANCH  46  47
ENDBRANCH  45  46
ENDBRANCH  44  45
ENDBRANCH  26  44
BRANCH  31  52
HETATM   52  C27 UNL     1       3.924 -12.474  15.286  1.00  0.00     0.038 C
BRANCH  52  53
HETATM   53  C28 UNL     1       3.008 -11.643  14.435  1.00  0.00    -0.020 C
HETATM   54  C29 UNL     1       2.242 -12.637  13.552  1.00  0.00     0.009 C
HETATM   55  C30 UNL     1       3.834 -10.787  13.501  1.00  0.00     0.009 C
ENDBRANCH  52  53
ENDBRANCH  31  52
ENDBRANCH   6   7
ENDBRANCH   5   6
ENDBRANCH   4   5
ENDBRANCH   3   4
TORSDOF 12
ENDMDL