MODEL 3
REMARK VINA RESULT: -6.914373974      9.686     17.140
REMARK  14 active torsions:
REMARK  status: ('A' for Active; 'I' for Inactive)
REMARK    1  A    between atoms: C2_2  and  C4_4
REMARK    2  A    between atoms: C4_4  and  C5_5
REMARK    3  A    between atoms: C9_15  and  C10_16
REMARK    4  A    between atoms: C10_16  and  C11_17
REMARK    5  A    between atoms: C15_24  and  C16_25
REMARK    6  A    between atoms: C16_25  and  C17_26
REMARK    7  A    between atoms: C20_31  and  O4_32
REMARK    8  A    between atoms: C21_34  and  O5_35
REMARK    9  A    between atoms: C22_37  and  C23_38
REMARK   10  A    between atoms: C23_38  and  C24_39
REMARK   11  A    between atoms: C24_39  and  C25_40
REMARK   12  A    between atoms: C25_40  and  N5_41
REMARK   13  A    between atoms: C29_47  and  O6_48
REMARK   14  A    between atoms: C30_50  and  C31_51
ROOT
HETATM    1  C5  UNL     1       9.161 -10.264  18.856  1.00  0.00     0.177 C
HETATM    2  N1  UNL     1       9.333 -11.570  18.301  1.00  0.00    -0.346 N
ATOM      3  H1  UNL     1      10.305 -11.847  18.161  1.00  0.00     0.163 HD
HETATM    4  C6  UNL     1       8.392 -12.534  17.917  1.00  0.00     0.236 C
HETATM    5  O1  UNL     1       8.338 -13.622  18.552  1.00  0.00    -0.272 OA
HETATM    6  C7  UNL     1       7.396 -12.429  16.793  1.00  0.00     0.225 C
HETATM    7  N2  UNL     1       6.248 -13.223  17.089  1.00  0.00    -0.351 N
ATOM      8  H2  UNL     1       6.446 -14.218  17.200  1.00  0.00     0.163 HD
HETATM    9  C8  UNL     1       4.911 -12.890  17.253  1.00  0.00     0.240 C
HETATM   10  O2  UNL     1       4.308 -13.450  18.241  1.00  0.00    -0.271 OA
HETATM   11  C9  UNL     1       4.090 -11.964  16.430  1.00  0.00     0.177 C
HETATM   12  N3  UNL     1       4.284 -10.589  16.841  1.00  0.00    -0.346 N
ATOM     13  H3  UNL     1       5.181 -10.174  16.591  1.00  0.00     0.163 HD
HETATM   14  C14 UNL     1       3.397  -9.755  17.538  1.00  0.00     0.241 C
HETATM   15  O3  UNL     1       3.771  -9.362  18.703  1.00  0.00    -0.271 OA
HETATM   16  C15 UNL     1       2.072  -9.267  17.085  1.00  0.00     0.176 C
HETATM   17  N4  UNL     1       2.317  -8.234  16.114  1.00  0.00    -0.356 N
ATOM     18  H4  UNL     1       2.502  -8.593  15.177  1.00  0.00     0.162 HD
HETATM   19  C20 UNL     1       2.353  -6.851  16.192  1.00  0.00     0.169 C
HETATM   20  C21 UNL     1       3.257  -5.918  16.784  1.00  0.00     0.120 C
HETATM   21  C22 UNL     1       4.718  -5.807  16.807  1.00  0.00     0.167 C
HETATM   22  N6  UNL     1       5.268  -6.251  18.097  1.00  0.00    -0.359 N
ATOM     23  H6  UNL     1       4.553  -6.560  18.756  1.00  0.00     0.162 HD
HETATM   24  C29 UNL     1       6.542  -6.334  18.598  1.00  0.00     0.136 C
HETATM   25  C30 UNL     1       7.730  -7.142  18.208  1.00  0.00     0.162 C
HETATM   26  N7  UNL     1       7.466  -8.512  17.906  1.00  0.00    -0.347 N
ATOM     27  H7  UNL     1       6.943  -8.667  17.045  1.00  0.00     0.163 HD
HETATM   28  C34 UNL     1       7.812  -9.682  18.603  1.00  0.00     0.241 C
HETATM   29  O7  UNL     1       6.884 -10.413  19.131  1.00  0.00    -0.271 OA
ENDROOT
BRANCH  21  30
HETATM   30  C23 UNL     1       5.125  -4.410  16.489  1.00  0.00     0.003 C
BRANCH  30  31
HETATM   31  C24 UNL     1       6.203  -4.059  15.587  1.00  0.00    -0.001 C
BRANCH  31  32
HETATM   32  C25 UNL     1       7.091  -2.913  15.831  1.00  0.00     0.263 C
BRANCH  32  33
HETATM   33  N5  UNL     1       6.949  -1.894  14.762  1.00  0.00    -0.075 N
HETATM   34  C26 UNL     1       6.753  -2.619  13.521  1.00  0.00     0.272 C
HETATM   35  C27 UNL     1       5.812  -1.054  14.985  1.00  0.00     0.272 C
HETATM   36  C28 UNL     1       8.143  -1.102  14.632  1.00  0.00     0.272 C
ENDBRANCH  32  33
ENDBRANCH  31  32
ENDBRANCH  30  31
ENDBRANCH  21  30
BRANCH  20  37
HETATM   37  O5  UNL     1       2.671  -4.959  17.447  1.00  0.00    -0.359 OA
ATOM     38  H5  UNL     1       3.213  -4.189  17.573  1.00  0.00     0.217 HD
ENDBRANCH  20  37
BRANCH  19  39
HETATM   39  O4  UNL     1       1.333  -6.270  15.590  1.00  0.00    -0.344 OA
ATOM     40  H4  UNL     1       1.289  -5.335  15.748  1.00  0.00     0.219 HD
ENDBRANCH  19  39
BRANCH  24  41
HETATM   41  O6  UNL     1       6.789  -5.564  19.625  1.00  0.00    -0.348 OA
ATOM     42  H6  UNL     1       7.488  -5.861  20.196  1.00  0.00     0.219 HD
ENDBRANCH  24  41
BRANCH  25  43
HETATM   43  C31 UNL     1       8.509  -6.369  17.178  1.00  0.00     0.008 C
HETATM   44  C32 UNL     1       9.464  -5.424  17.933  1.00  0.00     0.012 C
HETATM   45  C33 UNL     1       9.430  -7.210  16.332  1.00  0.00     0.012 C
ENDBRANCH  25  43
BRANCH  16  46
HETATM   46  C16 UNL     1       1.186  -8.892  18.233  1.00  0.00     0.038 C
BRANCH  46  47
HETATM   47  C17 UNL     1       0.395 -10.005  18.811  1.00  0.00    -0.020 C
HETATM   48  C18 UNL     1       0.527 -11.250  17.917  1.00  0.00     0.009 C
HETATM   49  C19 UNL     1       0.771 -10.444  20.178  1.00  0.00     0.009 C
ENDBRANCH  46  47
ENDBRANCH  16  46
BRANCH   1  50
HETATM   50  C4  UNL     1       9.401 -10.248  20.330  1.00  0.00     0.038 C
BRANCH  50  51
HETATM   51  C2  UNL     1       9.921 -11.498  20.954  1.00  0.00    -0.020 C
HETATM   52  C1  UNL     1      11.178 -11.135  21.812  1.00  0.00     0.009 C
HETATM   53  C3  UNL     1       9.003 -12.166  21.924  1.00  0.00     0.009 C
ENDBRANCH  50  51
ENDBRANCH   1  50
BRANCH  11  54
HETATM   54  C10 UNL     1       4.392 -12.072  14.961  1.00  0.00     0.038 C
BRANCH  54  55
HETATM   55  C11 UNL     1       3.306 -11.530  14.082  1.00  0.00    -0.020 C
HETATM   56  C12 UNL     1       2.568 -12.703  13.472  1.00  0.00     0.009 C
HETATM   57  C13 UNL     1       3.884 -10.721  12.917  1.00  0.00     0.009 C
ENDBRANCH  54  55
ENDBRANCH  11  54
TORSDOF 14
ENDMDL