MODEL 3
REMARK VINA RESULT: -6.162549632      2.643      6.959
REMARK  11 active torsions:
REMARK  status: ('A' for Active; 'I' for Inactive)
REMARK    1  A    between atoms: C2_2  and  C3_3
REMARK    2  A    between atoms: C3_3  and  S1_4
REMARK    3  A    between atoms: S1_4  and  C4_6
REMARK    4  A    between atoms: C4_6  and  C5_7
REMARK    5  A    between atoms: C20_32  and  C21_33
REMARK    6  A    between atoms: C25_40  and  C26_41
REMARK    7  A    between atoms: C26_41  and  C27_42
REMARK    8  A    between atoms: C27_42  and  C28_43
REMARK    9  A    between atoms: C28_43  and  C29_44
REMARK   10  A    between atoms: C29_44  and  C30_45
REMARK   11  A    between atoms: C30_45  and  C31_46
ROOT
HETATM    1  C5  UNL     1       3.799  -8.424  17.297  1.00  0.00     0.089 C
HETATM    2  C6  UNL     1       2.509  -8.207  18.026  1.00  0.00     0.015 C
HETATM    3  C7  UNL     1       1.336  -8.940  17.452  1.00  0.00     0.002 C
HETATM    4  C8  UNL     1       0.839 -10.044  18.356  1.00  0.00     0.020 C
HETATM    5  C9  UNL     1       0.420  -9.522  19.709  1.00  0.00     0.122 C
HETATM    6  N1  UNL     1      -0.518 -10.404  20.376  1.00  0.00    -0.361 N
ATOM      7  H1  UNL     1      -1.468 -10.456  20.007  1.00  0.00     0.162 HD
HETATM    8  C10 UNL     1      -0.201 -11.199  21.510  1.00  0.00     0.217 C
HETATM    9  O2  UNL     1      -1.032 -12.062  21.888  1.00  0.00    -0.274 OA
HETATM   10  C11 UNL     1       1.069 -11.053  22.263  1.00  0.00     0.112 C
HETATM   11  C12 UNL     1       1.227 -12.234  23.207  1.00  0.00     0.112 C
HETATM   12  C13 UNL     1       1.794 -13.436  22.528  1.00  0.00     0.218 C
HETATM   13  O3  UNL     1       1.188 -14.557  22.700  1.00  0.00    -0.274 OA
HETATM   14  N2  UNL     1       2.928 -13.477  21.717  1.00  0.00    -0.348 N
ATOM     15  H2  UNL     1       2.814 -13.956  20.824  1.00  0.00     0.163 HD
HETATM   16  C14 UNL     1       4.238 -12.933  21.969  1.00  0.00     0.172 C
HETATM   17  C15 UNL     1       4.311 -12.356  23.378  1.00  0.00     0.042 C
HETATM   18  C16 UNL     1       5.343 -13.907  21.782  1.00  0.00     0.240 C
HETATM   19  O4  UNL     1       5.706 -14.526  22.828  1.00  0.00    -0.271 OA
HETATM   20  N3  UNL     1       6.018 -14.208  20.591  1.00  0.00    -0.348 N
ATOM     21  H3  UNL     1       7.034 -14.281  20.636  1.00  0.00     0.163 HD
HETATM   22  C17 UNL     1       5.394 -14.427  19.302  1.00  0.00     0.152 C
HETATM   23  C18 UNL     1       4.808 -15.854  19.240  1.00  0.00     0.040 C
HETATM   24  C19 UNL     1       6.278 -14.228  18.140  1.00  0.00     0.172 C
HETATM   25  O5  UNL     1       6.317 -15.138  17.291  1.00  0.00    -0.293 OA
HETATM   26  C20 UNL     1       7.139 -13.063  17.848  1.00  0.00     0.159 C
HETATM   27  N4  UNL     1       7.553 -12.282  18.962  1.00  0.00    -0.347 N
ATOM     28  H4  UNL     1       8.354 -12.652  19.474  1.00  0.00     0.163 HD
HETATM   29  C24 UNL     1       7.033 -11.086  19.462  1.00  0.00     0.241 C
HETATM   30  O6  UNL     1       7.228 -10.901  20.724  1.00  0.00    -0.271 OA
HETATM   31  C25 UNL     1       6.306 -10.031  18.752  1.00  0.00     0.176 C
HETATM   32  N5  UNL     1       5.018 -10.479  18.262  1.00  0.00    -0.347 N
ATOM     33  H5  UNL     1       4.663 -11.348  18.661  1.00  0.00     0.163 HD
HETATM   34  C34 UNL     1       4.210  -9.865  17.314  1.00  0.00     0.223 C
HETATM   35  O7  UNL     1       3.763 -10.581  16.354  1.00  0.00    -0.273 OA
ENDROOT
BRANCH  31  36
HETATM   36  C26 UNL     1       7.169  -9.430  17.698  1.00  0.00     0.035 C
BRANCH  36  37
HETATM   37  C27 UNL     1       8.248  -8.598  18.402  1.00  0.00     0.002 C
BRANCH  37  38
HETATM   38  C28 UNL     1       9.226  -8.045  17.385  1.00  0.00     0.000 C
BRANCH  38  39
HETATM   39  C29 UNL     1       9.746  -6.699  17.754  1.00  0.00     0.000 C
BRANCH  39  40
HETATM   40  C30 UNL     1      10.486  -5.976  16.678  1.00  0.00     0.004 C
BRANCH  40  41
HETATM   41  C31 UNL     1       9.487  -5.146  15.895  1.00  0.00    -0.023 C
HETATM   42  C32 UNL     1       9.803  -3.686  15.931  1.00  0.00     0.009 C
HETATM   43  C33 UNL     1       9.352  -5.589  14.459  1.00  0.00     0.009 C
ENDBRANCH  40  41
ENDBRANCH  39  40
ENDBRANCH  38  39
ENDBRANCH  37  38
ENDBRANCH  36  37
ENDBRANCH  31  36
BRANCH  26  44
HETATM   44  C21 UNL     1       8.397 -13.654  17.178  1.00  0.00     0.007 C
HETATM   45  C22 UNL     1       9.210 -12.647  16.449  1.00  0.00     0.012 C
HETATM   46  C23 UNL     1       9.268 -14.358  18.179  1.00  0.00     0.012 C
ENDBRANCH  26  44
BRANCH   1  47
HETATM   47  C4  UNL     1       3.821  -7.941  15.885  1.00  0.00     0.123 C
BRANCH  47  48
HETATM   48  S1  UNL     1       3.430  -6.252  15.652  1.00  0.00     0.019 S
HETATM   49  O1  UNL     1       2.615  -5.983  14.210  1.00  0.00    -0.258 OA
BRANCH  48  50
HETATM   50  C3  UNL     1       4.991  -5.368  15.489  1.00  0.00     0.135 C
BRANCH  50  51
HETATM   51  C2  UNL     1       5.434  -4.868  16.816  1.00  0.00    -0.025 C
HETATM   52  C1  UNL     1       6.202  -5.563  17.642  1.00  0.00     0.008 C
ENDBRANCH  50  51
ENDBRANCH  48  50
ENDBRANCH  47  48
ENDBRANCH   1  47
TORSDOF 11
ENDMDL