MODEL 5
REMARK VINA RESULT: -7.237169699     10.714     16.935
REMARK  12 active torsions:
REMARK  status: ('A' for Active; 'I' for Inactive)
REMARK    1  A    between atoms: C2_2  and  N1_3
REMARK    2  A    between atoms: N1_3  and  C3_4
REMARK       I    between atoms: N1_3  and  C34_53
REMARK    3  A    between atoms: C3_4  and  C4_5
REMARK    4  A    between atoms: C4_5  and  C5_6
REMARK    5  A    between atoms: C5_6  and  C6_7
REMARK    6  A    between atoms: C8_12  and  C9_13
REMARK    7  A    between atoms: C9_13  and  C10_14
REMARK    8  A    between atoms: C10_14  and  C11_15
REMARK    9  A    between atoms: C11_15  and  C12_16
REMARK   10  A    between atoms: C12_16  and  N3_17
REMARK   11  A    between atoms: C24_37  and  C25_38
REMARK   12  A    between atoms: C33_50  and  O5_51
ROOT
HETATM    1  C6  UNL     1       6.986  -8.574  17.890  1.00  0.00     0.159 C
HETATM    2  N2  UNL     1       5.610  -8.717  18.308  1.00  0.00    -0.347 N
ATOM      3  H2  UNL     1       5.432  -9.200  19.188  1.00  0.00     0.163 HD
HETATM    4  C7  UNL     1       4.481  -8.232  17.580  1.00  0.00     0.241 C
HETATM    5  O1  UNL     1       3.450  -8.030  18.324  1.00  0.00    -0.271 OA
HETATM    6  C8  UNL     1       4.368  -7.954  16.180  1.00  0.00     0.176 C
HETATM    7  N4  UNL     1       3.856  -8.928  15.280  1.00  0.00    -0.347 N
ATOM      8  H4  UNL     1       3.688  -8.575  14.337  1.00  0.00     0.163 HD
HETATM    9  C13 UNL     1       3.537 -10.291  15.449  1.00  0.00     0.223 C
HETATM   10  O2  UNL     1       4.107 -11.063  14.595  1.00  0.00    -0.273 OA
HETATM   11  C14 UNL     1       2.688 -10.955  16.406  1.00  0.00     0.084 C
HETATM   12  C15 UNL     1       1.563 -11.687  15.692  1.00  0.00     0.014 C
HETATM   13  C16 UNL     1       0.542 -12.061  16.680  1.00  0.00     0.001 C
HETATM   14  C17 UNL     1       0.821 -11.897  18.119  1.00  0.00     0.001 C
HETATM   15  C18 UNL     1       2.212 -11.769  18.579  1.00  0.00     0.007 C
HETATM   16  C19 UNL     1       3.255 -11.812  17.474  1.00  0.00     0.021 C
HETATM   17  C20 UNL     1       3.697 -13.186  17.143  1.00  0.00     0.087 C
HETATM   18  C21 UNL     1       5.080 -13.246  16.501  1.00  0.00     0.033 C
HETATM   19  N5  UNL     1       3.644 -14.097  18.272  1.00  0.00    -0.350 N
HETATM   20  C22 UNL     1       2.463 -14.964  18.379  1.00  0.00     0.153 C
HETATM   21  C23 UNL     1       4.623 -14.275  19.269  1.00  0.00     0.243 C
HETATM   22  O3  UNL     1       4.940 -15.469  19.643  1.00  0.00    -0.271 OA
HETATM   23  C24 UNL     1       5.400 -13.249  20.005  1.00  0.00     0.180 C
HETATM   24  N6  UNL     1       6.817 -13.398  19.708  1.00  0.00    -0.346 N
ATOM     25  H6  UNL     1       7.073 -14.233  19.179  1.00  0.00     0.163 HD
HETATM   26  C28 UNL     1       7.869 -12.555  20.049  1.00  0.00     0.241 C
HETATM   27  O4  UNL     1       8.917 -13.138  20.510  1.00  0.00    -0.271 OA
HETATM   28  C29 UNL     1       7.956 -11.084  19.954  1.00  0.00     0.178 C
HETATM   29  C30 UNL     1       9.056 -10.548  20.850  1.00  0.00     0.037 C
HETATM   30  C31 UNL     1      10.300 -10.869  20.058  1.00  0.00     0.022 C
HETATM   31  C32 UNL     1       9.790 -11.176  18.641  1.00  0.00     0.126 C
HETATM   32  N7  UNL     1       8.426 -10.601  18.660  1.00  0.00    -0.350 N
HETATM   33  C33 UNL     1       7.724  -9.820  17.739  1.00  0.00     0.137 C
ENDROOT
BRANCH   1  34
HETATM   34  C5  UNL     1       7.593  -7.505  18.731  1.00  0.00     0.035 C
BRANCH  34  35
HETATM   35  C4  UNL     1       7.499  -6.112  18.150  1.00  0.00     0.022 C
BRANCH  35  36
HETATM   36  C3  UNL     1       8.256  -6.109  16.827  1.00  0.00     0.127 C
BRANCH  36  37
HETATM   37  N1  UNL     1       8.747  -4.789  16.592  1.00  0.00    -0.337 N
HETATM   38  C34 UNL     1      10.074  -4.389  16.889  1.00  0.00     0.330 C
HETATM   39  N8  UNL     1      10.516  -3.060  16.637  1.00  0.00    -0.040 NA
HETATM   40  O6  UNL     1      10.852  -5.230  17.381  1.00  0.00    -0.251 OA
BRANCH  37  41
HETATM   41  C2  UNL     1       7.837  -3.789  16.016  1.00  0.00     0.122 C
HETATM   42  C1  UNL     1       7.683  -4.095  14.545  1.00  0.00     0.026 C
ENDBRANCH  37  41
ENDBRANCH  36  37
ENDBRANCH  35  36
ENDBRANCH  34  35
ENDBRANCH   1  34
BRANCH  33  43
HETATM   43  O5  UNL     1       7.743 -10.306  16.533  1.00  0.00    -0.348 OA
ATOM     44  H5  UNL     1       7.201 -11.075  16.402  1.00  0.00     0.219 HD
ENDBRANCH  33  43
BRANCH   6  45
HETATM   45  C9  UNL     1       3.486  -6.685  15.992  1.00  0.00     0.035 C
BRANCH  45  46
HETATM   46  C10 UNL     1       4.398  -5.533  15.780  1.00  0.00     0.004 C
BRANCH  46  47
HETATM   47  C11 UNL     1       3.792  -4.234  15.408  1.00  0.00     0.027 C
BRANCH  47  48
HETATM   48  C12 UNL     1       2.890  -3.590  16.408  1.00  0.00     0.229 C
BRANCH  48  49
HETATM   49  N3  UNL     1       3.519  -2.739  17.363  1.00  0.00    -0.079 N
ATOM     50  H33 UNL     1       2.811  -2.233  17.895  1.00  0.00     0.274 HD
ATOM     51  H32 UNL     1       3.938  -3.302  18.104  1.00  0.00     0.274 HD
ATOM     52  H31 UNL     1       4.209  -2.085  16.995  1.00  0.00     0.274 HD
ENDBRANCH  48  49
ENDBRANCH  47  48
ENDBRANCH  46  47
ENDBRANCH  45  46
ENDBRANCH   6  45
BRANCH  23  53
HETATM   53  C25 UNL     1       5.269 -13.484  21.510  1.00  0.00     0.009 C
HETATM   54  C26 UNL     1       3.936 -13.990  21.933  1.00  0.00     0.012 C
HETATM   55  C27 UNL     1       5.648 -12.319  22.347  1.00  0.00     0.012 C
ENDBRANCH  23  53
TORSDOF 12
ENDMDL