MODEL 5
REMARK VINA RESULT: -7.738351803      3.209      6.956
REMARK  3 active torsions:
REMARK  status: ('A' for Active; 'I' for Inactive)
REMARK    1  A    between atoms: C3_7  and  C4_8
REMARK    2  A    between atoms: N2_9  and  C5_11
REMARK    3  A    between atoms: C6_12  and  O3_13
ROOT
HETATM    1  C4  UNL     1     148.091  71.773  66.087  1.00  0.00     0.085 C
HETATM    2  N2  UNL     1     146.907  71.560  66.568  1.00  0.00    -0.360 N
ATOM      3  H2  UNL     1     146.745  71.728  67.561  1.00  0.00     0.165 HD
ENDROOT
BRANCH   2   4
HETATM    4  C5  UNL     1     145.833  71.107  65.776  1.00  0.00     0.152 A
HETATM    5  C6  UNL     1     145.401  69.800  65.860  1.00  0.00     0.177 A
HETATM    6  N3  UNL     1     144.363  69.359  65.097  1.00  0.00    -0.287 N
HETATM    7  C7  UNL     1     143.748  70.197  64.253  1.00  0.00     0.329 A
ATOM      8  H3  UNL     1     144.054  68.389  65.169  1.00  0.00     0.172 HD
HETATM    9  O4  UNL     1     142.774  69.820  63.523  1.00  0.00    -0.247 OA
HETATM   10  N4  UNL     1     144.142  71.480  64.145  1.00  0.00    -0.273 N
HETATM   11  C8  UNL     1     145.177  71.939  64.899  1.00  0.00     0.280 A
ATOM     12  H4  UNL     1     143.665  72.108  63.499  1.00  0.00     0.173 HD
HETATM   13  O5  UNL     1     145.521  73.131  64.779  1.00  0.00    -0.265 OA
BRANCH   5  14
HETATM   14  O3  UNL     1     146.067  68.963  66.748  1.00  0.00    -0.344 OA
ATOM     15  H3  UNL     1     146.478  68.185  66.390  1.00  0.00     0.219 HD
ENDBRANCH   5  14
ENDBRANCH   2   4
BRANCH   1  16
HETATM   16  C3  UNL     1     149.207  72.255  66.955  1.00  0.00     0.209 C
HETATM   17  C2  UNL     1     150.174  72.939  66.056  1.00  0.00     0.243 C
HETATM   18  N1  UNL     1     149.709  74.093  65.368  1.00  0.00    -0.278 N
HETATM   19  O2  UNL     1     151.357  72.511  65.911  1.00  0.00    -0.272 OA
HETATM   20  C1  UNL     1     148.675  74.889  65.928  1.00  0.00     0.329 C
ATOM     21  H1  UNL     1     150.118  74.350  64.470  1.00  0.00     0.173 HD
HETATM   22  O1  UNL     1     148.235  75.914  65.359  1.00  0.00    -0.247 OA
HETATM   23  N5  UNL     1     148.147  74.470  67.190  1.00  0.00    -0.278 N
HETATM   24  C9  UNL     1     148.636  73.309  67.851  1.00  0.00     0.243 C
ATOM     25  H5  UNL     1     147.403  75.015  67.625  1.00  0.00     0.173 HD
HETATM   26  O6  UNL     1     148.590  73.180  69.096  1.00  0.00    -0.272 OA
ENDBRANCH   1  16
TORSDOF 3
ENDMDL