MODEL 2
REMARK VINA RESULT: -6.770206870      2.492      3.270
REMARK  4 active torsions:
REMARK  status: ('A' for Active; 'I' for Inactive)
REMARK    1  A    between atoms: C3_4  and  N2_5
REMARK    2  A    between atoms: C5_7  and  N3_8
REMARK    3  A    between atoms: C8_15  and  C9_16
REMARK    4  A    between atoms: C10_21  and  N6_22
ROOT
HETATM    1  N1  UNL     1     143.534  73.670  63.607  1.00  0.00    -0.191 NA
HETATM    2  C1  UNL     1     143.997  72.757  64.138  1.00  0.00     0.109 C
HETATM    3  C2  UNL     1     144.577  71.611  64.776  1.00  0.00     0.157 A
HETATM    4  C3  UNL     1     145.739  71.758  65.475  1.00  0.00     0.146 A
HETATM    5  N5  UNL     1     146.252  70.616  66.036  1.00  0.00    -0.175 N
ATOM      6  H5  UNL     1     147.121  70.684  66.566  1.00  0.00     0.186 HD
HETATM    7  C10 UNL     1     145.668  69.421  65.920  1.00  0.00     0.680 A
HETATM    8  N7  UNL     1     144.516  69.250  65.236  1.00  0.00    -0.155 N
ATOM      9  H7  UNL     1     144.066  68.338  65.148  1.00  0.00     0.187 HD
HETATM   10  C11 UNL     1     143.999  70.357  64.679  1.00  0.00     0.284 A
HETATM   11  O3  UNL     1     142.928  70.255  64.028  1.00  0.00    -0.266 OA
ENDROOT
BRANCH   4  12
HETATM   12  N2  UNL     1     146.456  72.942  65.700  1.00  0.00    -0.347 N
HETATM   13  C4  UNL     1     145.876  74.264  65.956  1.00  0.00     0.180 C
HETATM   14  C5  UNL     1     146.792  75.198  65.166  1.00  0.00     0.228 C
HETATM   15  C6  UNL     1     146.993  76.400  65.934  1.00  0.00     0.100 C
HETATM   16  C7  UNL     1     148.057  74.420  64.874  1.00  0.00     0.092 C
HETATM   17  N4  UNL     1     147.138  77.357  66.562  1.00  0.00    -0.195 NA
HETATM   18  C8  UNL     1     147.888  73.083  65.636  1.00  0.00     0.190 C
BRANCH  14  19
HETATM   19  N3  UNL     1     146.132  75.517  63.901  1.00  0.00    -0.056 N
ATOM     20  H33 UNL     1     146.729  75.349  63.091  1.00  0.00     0.276 HD
ATOM     21  H32 UNL     1     145.391  74.855  63.665  1.00  0.00     0.276 HD
ATOM     22  H31 UNL     1     145.798  76.479  63.952  1.00  0.00     0.276 HD
ENDBRANCH  14  19
BRANCH  18  23
HETATM   23  C9  UNL     1     148.551  73.261  66.932  1.00  0.00     0.197 C
HETATM   24  O1  UNL     1     148.202  72.621  67.936  1.00  0.00    -0.646 OA
HETATM   25  O2  UNL     1     149.615  74.181  67.050  1.00  0.00    -0.646 OA
ENDBRANCH  18  23
ENDBRANCH   4  12
BRANCH   7  26
HETATM   26  N6  UNL     1     146.205  68.347  66.444  1.00  0.00    -0.234 N
ATOM     27  H62 UNL     1     146.440  68.389  67.435  1.00  0.00     0.174 HD
ATOM     28  H61 UNL     1     146.356  67.505  65.888  1.00  0.00     0.174 HD
ENDBRANCH   7  26
TORSDOF 4
ENDMDL