MODEL 5
REMARK VINA RESULT: -7.143654511      1.516      3.086
REMARK  3 active torsions:
REMARK  status: ('A' for Active; 'I' for Inactive)
REMARK    1  A    between atoms: C2_3  and  N2_4
REMARK    2  A    between atoms: C4_6  and  N3_7
REMARK       I    between atoms: N3_7  and  C5_9
REMARK       I    between atoms: C5_9  and  N4_11
REMARK       I    between atoms: C6_13  and  N5_14
REMARK       I    between atoms: C6_13  and  N7_19
REMARK    3  A    between atoms: N5_14  and  N6_16
ROOT
HETATM    1  N1  UNL     1     142.419  73.992  63.329  1.00  0.00    -0.196 NA
HETATM    2  C1  UNL     1     142.749  72.914  63.125  1.00  0.00     0.079 C
HETATM    3  C2  UNL     1     143.176  71.560  62.881  1.00  0.00     0.256 C
ENDROOT
BRANCH   3   4
HETATM    4  N2  UNL     1     143.938  70.983  63.965  1.00  0.00    -0.294 N
HETATM    5  C3  UNL     1     144.697  71.757  64.797  1.00  0.00     0.132 A
HETATM    6  C4  UNL     1     145.434  71.272  65.833  1.00  0.00     0.120 A
HETATM    7  C8  UNL     1     145.402  69.885  66.046  1.00  0.00     0.277 A
HETATM    8  O2  UNL     1     146.053  69.374  66.975  1.00  0.00    -0.266 OA
HETATM    9  N9  UNL     1     144.661  69.139  65.231  1.00  0.00    -0.273 N
HETATM   10  C9  UNL     1     143.942  69.670  64.210  1.00  0.00     0.330 A
ATOM     11  H9  UNL     1     144.632  68.131  65.379  1.00  0.00     0.173 HD
HETATM   12  O3  UNL     1     143.247  68.922  63.455  1.00  0.00    -0.246 OA
BRANCH   6  13
HETATM   13  N3  UNL     1     146.207  72.070  66.679  1.00  0.00    -0.302 N
HETATM   14  C5  UNL     1     147.600  72.210  66.682  1.00  0.00     0.339 C
HETATM   15  O1  UNL     1     148.406  71.650  65.933  1.00  0.00    -0.246 OA
HETATM   16  N4  UNL     1     148.165  73.104  67.663  1.00  0.00    -0.139 N
HETATM   17  C6  UNL     1     149.164  73.824  67.344  1.00  0.00     0.709 C
ATOM     18  H4  UNL     1     147.769  73.158  68.602  1.00  0.00     0.189 HD
HETATM   19  N5  UNL     1     149.730  74.703  68.288  1.00  0.00    -0.138 N
HETATM   20  N7  UNL     1     149.716  73.759  66.055  1.00  0.00    -0.124 N
ATOM     21  H5  UNL     1     150.635  74.512  68.718  1.00  0.00     0.205 HD
HETATM   22  C7  UNL     1     151.062  73.388  65.872  1.00  0.00     0.196 C
ATOM     23  H7  UNL     1     149.139  73.982  65.244  1.00  0.00     0.197 HD
HETATM   24  N8  UNL     1     152.165  73.069  65.732  1.00  0.00    -0.171 NA
ATOM     25  H3  UNL     1     145.698  72.614  67.376  1.00  0.00     0.171 HD
BRANCH  19  26
HETATM   26  N6  UNL     1     148.989  75.859  68.613  1.00  0.00    -0.331 N
ATOM     27  H62 UNL     1     149.462  76.703  68.935  1.00  0.00     0.177 HD
ATOM     28  H61 UNL     1     147.976  75.805  68.509  1.00  0.00     0.177 HD
ENDBRANCH  19  26
ENDBRANCH   6  13
ENDBRANCH   3   4
TORSDOF 3
ENDMDL