MODEL 3
REMARK VINA RESULT: -7.180657233      3.897      6.042
REMARK  5 active torsions:
REMARK  status: ('A' for Active; 'I' for Inactive)
REMARK       I    between atoms: N2_3  and  C2_5
REMARK    1  A    between atoms: C2_5  and  C3_7
REMARK    2  A    between atoms: N3_12  and  C8_13
REMARK    3  A    between atoms: C9_16  and  N5_17
REMARK    4  A    between atoms: C10_22  and  N7_23
REMARK    5  A    between atoms: N7_23  and  N8_25
ROOT
HETATM    1  N1  UNL     1     148.103  77.578  62.544  1.00  0.00    -0.172 NA
HETATM    2  C1  UNL     1     147.972  76.495  62.926  1.00  0.00     0.184 C
HETATM    3  N2  UNL     1     147.786  75.167  63.384  1.00  0.00    -0.262 N
ATOM      4  H2  UNL     1     148.285  74.403  62.928  1.00  0.00     0.181 HD
HETATM    5  C2  UNL     1     146.915  74.883  64.471  1.00  0.00     0.254 C
HETATM    6  O1  UNL     1     146.308  75.817  65.031  1.00  0.00    -0.270 OA
ENDROOT
BRANCH   5   7
HETATM    7  C3  UNL     1     146.747  73.499  64.910  1.00  0.00     0.195 C
HETATM    8  C4  UNL     1     145.267  73.187  64.969  1.00  0.00     0.036 C
HETATM    9  C5  UNL     1     144.917  71.907  65.653  1.00  0.00     0.004 C
HETATM   10  C6  UNL     1     145.877  71.395  66.661  1.00  0.00     0.020 C
HETATM   11  C7  UNL     1     147.310  71.640  66.363  1.00  0.00     0.142 C
HETATM   12  N3  UNL     1     147.438  73.096  66.085  1.00  0.00    -0.203 N
BRANCH  12  13
HETATM   13  C8  UNL     1     148.197  73.837  66.991  1.00  0.00     0.710 A
HETATM   14  N4  UNL     1     147.954  75.160  67.201  1.00  0.00    -0.021 N
HETATM   15  C9  UNL     1     148.683  75.880  68.067  1.00  0.00     0.705 A
ATOM     16  H4  UNL     1     147.199  75.614  66.688  1.00  0.00     0.203 HD
HETATM   17  N6  UNL     1     149.680  75.306  68.757  1.00  0.00    -0.020 N
HETATM   18  C10 UNL     1     149.942  73.999  68.570  1.00  0.00     0.725 A
ATOM     19  H6  UNL     1     150.232  75.854  69.416  1.00  0.00     0.203 HD
HETATM   20  N9  UNL     1     149.195  73.282  67.686  1.00  0.00    -0.020 N
ATOM     21  H9  UNL     1     149.403  72.293  67.551  1.00  0.00     0.203 HD
BRANCH  15  22
HETATM   22  N5  UNL     1     148.458  77.130  68.258  1.00  0.00    -0.234 N
ATOM     23  H52 UNL     1     147.488  77.444  68.281  1.00  0.00     0.174 HD
ATOM     24  H51 UNL     1     149.219  77.796  68.389  1.00  0.00     0.174 HD
ENDBRANCH  15  22
BRANCH  18  25
HETATM   25  N7  UNL     1     150.894  73.457  69.256  1.00  0.00    -0.138 N
ATOM     26  H7  UNL     1     151.824  73.874  69.225  1.00  0.00     0.205 HD
BRANCH  25  27
HETATM   27  N8  UNL     1     150.691  72.320  70.037  1.00  0.00    -0.331 N
ATOM     28  H82 UNL     1     151.512  71.780  70.315  1.00  0.00     0.177 HD
ATOM     29  H81 UNL     1     149.762  72.020  70.330  1.00  0.00     0.177 HD
ENDBRANCH  25  27
ENDBRANCH  18  25
ENDBRANCH  12  13
ENDBRANCH   5   7
TORSDOF 5
ENDMDL