MODEL 3
REMARK VINA RESULT: -5.830087522      4.009      6.644
REMARK  3 active torsions:
REMARK  status: ('A' for Active; 'I' for Inactive)
REMARK    1  A    between atoms: C7_12  and  C8_13
REMARK    2  A    between atoms: C8_13  and  O1_14
REMARK    3  A    between atoms: C8_13  and  C10_18
ROOT
HETATM    1  C8  UNL     1     152.680  73.213  64.977  1.00  0.00     0.263 C
HETATM    2  C9  UNL     1     152.984  74.032  66.150  1.00  0.00     0.112 C
HETATM    3  N4  UNL     1     153.222  74.669  67.097  1.00  0.00    -0.193 NA
ENDROOT
BRANCH   1   4
HETATM    4  C7  UNL     1     151.194  73.274  64.725  1.00  0.00     0.240 C
HETATM    5  N3  UNL     1     150.411  73.220  65.947  1.00  0.00    -0.376 N
HETATM    6  C6  UNL     1     149.704  72.023  66.147  1.00  0.00     0.076 C
ATOM      7  H3  UNL     1     150.377  73.994  66.611  1.00  0.00     0.160 HD
HETATM    8  C5  UNL     1     148.390  72.031  66.817  1.00  0.00     0.158 C
HETATM    9  N2  UNL     1     147.281  72.613  66.150  1.00  0.00    -0.417 N
HETATM   10  C4  UNL     1     147.531  73.868  65.531  1.00  0.00     0.115 C
ATOM     11  H2  UNL     1     146.367  72.162  66.117  1.00  0.00     0.153 HD
HETATM   12  C3  UNL     1     146.294  74.698  65.266  1.00  0.00     0.038 C
HETATM   13  C2  UNL     1     146.843  75.870  64.425  1.00  0.00     0.118 C
HETATM   14  N1  UNL     1     148.168  76.186  64.851  1.00  0.00    -0.412 N
HETATM   15  C1  UNL     1     148.266  77.265  65.775  1.00  0.00     0.143 C
HETATM   16  C12 UNL     1     149.187  76.103  63.877  1.00  0.00     0.160 C
HETATM   17  C11 UNL     1     150.483  75.581  64.445  1.00  0.00     0.077 C
HETATM   18  N6  UNL     1     150.965  74.393  63.916  1.00  0.00    -0.376 N
ATOM     19  H6  UNL     1     151.157  74.335  62.916  1.00  0.00     0.160 HD
ENDBRANCH   1   4
BRANCH   1  20
HETATM   20  O1  UNL     1     153.182  71.942  65.105  1.00  0.00    -0.365 OA
ATOM     21  H1  UNL     1     153.668  71.790  65.908  1.00  0.00     0.212 HD
ENDBRANCH   1  20
BRANCH   1  22
HETATM   22  C10 UNL     1     153.353  73.845  63.805  1.00  0.00     0.284 C
HETATM   23  N5  UNL     1     153.486  73.166  62.567  1.00  0.00    -0.058 NA
HETATM   24  O2  UNL     1     153.836  75.006  63.850  1.00  0.00    -0.272 OA
ENDBRANCH   1  22
TORSDOF 3
ENDMDL