MODEL 5
REMARK VINA RESULT: -8.187846717      3.520      5.693
REMARK  4 active torsions:
REMARK  status: ('A' for Active; 'I' for Inactive)
REMARK    1  A    between atoms: O1_2  and  C2_3
REMARK    2  A    between atoms: C2_3  and  N1_4
REMARK    3  A    between atoms: C8_16  and  N4_17
REMARK    4  A    between atoms: C9_22  and  N6_23
ROOT
HETATM    1  N1  UNL     1     148.899  73.819  66.544  1.00  0.00    -0.250 N
HETATM    2  C3  UNL     1     148.450  75.103  66.127  1.00  0.00     0.306 A
HETATM    3  O2  UNL     1     149.085  76.193  66.229  1.00  0.00    -0.263 OA
HETATM    4  C4  UNL     1     147.118  74.895  65.567  1.00  0.00     0.258 A
HETATM    5  O3  UNL     1     146.369  75.783  65.083  1.00  0.00    -0.281 OA
HETATM    6  C5  UNL     1     146.844  73.474  65.681  1.00  0.00     0.116 A
HETATM    7  C6  UNL     1     147.902  72.816  66.265  1.00  0.00     0.136 A
HETATM    8  N2  UNL     1     147.889  71.486  66.480  1.00  0.00    -0.326 N
ATOM      9  H2  UNL     1     148.698  71.045  66.916  1.00  0.00     0.169 HD
HETATM   10  C7  UNL     1     146.829  70.723  66.132  1.00  0.00     0.140 A
HETATM   11  N3  UNL     1     146.790  69.403  66.335  1.00  0.00    -0.176 N
ATOM     12  H3  UNL     1     147.593  68.951  66.771  1.00  0.00     0.186 HD
HETATM   13  C8  UNL     1     145.717  68.634  65.983  1.00  0.00     0.679 A
HETATM   14  N5  UNL     1     144.650  69.205  65.411  1.00  0.00    -0.176 N
ATOM     15  H5  UNL     1     143.841  68.645  65.143  1.00  0.00     0.186 HD
HETATM   16  C9  UNL     1     144.666  70.533  65.196  1.00  0.00     0.132 A
HETATM   17  C10 UNL     1     145.747  71.328  65.547  1.00  0.00     0.104 A
HETATM   18  C11 UNL     1     145.749  72.690  65.322  1.00  0.00     0.207 A
HETATM   19  O4  UNL     1     144.758  73.248  64.784  1.00  0.00    -0.286 OA
ENDROOT
BRANCH   1  20
HETATM   20  C2  UNL     1     150.158  73.504  67.170  1.00  0.00     0.237 C
BRANCH  20  21
HETATM   21  O1  UNL     1     150.102  72.506  68.121  1.00  0.00    -0.351 OA
HETATM   22  C1  UNL     1     150.441  72.886  69.403  1.00  0.00     0.210 C
ENDBRANCH  20  21
ENDBRANCH   1  20
BRANCH  16  23
HETATM   23  N6  UNL     1     143.678  71.131  64.653  1.00  0.00    -0.384 N
ATOM     24  H62 UNL     1     143.348  70.746  63.769  1.00  0.00     0.157 HD
ATOM     25  H61 UNL     1     143.246  71.948  65.087  1.00  0.00     0.157 HD
ENDBRANCH  16  23
BRANCH  13  26
HETATM   26  N4  UNL     1     145.732  67.376  66.199  1.00  0.00    -0.234 N
ATOM     27  H42 UNL     1     146.060  67.014  67.094  1.00  0.00     0.174 HD
ATOM     28  H41 UNL     1     145.417  66.729  65.476  1.00  0.00     0.174 HD
ENDBRANCH  13  26
TORSDOF 4
ENDMDL