MODEL 2
REMARK VINA RESULT: -6.886060430      2.431      3.593
REMARK  6 active torsions:
REMARK  status: ('A' for Active; 'I' for Inactive)
REMARK    1  A    between atoms: C3_3  and  C4_4
REMARK    2  A    between atoms: C4_4  and  N3_10
REMARK    3  A    between atoms: N1_5  and  N2_7
REMARK       I    between atoms: N3_10  and  C5_12
REMARK       I    between atoms: C5_12  and  N6_18
REMARK    4  A    between atoms: N4_13  and  N5_15
REMARK    5  A    between atoms: N6_18  and  N7_20
REMARK    6  A    between atoms: C8_27  and  S1_28
ROOT
HETATM    1  C4  UNL     1     144.383  70.114  64.923  1.00  0.00     0.147 C
HETATM    2  N1  UNL     1     143.493  70.561  64.119  1.00  0.00    -0.291 N
ATOM      3  H1  UNL     1     143.569  71.544  63.858  1.00  0.00     0.188 HD
ENDROOT
BRANCH   1   4
HETATM    4  C3  UNL     1     145.413  71.028  65.392  1.00  0.00     0.033 A
HETATM    5  C2  UNL     1     145.434  72.377  65.105  1.00  0.00    -0.023 A
HETATM    6  C1  UNL     1     144.391  72.971  64.262  1.00  0.00     0.051 C
HETATM    7  C8  UNL     1     146.423  73.206  65.580  1.00  0.00     0.097 A
HETATM    8  C7  UNL     1     147.404  72.640  66.362  1.00  0.00     0.112 A
HETATM    9  N8  UNL     1     147.382  71.305  66.644  1.00  0.00    -0.373 N
HETATM   10  C6  UNL     1     146.429  70.490  66.190  1.00  0.00     0.103 A
ATOM     11  H8  UNL     1     148.123  70.915  67.226  1.00  0.00     0.164 HD
BRANCH   7  12
HETATM   12  S1  UNL     1     146.453  74.894  65.229  1.00  0.00     0.288 S
HETATM   13  O1  UNL     1     147.371  75.251  64.081  1.00  0.00    -0.206 OA
HETATM   14  O2  UNL     1     146.741  75.751  66.447  1.00  0.00    -0.206 OA
ENDBRANCH   7  12
ENDBRANCH   1   4
BRANCH   1  15
HETATM   15  N3  UNL     1     144.309  68.749  65.310  1.00  0.00    -0.172 N
HETATM   16  C5  UNL     1     144.740  67.657  64.544  1.00  0.00     0.712 C
HETATM   17  N4  UNL     1     145.547  66.765  65.004  1.00  0.00    -0.137 N
HETATM   18  N6  UNL     1     144.293  67.493  63.204  1.00  0.00    -0.137 N
ATOM     19  H4  UNL     1     145.848  65.978  64.429  1.00  0.00     0.205 HD
ATOM     20  H6  UNL     1     144.066  68.317  62.649  1.00  0.00     0.205 HD
ATOM     21  H3  UNL     1     143.907  68.545  66.225  1.00  0.00     0.186 HD
BRANCH  17  22
HETATM   22  N5  UNL     1     145.996  66.912  66.319  1.00  0.00    -0.331 N
ATOM     23  H52 UNL     1     146.968  66.712  66.556  1.00  0.00     0.177 HD
ATOM     24  H51 UNL     1     145.321  67.221  67.019  1.00  0.00     0.177 HD
ENDBRANCH  17  22
BRANCH  18  25
HETATM   25  N7  UNL     1     144.157  66.215  62.631  1.00  0.00    -0.331 N
ATOM     26  H72 UNL     1     144.838  65.924  61.929  1.00  0.00     0.177 HD
ATOM     27  H71 UNL     1     143.399  65.589  62.903  1.00  0.00     0.177 HD
ENDBRANCH  18  25
ENDBRANCH   1  15
BRANCH   2  28
HETATM   28  N2  UNL     1     142.445  69.862  63.569  1.00  0.00    -0.344 N
ATOM     29  H22 UNL     1     142.193  69.000  64.054  1.00  0.00     0.176 HD
ATOM     30  H21 UNL     1     141.906  70.112  62.740  1.00  0.00     0.176 HD
ENDBRANCH   2  28
TORSDOF 6
ENDMDL