MODEL 2
REMARK VINA RESULT: -8.739731811      2.566      7.161
REMARK  5 active torsions:
REMARK  status: ('A' for Active; 'I' for Inactive)
REMARK    1  A    between atoms: C4_7  and  N2_8
REMARK    2  A    between atoms: N2_8  and  N3_10
REMARK    3  A    between atoms: N3_10  and  C5_12
REMARK    4  A    between atoms: C5_12  and  C6_13
REMARK    5  A    between atoms: C10_24  and  N7_25
ROOT
HETATM    1  C1  UNL     1     145.066  65.729  61.879  1.00  0.00     0.089 C
HETATM    2  C2  UNL     1     144.840  66.534  63.123  1.00  0.00     0.096 C
HETATM    3  N1  UNL     1     145.446  66.085  64.257  1.00  0.00    -0.310 N
ATOM      4  H1  UNL     1     145.857  65.152  64.220  1.00  0.00     0.170 HD
HETATM    5  C3  UNL     1     145.561  66.761  65.442  1.00  0.00     0.292 C
HETATM    6  O1  UNL     1     145.847  66.085  66.459  1.00  0.00    -0.264 OA
HETATM    7  C4  UNL     1     145.400  68.109  65.668  1.00  0.00     0.204 C
HETATM    8  N6  UNL     1     144.407  68.853  65.069  1.00  0.00    -0.170 N
ATOM      9  H6  UNL     1     144.107  69.683  65.580  1.00  0.00     0.186 HD
HETATM   10  C10 UNL     1     143.773  68.629  63.885  1.00  0.00     0.678 C
HETATM   11  N8  UNL     1     144.066  67.624  63.005  1.00  0.00    -0.181 N
ATOM     12  H8  UNL     1     143.614  67.720  62.095  1.00  0.00     0.185 HD
ENDROOT
BRANCH   7  13
HETATM   13  N2  UNL     1     146.185  68.724  66.434  1.00  0.00    -0.281 N
ATOM     14  H2  UNL     1     146.377  68.260  67.321  1.00  0.00     0.188 HD
BRANCH  13  15
HETATM   15  N3  UNL     1     146.811  69.907  66.257  1.00  0.00    -0.309 N
ATOM     16  H3  UNL     1     147.604  69.880  65.616  1.00  0.00     0.186 HD
BRANCH  15  17
HETATM   17  C5  UNL     1     146.570  71.049  66.761  1.00  0.00     0.126 C
BRANCH  17  18
HETATM   18  C6  UNL     1     146.268  72.153  65.856  1.00  0.00     0.074 A
HETATM   19  C7  UNL     1     147.095  73.162  65.414  1.00  0.00     0.039 A
HETATM   20  C8  UNL     1     148.535  73.344  65.773  1.00  0.00     0.071 C
HETATM   21  N4  UNL     1     146.376  73.964  64.586  1.00  0.00    -0.301 N
HETATM   22  N5  UNL     1     145.138  73.516  64.481  1.00  0.00    -0.266 N
ATOM     23  H4  UNL     1     146.739  74.793  64.115  1.00  0.00     0.186 HD
HETATM   24  C9  UNL     1     145.037  72.415  65.241  1.00  0.00     0.273 A
ATOM     25  H5  UNL     1     144.393  73.932  63.921  1.00  0.00     0.190 HD
HETATM   26  O2  UNL     1     144.023  71.678  65.423  1.00  0.00    -0.266 OA
ENDBRANCH  17  18
ENDBRANCH  15  17
ENDBRANCH  13  15
ENDBRANCH   7  13
BRANCH  10  27
HETATM   27  N7  UNL     1     142.822  69.428  63.563  1.00  0.00    -0.234 N
ATOM     28  H72 UNL     1     142.517  70.096  64.271  1.00  0.00     0.174 HD
ATOM     29  H71 UNL     1     142.432  69.340  62.624  1.00  0.00     0.174 HD
ENDBRANCH  10  27
TORSDOF 5
ENDMDL