MODEL 1
REMARK VINA RESULT: -8.536973546      0.000      0.000
REMARK  6 active torsions:
REMARK  status: ('A' for Active; 'I' for Inactive)
REMARK    1  A    between atoms: C1_4  and  N2_5
REMARK    2  A    between atoms: C1_4  and  C9_25
REMARK    3  A    between atoms: C3_10  and  N4_11
REMARK    4  A    between atoms: C8_19  and  N6_20
REMARK    5  A    between atoms: C9_25  and  O3_27
REMARK    6  A    between atoms: O3_27  and  N8_28
ROOT
HETATM    1  N2  UNL     1     143.673  65.465  62.310  1.00  0.00    -0.170 N
ATOM      2  H2  UNL     1     143.040  65.997  61.713  1.00  0.00     0.186 HD
HETATM    3  C2  UNL     1     144.160  66.160  63.242  1.00  0.00     0.713 A
HETATM    4  N3  UNL     1     143.805  67.487  63.345  1.00  0.00    -0.021 N
ATOM      5  H3  UNL     1     143.154  67.858  62.653  1.00  0.00     0.203 HD
HETATM    6  C3  UNL     1     144.251  68.316  64.280  1.00  0.00     0.709 A
HETATM    7  N5  UNL     1     145.121  67.785  65.188  1.00  0.00    -0.022 N
ATOM      8  H5  UNL     1     145.492  68.384  65.926  1.00  0.00     0.203 HD
HETATM    9  C8  UNL     1     145.502  66.511  65.142  1.00  0.00     0.705 A
HETATM   10  N7  UNL     1     145.013  65.697  64.157  1.00  0.00    -0.021 N
ATOM     11  H7  UNL     1     145.306  64.721  64.122  1.00  0.00     0.203 HD
ENDROOT
BRANCH   1  12
HETATM   12  C1  UNL     1     143.798  64.151  61.913  1.00  0.00     0.192 C
HETATM   13  N1  UNL     1     143.783  63.815  60.659  1.00  0.00    -0.380 N
ATOM     14  H12 UNL     1     143.682  64.584  59.995  1.00  0.00     0.158 HD
ATOM     15  H11 UNL     1     143.876  62.843  60.365  1.00  0.00     0.158 HD
BRANCH  12  16
HETATM   16  C9  UNL     1     143.942  63.048  62.866  1.00  0.00     0.348 C
HETATM   17  O2  UNL     1     143.294  63.028  63.932  1.00  0.00    -0.254 OA
BRANCH  16  18
HETATM   18  O3  UNL     1     144.807  62.013  62.581  1.00  0.00    -0.200 OA
BRANCH  18  19
HETATM   19  N8  UNL     1     144.555  60.692  62.889  1.00  0.00    -0.302 N
ATOM     20  H82 UNL     1     144.227  60.094  62.130  1.00  0.00     0.184 HD
ATOM     21  H81 UNL     1     144.678  60.289  63.818  1.00  0.00     0.184 HD
ENDBRANCH  18  19
ENDBRANCH  16  18
ENDBRANCH  12  16
ENDBRANCH   1  12
BRANCH   6  22
HETATM   22  N4  UNL     1     143.865  69.677  64.360  1.00  0.00    -0.213 N
HETATM   23  C4  UNL     1     143.098  70.268  63.273  1.00  0.00     0.167 C
HETATM   24  C5  UNL     1     143.376  71.756  63.236  1.00  0.00     0.188 C
HETATM   25  O1  UNL     1     144.618  72.129  63.651  1.00  0.00    -0.388 OA
HETATM   26  C6  UNL     1     145.059  71.652  64.856  1.00  0.00     0.188 C
HETATM   27  C7  UNL     1     144.163  70.578  65.444  1.00  0.00     0.167 C
ENDBRANCH   6  22
BRANCH   9  28
HETATM   28  N6  UNL     1     146.312  66.021  65.986  1.00  0.00    -0.234 N
ATOM     29  H62 UNL     1     146.857  66.659  66.567  1.00  0.00     0.174 HD
ATOM     30  H61 UNL     1     146.431  65.014  66.099  1.00  0.00     0.174 HD
ENDBRANCH   9  28
TORSDOF 6
ENDMDL