MODEL 2
REMARK VINA RESULT: -8.401204875      4.491      8.486
REMARK  4 active torsions:
REMARK  status: ('A' for Active; 'I' for Inactive)
REMARK    1  A    between atoms: N1_1  and  C1_4
REMARK    2  A    between atoms: C4_10  and  N3_11
REMARK    3  A    between atoms: N5_16  and  C5_17
REMARK    4  A    between atoms: N6_21  and  C8_22
ROOT
HETATM    1  C1  UNL     1     145.300  69.260  65.640  1.00  0.00     0.680 A
HETATM    2  N2  UNL     1     144.271  69.042  64.807  1.00  0.00    -0.155 N
ATOM      3  H2  UNL     1     143.905  68.101  64.661  1.00  0.00     0.187 HD
HETATM    4  C2  UNL     1     143.738  70.094  64.172  1.00  0.00     0.277 A
HETATM    5  O1  UNL     1     142.773  69.931  63.383  1.00  0.00    -0.266 OA
HETATM    6  C3  UNL     1     144.244  71.354  64.380  1.00  0.00     0.123 A
HETATM    7  C4  UNL     1     143.946  72.603  63.908  1.00  0.00     0.133 A
HETATM    8  N4  UNL     1     144.786  73.464  64.468  1.00  0.00    -0.281 N
ATOM      9  H4  UNL     1     144.780  74.468  64.286  1.00  0.00     0.189 HD
HETATM   10  N5  UNL     1     145.647  72.853  65.304  1.00  0.00    -0.267 N
HETATM   11  C10 UNL     1     145.311  71.567  65.245  1.00  0.00     0.158 A
HETATM   12  N7  UNL     1     145.819  70.495  65.864  1.00  0.00    -0.174 N
ATOM     13  H7  UNL     1     146.602  70.605  66.509  1.00  0.00     0.186 HD
ENDROOT
BRANCH  10  14
HETATM   14  C5  UNL     1     146.621  73.585  66.003  1.00  0.00     0.132 C
HETATM   15  C6  UNL     1     146.456  75.111  65.931  1.00  0.00     0.057 C
HETATM   16  C7  UNL     1     147.580  75.805  66.646  1.00  0.00     0.203 C
HETATM   17  O2  UNL     1     148.362  74.993  67.444  1.00  0.00    -0.276 OA
HETATM   18  N6  UNL     1     148.772  73.870  66.899  1.00  0.00    -0.232 N
HETATM   19  C9  UNL     1     148.058  73.319  65.758  1.00  0.00     0.186 C
BRANCH  18  20
HETATM   20  C8  UNL     1     149.892  73.167  67.382  1.00  0.00     0.376 C
HETATM   21  O3  UNL     1     150.406  72.192  66.753  1.00  0.00    -0.281 OA
ENDBRANCH  18  20
ENDBRANCH  10  14
BRANCH   7  22
HETATM   22  N3  UNL     1     142.987  72.823  63.057  1.00  0.00    -0.384 N
ATOM     23  H32 UNL     1     142.003  72.560  63.112  1.00  0.00     0.157 HD
ATOM     24  H31 UNL     1     143.133  73.321  62.180  1.00  0.00     0.157 HD
ENDBRANCH   7  22
BRANCH   1  25
HETATM   25  N1  UNL     1     145.825  68.265  66.260  1.00  0.00    -0.234 N
ATOM     26  H12 UNL     1     146.819  68.084  66.118  1.00  0.00     0.174 HD
ATOM     27  H11 UNL     1     145.239  67.693  66.869  1.00  0.00     0.174 HD
ENDBRANCH   1  25
TORSDOF 4
ENDMDL