MODEL 3
REMARK VINA RESULT: -6.842601596      1.080      1.755
REMARK  11 active torsions:
REMARK  status: ('A' for Active; 'I' for Inactive)
REMARK    1  A    between atoms: S1_2  and  C2_3
REMARK    2  A    between atoms: C2_3  and  N2_7
REMARK    3  A    between atoms: N2_7  and  C3_9
REMARK    4  A    between atoms: C5_12  and  N3_13
REMARK       I    between atoms: N3_13  and  C6_15
REMARK    5  A    between atoms: C6_15  and  C7_17
REMARK    6  A    between atoms: C7_17  and  C8_18
REMARK    7  A    between atoms: C8_18  and  C9_19
REMARK    8  A    between atoms: C9_19  and  N4_20
REMARK    9  A    between atoms: C9_19  and  C10_24
REMARK   10  A    between atoms: C10_24  and  C11_25
REMARK   11  A    between atoms: C15_30  and  O2_31
ROOT
HETATM    1  N3  UNL     1      30.215  12.921  93.706  1.00  0.00    -0.324 N
ATOM      2  H3  UNL     1      30.331  12.296  94.504  1.00  0.00     0.169 HD
HETATM    3  C6  UNL     1      30.984  12.612  92.587  1.00  0.00     0.222 C
HETATM    4  O1  UNL     1      30.931  13.303  91.552  1.00  0.00    -0.273 OA
ENDROOT
BRANCH   3   5
HETATM    5  C7  UNL     1      31.889  11.454  92.596  1.00  0.00     0.105 C
BRANCH   5   6
HETATM    6  C8  UNL     1      32.614  11.086  91.385  1.00  0.00     0.042 C
BRANCH   6   7
HETATM    7  C9  UNL     1      32.069  10.101  90.436  1.00  0.00     0.188 C
BRANCH   7   8
HETATM    8  N4  UNL     1      32.385   8.733  90.578  1.00  0.00    -0.075 N
ATOM      9  H43 UNL     1      32.236   8.467  91.551  1.00  0.00     0.274 HD
ATOM     10  H42 UNL     1      31.666   8.186  90.104  1.00  0.00     0.274 HD
ATOM     11  H41 UNL     1      33.298   8.386  90.286  1.00  0.00     0.274 HD
ENDBRANCH   7   8
BRANCH   7  12
HETATM   12  C10 UNL     1      32.268  10.611  89.012  1.00  0.00     0.074 C
BRANCH  12  13
HETATM   13  C11 UNL     1      31.021  10.918  88.311  1.00  0.00    -0.012 A
HETATM   14  C12 UNL     1      30.313  12.073  88.546  1.00  0.00     0.052 A
HETATM   15  C13 UNL     1      29.144  12.338  87.874  1.00  0.00     0.119 A
HETATM   16  F1  UNL     1      28.455  13.498  88.125  1.00  0.00    -0.206 F
HETATM   17  C14 UNL     1      28.678  11.426  86.951  1.00  0.00     0.082 A
HETATM   18  C15 UNL     1      29.358  10.251  86.684  1.00  0.00     0.107 A
HETATM   19  C16 UNL     1      30.512  10.041  87.380  1.00  0.00     0.155 A
HETATM   20  F2  UNL     1      31.189   8.878  87.116  1.00  0.00    -0.203 F
BRANCH  18  21
HETATM   21  O2  UNL     1      28.865   9.338  85.741  1.00  0.00    -0.357 OA
ATOM     22  H2  UNL     1      28.743   8.424  85.969  1.00  0.00     0.217 HD
ENDBRANCH  18  21
ENDBRANCH  12  13
ENDBRANCH   7  12
ENDBRANCH   6   7
ENDBRANCH   5   6
ENDBRANCH   3   5
BRANCH   1  23
HETATM   23  C5  UNL     1      29.307  13.968  93.891  1.00  0.00     0.074 A
HETATM   24  C4  UNL     1      27.957  13.644  94.091  1.00  0.00     0.094 A
HETATM   25  C3  UNL     1      27.041  14.621  94.272  1.00  0.00     0.127 A
HETATM   26 CL1  UNL     1      27.444  11.959  94.107  1.00  0.00    -0.079 Cl
HETATM   27  C18 UNL     1      27.437  15.945  94.260  1.00  0.00     0.274 A
HETATM   28  N5  UNL     1      28.708  16.288  94.073  1.00  0.00    -0.329 N
HETATM   29  O3  UNL     1      26.550  16.826  94.434  1.00  0.00    -0.266 OA
HETATM   30  C17 UNL     1      29.620  15.293  93.891  1.00  0.00     0.122 A
ATOM     31  H5  UNL     1      28.993  17.268  94.066  1.00  0.00     0.168 HD
BRANCH  25  32
HETATM   32  N2  UNL     1      25.675  14.289  94.475  1.00  0.00    -0.331 N
ATOM     33  H2  UNL     1      25.334  14.095  95.417  1.00  0.00     0.168 HD
BRANCH  32  34
HETATM   34  C2  UNL     1      24.791  14.226  93.381  1.00  0.00     0.138 C
HETATM   35  N1  UNL     1      24.504  15.269  92.694  1.00  0.00    -0.380 N
ATOM     36  H12 UNL     1      23.863  15.222  91.902  1.00  0.00     0.158 HD
ATOM     37  H11 UNL     1      24.929  16.160  92.951  1.00  0.00     0.158 HD
BRANCH  34  38
HETATM   38  S1  UNL     1      24.053  12.673  92.936  1.00  0.00    -0.099 SA
HETATM   39  C1  UNL     1      23.732  11.669  94.402  1.00  0.00     0.099 C
ENDBRANCH  34  38
ENDBRANCH  32  34
ENDBRANCH  25  32
ENDBRANCH   1  23
TORSDOF 11
ENDMDL