MODEL 5
REMARK VINA RESULT: -6.785262846      4.299      8.032
REMARK  9 active torsions:
REMARK  status: ('A' for Active; 'I' for Inactive)
REMARK    1  A    between atoms: C3_3  and  C4_4
REMARK    2  A    between atoms: C4_4  and  C5_5
REMARK    3  A    between atoms: C5_5  and  O1_6
REMARK    4  A    between atoms: N1_8  and  O2_10
REMARK    5  A    between atoms: C9_18  and  N2_19
REMARK    6  A    between atoms: N2_19  and  C10_21
REMARK    7  A    between atoms: C12_26  and  C13_27
REMARK       I    between atoms: C13_27  and  N4_29
REMARK    8  A    between atoms: N4_29  and  C14_31
REMARK    9  A    between atoms: C14_31  and  C15_32
ROOT
HETATM    1  C10 UNL     1      32.698  11.686  92.602  1.00  0.00     0.684 A
HETATM    2  N3  UNL     1      33.727  10.912  92.259  1.00  0.00    -0.178 N
ATOM      3  H3  UNL     1      34.554  10.727  92.826  1.00  0.00     0.185 HD
HETATM    4  C11 UNL     1      33.487  10.425  91.047  1.00  0.00     0.152 A
HETATM    5 CL1  UNL     1      34.622   9.351  90.245  1.00  0.00    -0.061 Cl
HETATM    6  C12 UNL     1      32.285  10.890  90.597  1.00  0.00     0.155 A
HETATM    7  N6  UNL     1      31.821  11.677  91.598  1.00  0.00    -0.183 N
ATOM      8  H6  UNL     1      30.937  12.185  91.585  1.00  0.00     0.184 HD
ENDROOT
BRANCH   1   9
HETATM    9  N2  UNL     1      32.557  12.415  93.849  1.00  0.00    -0.188 N
ATOM     10  H2  UNL     1      33.015  12.086  94.699  1.00  0.00     0.184 HD
BRANCH   9  11
HETATM   11  C9  UNL     1      31.782  13.574  93.861  1.00  0.00     0.097 A
HETATM   12  C2  UNL     1      32.323  14.863  93.756  1.00  0.00    -0.022 A
HETATM   13  C1  UNL     1      33.775  14.985  93.633  1.00  0.00     0.051 C
HETATM   14  C3  UNL     1      31.545  15.976  93.771  1.00  0.00    -0.001 A
HETATM   15  C6  UNL     1      30.164  15.816  93.895  1.00  0.00     0.165 A
HETATM   16  F1  UNL     1      29.396  16.946  93.908  1.00  0.00    -0.202 F
HETATM   17  C7  UNL     1      29.586  14.563  94.001  1.00  0.00     0.196 A
HETATM   18  F2  UNL     1      28.230  14.458  94.120  1.00  0.00    -0.199 F
HETATM   19  C8  UNL     1      30.415  13.455  93.981  1.00  0.00     0.185 A
HETATM   20  F3  UNL     1      29.796  12.248  94.089  1.00  0.00    -0.200 F
BRANCH  14  21
HETATM   21  C4  UNL     1      32.159  17.301  93.655  1.00  0.00     0.128 C
BRANCH  21  22
HETATM   22  C5  UNL     1      31.936  17.957  92.335  1.00  0.00     0.139 C
HETATM   23  N1  UNL     1      32.440  17.462  91.269  1.00  0.00    -0.251 N
ATOM     24  H1  UNL     1      32.994  16.609  91.355  1.00  0.00     0.196 HD
BRANCH  22  25
HETATM   25  O1  UNL     1      31.187  19.112  92.200  1.00  0.00    -0.348 OA
ATOM     26  H1  UNL     1      31.368  19.760  91.529  1.00  0.00     0.219 HD
ENDBRANCH  22  25
BRANCH  23  27
HETATM   27  O2  UNL     1      32.286  17.997  90.026  1.00  0.00    -0.288 OA
ATOM     28  H2  UNL     1      32.669  17.635  89.236  1.00  0.00     0.244 HD
ENDBRANCH  23  27
ENDBRANCH  21  22
ENDBRANCH  14  21
ENDBRANCH   9  11
ENDBRANCH   1   9
BRANCH   6  29
HETATM   29  C13 UNL     1      31.601  10.642  89.337  1.00  0.00     0.272 C
HETATM   30  O3  UNL     1      31.864   9.513  88.789  1.00  0.00    -0.266 OA
HETATM   31  N4  UNL     1      30.705  11.513  88.695  1.00  0.00    -0.354 N
ATOM     32  H4  UNL     1      30.487  12.411  89.128  1.00  0.00     0.162 HD
BRANCH  31  33
HETATM   33  C14 UNL     1      30.082  11.166  87.432  1.00  0.00     0.155 C
BRANCH  33  34
HETATM   34  C15 UNL     1      28.955  12.044  87.010  1.00  0.00     0.203 C
HETATM   35  C16 UNL     1      27.611  11.548  87.490  1.00  0.00     0.035 C
HETATM   36  C17 UNL     1      27.109  10.377  86.683  1.00  0.00     0.004 C
HETATM   37  C18 UNL     1      27.114  10.756  85.224  1.00  0.00     0.027 C
HETATM   38  C19 UNL     1      28.577  11.022  84.856  1.00  0.00     0.233 C
HETATM   39  N5  UNL     1      28.988  12.193  85.565  1.00  0.00    -0.069 N
ATOM     40  H52 UNL     1      28.437  13.000  85.274  1.00  0.00     0.277 HD
ATOM     41  H51 UNL     1      29.911  12.495  85.255  1.00  0.00     0.277 HD
ENDBRANCH  33  34
ENDBRANCH  31  33
ENDBRANCH   6  29
TORSDOF 9
ENDMDL