MODEL 3
REMARK VINA RESULT: -7.353388513      2.556      5.877
REMARK  7 active torsions:
REMARK  status: ('A' for Active; 'I' for Inactive)
REMARK    1  A    between atoms: C4_4  and  N1_5
REMARK    2  A    between atoms: C5_8  and  C6_9
REMARK    3  A    between atoms: C10_13  and  O1_14
REMARK    4  A    between atoms: O1_14  and  C11_15
REMARK    5  A    between atoms: C11_15  and  C12_16
REMARK    6  A    between atoms: C14_25  and  N5_26
REMARK       I    between atoms: N5_26  and  C15_28
REMARK       I    between atoms: C15_28  and  N6_30
REMARK    7  A    between atoms: N6_30  and  C16_32
ROOT
HETATM    1  N1  UNL     1      34.545   9.094  91.362  1.00  0.00    -0.239 N
HETATM    2  N2  UNL     1      33.729   8.258  91.943  1.00  0.00    -0.289 N
ATOM      3  H2  UNL     1      33.842   7.936  92.904  1.00  0.00     0.188 HD
HETATM    4  C5  UNL     1      32.730   7.866  91.144  1.00  0.00     0.094 A
HETATM    5  C14 UNL     1      32.954   8.548  89.914  1.00  0.00     0.124 A
HETATM    6  C19 UNL     1      34.091   9.303  90.086  1.00  0.00     0.238 A
HETATM    7  F3  UNL     1      34.689  10.133  89.190  1.00  0.00    -0.182 F
ENDROOT
BRANCH   4   8
HETATM    8  C6  UNL     1      31.659   6.919  91.439  1.00  0.00     0.039 A
HETATM    9  C7  UNL     1      30.493   7.287  92.076  1.00  0.00     0.028 A
HETATM   10  C8  UNL     1      29.485   6.355  92.359  1.00  0.00    -0.010 A
HETATM   11  C9  UNL     1      28.239   6.796  93.053  1.00  0.00     0.052 C
HETATM   12  C10 UNL     1      29.676   5.038  91.988  1.00  0.00     0.149 A
HETATM   13  N3  UNL     1      30.807   4.687  91.373  1.00  0.00    -0.322 N
HETATM   14  C13 UNL     1      31.773   5.592  91.103  1.00  0.00     0.113 A
ATOM     15  H3  UNL     1      30.946   3.713  91.101  1.00  0.00     0.169 HD
HETATM   16  N4  UNL     1      32.814   5.141  90.501  1.00  0.00    -0.385 N
ATOM     17  H42 UNL     1      33.544   5.824  90.296  1.00  0.00     0.157 HD
ATOM     18  H41 UNL     1      32.900   4.156  90.251  1.00  0.00     0.157 HD
BRANCH  12  19
HETATM   19  O1  UNL     1      28.667   4.129  92.274  1.00  0.00    -0.330 OA
BRANCH  19  20
HETATM   20  C11 UNL     1      27.900   3.619  91.228  1.00  0.00     0.248 C
BRANCH  20  21
HETATM   21  C12 UNL     1      26.435   4.014  91.342  1.00  0.00     0.377 C
HETATM   22  F1  UNL     1      26.147   4.111  92.688  1.00  0.00    -0.212 F
HETATM   23  F2  UNL     1      26.267   5.257  90.786  1.00  0.00    -0.212 F
ENDBRANCH  20  21
ENDBRANCH  19  20
ENDBRANCH  12  19
ENDBRANCH   4   8
BRANCH   5  24
HETATM   24  N5  UNL     1      32.071   8.397  88.836  1.00  0.00    -0.303 N
HETATM   25  C15 UNL     1      31.251   9.369  88.256  1.00  0.00     0.326 C
HETATM   26  O2  UNL     1      31.231  10.536  88.654  1.00  0.00    -0.247 OA
HETATM   27  N6  UNL     1      30.391   9.056  87.169  1.00  0.00    -0.293 N
ATOM     28  H6  UNL     1      30.388   8.092  86.835  1.00  0.00     0.172 HD
ATOM     29  H5  UNL     1      32.020   7.465  88.425  1.00  0.00     0.171 HD
BRANCH  27  30
HETATM   30  C16 UNL     1      29.540   9.975  86.514  1.00  0.00     0.129 A
HETATM   31  C17 UNL     1      28.355   9.768  85.857  1.00  0.00     0.125 A
HETATM   32  C18 UNL     1      27.889  10.989  85.373  1.00  0.00     0.263 A
HETATM   33  O3  UNL     1      26.833  11.145  84.728  1.00  0.00    -0.267 OA
HETATM   34  N7  UNL     1      28.784  11.902  85.737  1.00  0.00    -0.265 N
HETATM   35  N8  UNL     1      29.762  11.325  86.408  1.00  0.00    -0.282 N
ATOM     36  H7  UNL     1      28.724  12.899  85.528  1.00  0.00     0.190 HD
ATOM     37  H8  UNL     1      30.569  11.813  86.795  1.00  0.00     0.188 HD
ENDBRANCH  27  30
ENDBRANCH   5  24
BRANCH   1  38
HETATM   38  C4  UNL     1      35.710   9.722  91.875  1.00  0.00     0.121 C
HETATM   39  C2  UNL     1      35.587  10.786  92.639  1.00  0.00    -0.070 C
HETATM   40  C1  UNL     1      36.838  11.420  93.160  1.00  0.00     0.044 C
HETATM   41  C3  UNL     1      34.254  11.314  92.953  1.00  0.00     0.044 C
ENDBRANCH   1  38
TORSDOF 7
ENDMDL