MODEL 3
REMARK VINA RESULT: -5.994859410      4.944      6.667
REMARK  9 active torsions:
REMARK  status: ('A' for Active; 'I' for Inactive)
REMARK    1  A    between atoms: C2_2  and  C3_3
REMARK    2  A    between atoms: C3_3  and  N1_4
REMARK    3  A    between atoms: C3_3  and  C7_19
REMARK    4  A    between atoms: C6_13  and  N4_14
REMARK    5  A    between atoms: C10_23  and  N6_24
REMARK    6  A    between atoms: N6_24  and  C11_26
REMARK    7  A    between atoms: C13_28  and  C14_29
REMARK    8  A    between atoms: C14_29  and  N7_30
REMARK    9  A    between atoms: C15_36  and  O1_37
ROOT
HETATM    1  C7  UNL     1      33.076   6.968  90.439  1.00  0.00     0.009 A
HETATM    2  C8  UNL     1      32.835   7.976  91.357  1.00  0.00     0.038 A
HETATM    3  C9  UNL     1      32.567   9.284  90.979  1.00  0.00     0.064 A
HETATM    4 CL2  UNL     1      32.260  10.546  92.154  1.00  0.00    -0.082 Cl
HETATM    5  C10 UNL     1      32.538   9.613  89.644  1.00  0.00     0.097 A
HETATM    6  C17 UNL     1      32.782   8.591  88.716  1.00  0.00     0.183 A
HETATM    7  F1  UNL     1      32.768   8.852  87.378  1.00  0.00    -0.200 F
HETATM    8  C18 UNL     1      33.047   7.295  89.094  1.00  0.00     0.165 A
HETATM    9  F2  UNL     1      33.279   6.356  88.182  1.00  0.00    -0.202 F
ENDROOT
BRANCH   1  10
HETATM   10  C3  UNL     1      33.341   5.595  90.855  1.00  0.00     0.135 C
BRANCH  10  11
HETATM   11  C2  UNL     1      34.498   5.535  91.882  1.00  0.00     0.026 C
HETATM   12  C1  UNL     1      35.205   4.180  91.735  1.00  0.00     0.007 C
ENDBRANCH  10  11
BRANCH  10  13
HETATM   13  N1  UNL     1      32.222   5.095  91.607  1.00  0.00    -0.217 N
HETATM   14  C4  UNL     1      31.197   4.475  91.236  1.00  0.00     0.695 A
HETATM   15  N2  UNL     1      30.310   4.142  92.229  1.00  0.00    -0.165 N
HETATM   16  N5  UNL     1      30.849   4.085  90.006  1.00  0.00    -0.022 N
HETATM   17  C5  UNL     1      29.178   3.472  91.964  1.00  0.00     0.208 A
ATOM     18  H2  UNL     1      30.516   4.410  93.191  1.00  0.00     0.186 HD
HETATM   19 CL1  UNL     1      28.054   3.053  93.236  1.00  0.00    -0.044 Cl
HETATM   20  N3  UNL     1      28.851   3.092  90.717  1.00  0.00    -0.165 N
HETATM   21  C6  UNL     1      29.713   3.412  89.732  1.00  0.00     0.692 A
ATOM     22  H3  UNL     1      27.988   2.583  90.524  1.00  0.00     0.186 HD
ATOM     23  H5  UNL     1      31.477   4.309  89.234  1.00  0.00     0.203 HD
ATOM     24  H1  UNL     1      32.270   5.277  92.610  1.00  0.00     0.178 HD
BRANCH  21  25
HETATM   25  N4  UNL     1      29.418   3.056  88.511  1.00  0.00    -0.234 N
ATOM     26  H42 UNL     1      28.483   3.202  88.131  1.00  0.00     0.174 HD
ATOM     27  H41 UNL     1      30.149   2.625  87.943  1.00  0.00     0.174 HD
ENDBRANCH  21  25
ENDBRANCH  10  13
ENDBRANCH   1  10
BRANCH   5  28
HETATM   28  N6  UNL     1      32.272  10.903  89.171  1.00  0.00    -0.349 N
ATOM     29  H6  UNL     1      33.043  11.569  89.145  1.00  0.00     0.166 HD
BRANCH  28  30
HETATM   30  C11 UNL     1      30.999  11.346  88.726  1.00  0.00     0.086 A
HETATM   31  C12 UNL     1      30.292  10.831  87.661  1.00  0.00     0.060 A
HETATM   32  C13 UNL     1      29.104  11.540  87.534  1.00  0.00     0.039 A
HETATM   33  N8  UNL     1      29.085  12.468  88.503  1.00  0.00    -0.337 N
HETATM   34  C15 UNL     1      30.213  12.364  89.226  1.00  0.00     0.169 A
ATOM     35  H8  UNL     1      28.336  13.142  88.665  1.00  0.00     0.168 HD
BRANCH  32  36
HETATM   36  C14 UNL     1      28.041  11.308  86.498  1.00  0.00     0.286 C
BRANCH  36  37
HETATM   37  N7  UNL     1      28.675  11.386  85.174  1.00  0.00    -0.074 N
ATOM     38  H73 UNL     1      29.668  11.615  85.224  1.00  0.00     0.274 HD
ATOM     39  H72 UNL     1      28.768  10.474  84.726  1.00  0.00     0.274 HD
ATOM     40  H71 UNL     1      28.145  12.050  84.610  1.00  0.00     0.274 HD
ENDBRANCH  36  37
ENDBRANCH  32  36
BRANCH  34  41
HETATM   41  O1  UNL     1      30.508  13.172  90.299  1.00  0.00    -0.339 OA
HETATM   42  C16 UNL     1      30.246  12.676  91.602  1.00  0.00     0.211 C
ENDBRANCH  34  41
ENDBRANCH  28  30
ENDBRANCH   5  28
TORSDOF 9
ENDMDL