MODEL 2
REMARK VINA RESULT: -7.542475589      1.281      1.977
REMARK  10 active torsions:
REMARK  status: ('A' for Active; 'I' for Inactive)
REMARK    1  A    between atoms: C2_2  and  C3_3
REMARK    2  A    between atoms: C3_3  and  C4_4
REMARK    3  A    between atoms: C4_4  and  C5_5
REMARK    4  A    between atoms: C7_7  and  N1_8
REMARK    5  A    between atoms: N1_8  and  N2_10
REMARK    6  A    between atoms: N2_10  and  C8_12
REMARK    7  A    between atoms: C8_12  and  C9_17
REMARK    8  A    between atoms: N3_13  and  O1_15
REMARK    9  A    between atoms: C15_29  and  C16_30
REMARK   10  A    between atoms: C17_33  and  O5_34
ROOT
HETATM    1  N2  UNL     1      32.673   8.472  87.871  1.00  0.00    -0.283 N
ATOM      2  H2  UNL     1      33.467   8.959  87.455  1.00  0.00     0.188 HD
ENDROOT
BRANCH   1   3
HETATM    3  N1  UNL     1      31.417   8.500  87.274  1.00  0.00    -0.299 N
ATOM      4  H1  UNL     1      31.099   7.696  86.734  1.00  0.00     0.187 HD
BRANCH   3   5
HETATM    5  C7  UNL     1      30.562   9.646  87.409  1.00  0.00     0.049 A
HETATM    6  C6  UNL     1      30.800  10.606  88.373  1.00  0.00     0.040 A
HETATM    7  C5  UNL     1      29.973  11.689  88.485  1.00  0.00    -0.022 A
HETATM    8  C17 UNL     1      28.864  11.855  87.627  1.00  0.00     0.089 A
HETATM    9  C15 UNL     1      28.598  10.914  86.654  1.00  0.00     0.076 A
HETATM   10  C14 UNL     1      29.486   9.825  86.591  1.00  0.00     0.052 A
BRANCH   7  11
HETATM   11  C4  UNL     1      30.184  12.744  89.503  1.00  0.00     0.041 C
BRANCH  11  12
HETATM   12  C3  UNL     1      30.994  12.183  90.636  1.00  0.00     0.004 C
BRANCH  12  13
HETATM   13  C2  UNL     1      30.313  12.455  91.973  1.00  0.00    -0.004 C
HETATM   14  C1  UNL     1      31.343  13.040  92.929  1.00  0.00     0.005 C
ENDBRANCH  12  13
ENDBRANCH  11  12
ENDBRANCH   7  11
BRANCH   8  15
HETATM   15  O5  UNL     1      28.079  12.958  87.791  1.00  0.00    -0.359 OA
ATOM     16  H5  UNL     1      27.363  13.096  87.182  1.00  0.00     0.217 HD
ENDBRANCH   8  15
BRANCH   9  17
HETATM   17  C16 UNL     1      27.494  10.981  85.722  1.00  0.00     0.212 C
HETATM   18  O3  UNL     1      27.637  10.965  84.501  1.00  0.00    -0.644 OA
HETATM   19  O4  UNL     1      26.205  11.067  86.216  1.00  0.00    -0.644 OA
ENDBRANCH   9  17
ENDBRANCH   3   5
ENDBRANCH   1   3
BRANCH   1  20
HETATM   20  C8  UNL     1      32.809   7.743  89.073  1.00  0.00     0.157 C
HETATM   21  N3  UNL     1      33.023   6.466  89.000  1.00  0.00    -0.251 N
ATOM     22  H3  UNL     1      33.122   5.936  89.866  1.00  0.00     0.196 HD
BRANCH  21  23
HETATM   23  O1  UNL     1      33.120   5.802  87.806  1.00  0.00    -0.288 OA
ATOM     24  H1  UNL     1      32.416   5.264  87.462  1.00  0.00     0.244 HD
ENDBRANCH  21  23
BRANCH  20  25
HETATM   25  C9  UNL     1      32.728   8.309  90.413  1.00  0.00     0.101 A
HETATM   26  C10 UNL     1      31.793   7.851  91.332  1.00  0.00     0.122 A
HETATM   27 CL1  UNL     1      30.713   6.569  90.817  1.00  0.00    -0.063 Cl
HETATM   28  N4  UNL     1      31.676   8.337  92.580  1.00  0.00    -0.335 N
HETATM   29  C11 UNL     1      32.508   9.318  92.962  1.00  0.00     0.130 A
ATOM     30  H4  UNL     1      30.973   7.969  93.220  1.00  0.00     0.168 HD
HETATM   31 CL2  UNL     1      32.388   9.982  94.593  1.00  0.00    -0.062 Cl
HETATM   32  C12 UNL     1      33.474   9.842  92.122  1.00  0.00     0.123 A
HETATM   33 CL3  UNL     1      34.550  11.128  92.653  1.00  0.00    -0.077 Cl
HETATM   34  C13 UNL     1      33.566   9.315  90.839  1.00  0.00     0.213 A
HETATM   35  O2  UNL     1      34.438   9.790  90.083  1.00  0.00    -0.285 OA
ENDBRANCH  20  25
ENDBRANCH   1  20
TORSDOF 10
ENDMDL