MODEL 4
REMARK VINA RESULT: -6.016116340      3.531      5.178
REMARK  11 active torsions:
REMARK  status: ('A' for Active; 'I' for Inactive)
REMARK    1  A    between atoms: O1_2  and  C2_3
REMARK    2  A    between atoms: C4_7  and  N2_8
REMARK    3  A    between atoms: N2_8  and  C5_10
REMARK    4  A    between atoms: C5_10  and  C6_11
REMARK    5  A    between atoms: C5_10  and  C7_14
REMARK    6  A    between atoms: C6_11  and  O2_12
REMARK    7  A    between atoms: C7_14  and  C8_15
REMARK    8  A    between atoms: C8_15  and  C9_16
REMARK    9  A    between atoms: C9_16  and  N3_17
REMARK   10  A    between atoms: N3_17  and  C10_19
REMARK   11  A    between atoms: C13_23  and  O3_24
ROOT
HETATM    1  C5  UNL     1      33.513   6.679  88.904  1.00  0.00     0.106 C
ENDROOT
BRANCH   1   2
HETATM    2  N2  UNL     1      32.727   7.774  88.619  1.00  0.00    -0.368 N
ATOM      3  H2  UNL     1      32.174   7.524  87.799  1.00  0.00     0.161 HD
BRANCH   2   4
HETATM    4  C4  UNL     1      32.398   8.924  88.920  1.00  0.00     0.132 A
HETATM    5  C3  UNL     1      31.349   9.478  88.161  1.00  0.00     0.107 A
HETATM    6  N1  UNL     1      30.612   8.965  87.131  1.00  0.00    -0.331 N
HETATM    7  C17 UNL     1      30.913  10.739  88.417  1.00  0.00     0.090 A
HETATM    8  C2  UNL     1      29.706   9.866  86.710  1.00  0.00     0.167 A
ATOM      9  H1  UNL     1      30.731   8.032  86.737  1.00  0.00     0.168 HD
HETATM   10  C18 UNL     1      29.884  10.978  87.505  1.00  0.00     0.114 A
HETATM   11 CL3  UNL     1      28.975  12.452  87.397  1.00  0.00    -0.077 Cl
HETATM   12  N5  UNL     1      31.491  11.457  89.399  1.00  0.00    -0.349 N
HETATM   13  C16 UNL     1      32.501  10.929  90.132  1.00  0.00     0.182 A
ATOM     14  H5  UNL     1      31.166  12.404  89.593  1.00  0.00     0.166 HD
HETATM   15  N4  UNL     1      32.937   9.685  89.887  1.00  0.00    -0.337 N
ATOM     16  H4  UNL     1      33.698   9.306  90.450  1.00  0.00     0.168 HD
BRANCH   8  17
HETATM   17  O1  UNL     1      28.771   9.713  85.676  1.00  0.00    -0.339 OA
HETATM   18  C1  UNL     1      27.368   9.710  85.973  1.00  0.00     0.211 C
ENDBRANCH   8  17
ENDBRANCH   2   4
ENDBRANCH   1   2
BRANCH   1  19
HETATM   19  C6  UNL     1      34.007   5.835  87.758  1.00  0.00     0.189 C
BRANCH  19  20
HETATM   20  O2  UNL     1      35.387   5.654  87.761  1.00  0.00    -0.399 OA
ATOM     21  H2  UNL     1      35.829   6.145  88.443  1.00  0.00     0.209 HD
ENDBRANCH  19  20
ENDBRANCH   1  19
BRANCH   1  22
HETATM   22  C7  UNL     1      32.909   5.786  90.002  1.00  0.00     0.029 C
BRANCH  22  23
HETATM   23  C8  UNL     1      32.462   4.454  89.535  1.00  0.00     0.022 C
BRANCH  23  24
HETATM   24  C9  UNL     1      31.272   3.895  90.290  1.00  0.00     0.120 C
BRANCH  24  25
HETATM   25  N3  UNL     1      31.076   4.607  91.539  1.00  0.00    -0.390 N
ATOM     26  H3  UNL     1      31.856   4.668  92.194  1.00  0.00     0.159 HD
BRANCH  25  27
HETATM   27  C10 UNL     1      29.855   5.219  91.887  1.00  0.00     0.031 A
HETATM   28  C11 UNL     1      28.647   4.716  91.472  1.00  0.00     0.056 A
HETATM   29  C12 UNL     1      27.461   5.353  91.839  1.00  0.00     0.071 A
HETATM   30 CL1  UNL     1      25.911   4.721  91.315  1.00  0.00    -0.081 Cl
HETATM   31  C13 UNL     1      27.462   6.489  92.619  1.00  0.00     0.109 A
HETATM   32  C14 UNL     1      28.672   6.994  93.034  1.00  0.00     0.071 A
HETATM   33 CL2  UNL     1      28.714   8.430  94.022  1.00  0.00    -0.081 Cl
HETATM   34  C15 UNL     1      29.840   6.357  92.666  1.00  0.00     0.056 A
BRANCH  31  35
HETATM   35  O3  UNL     1      26.261   7.126  92.984  1.00  0.00    -0.357 OA
ATOM     36  H3  UNL     1      25.646   7.433  92.329  1.00  0.00     0.217 HD
ENDBRANCH  31  35
ENDBRANCH  25  27
ENDBRANCH  24  25
ENDBRANCH  23  24
ENDBRANCH  22  23
ENDBRANCH   1  22
TORSDOF 11
ENDMDL