MODEL 1
REMARK VINA RESULT: -6.387553076      0.000      0.000
REMARK  11 active torsions:
REMARK  status: ('A' for Active; 'I' for Inactive)
REMARK    1  A    between atoms: N1_1  and  C1_4
REMARK    2  A    between atoms: C2_7  and  C3_8
REMARK    3  A    between atoms: C3_8  and  C4_9
REMARK    4  A    between atoms: C4_9  and  N3_10
REMARK    5  A    between atoms: C6_12  and  N4_13
REMARK    6  A    between atoms: N4_13  and  C7_15
REMARK    7  A    between atoms: C7_15  and  C8_16
REMARK    8  A    between atoms: C8_16  and  O1_17
REMARK    9  A    between atoms: C8_16  and  C9_19
REMARK   10  A    between atoms: C12_23  and  O2_24
REMARK   11  A    between atoms: C17_34  and  N6_35
ROOT
HETATM    1  N3  UNL     1      32.677   8.193  90.995  1.00  0.00    -0.301 N
HETATM    2  C5  UNL     1      34.041   8.083  91.035  1.00  0.00     0.140 A
HETATM    3  C6  UNL     1      34.523   8.492  92.266  1.00  0.00     0.062 A
HETATM    4  C15 UNL     1      33.403   8.851  92.974  1.00  0.00     0.138 A
HETATM    5  N5  UNL     1      32.345   8.654  92.178  1.00  0.00    -0.308 N
ATOM      6  H5  UNL     1      31.384   8.842  92.461  1.00  0.00     0.186 HD
ENDROOT
BRANCH   1   7
HETATM    7  C4  UNL     1      31.840   7.923  89.862  1.00  0.00     0.154 C
BRANCH   7   8
HETATM    8  C3  UNL     1      32.161   8.577  88.576  1.00  0.00     0.081 C
BRANCH   8   9
HETATM    9  C2  UNL     1      31.201   9.545  88.044  1.00  0.00     0.053 A
HETATM   10  N2  UNL     1      30.327   9.257  87.094  1.00  0.00    -0.194 N
HETATM   11  C1  UNL     1      29.413  10.143  86.616  1.00  0.00     0.677 A
ATOM     12  H2  UNL     1      30.339   8.318  86.697  1.00  0.00     0.184 HD
HETATM   13  N7  UNL     1      29.379  11.401  87.131  1.00  0.00    -0.176 N
HETATM   14  C17 UNL     1      30.232  11.780  88.099  1.00  0.00     0.138 A
ATOM     15  H7  UNL     1      28.695  12.069  86.776  1.00  0.00     0.186 HD
HETATM   16  C16 UNL     1      31.144  10.854  88.558  1.00  0.00     0.101 A
HETATM   17 CL3  UNL     1      32.271  11.281  89.812  1.00  0.00    -0.078 Cl
BRANCH  11  18
HETATM   18  N1  UNL     1      28.607   9.778  85.674  1.00  0.00    -0.234 N
ATOM     19  H12 UNL     1      28.729   8.893  85.182  1.00  0.00     0.174 HD
ATOM     20  H11 UNL     1      27.823  10.381  85.424  1.00  0.00     0.174 HD
ENDBRANCH  11  18
BRANCH  14  21
HETATM   21  N6  UNL     1      30.152  12.981  88.553  1.00  0.00    -0.384 N
ATOM     22  H62 UNL     1      31.008  13.527  88.641  1.00  0.00     0.157 HD
ATOM     23  H61 UNL     1      29.273  13.420  88.828  1.00  0.00     0.157 HD
ENDBRANCH  14  21
ENDBRANCH   8   9
ENDBRANCH   7   8
ENDBRANCH   1   7
BRANCH   3  24
HETATM   24  N4  UNL     1      35.868   8.500  92.671  1.00  0.00    -0.385 N
ATOM     25  H4  UNL     1      36.494   7.819  92.242  1.00  0.00     0.159 HD
BRANCH  24  26
HETATM   26  C7  UNL     1      36.427   9.392  93.641  1.00  0.00     0.156 C
BRANCH  26  27
HETATM   27  C8  UNL     1      37.531  10.191  93.004  1.00  0.00     0.169 C
BRANCH  27  28
HETATM   28  O1  UNL     1      37.677   9.793  91.688  1.00  0.00    -0.389 OA
ATOM     29  H1  UNL     1      37.795   8.851  91.658  1.00  0.00     0.210 HD
ENDBRANCH  27  28
BRANCH  27  30
HETATM   30  C9  UNL     1      37.290  11.656  93.124  1.00  0.00    -0.025 A
HETATM   31  C10 UNL     1      36.066  12.160  93.499  1.00  0.00     0.036 A
HETATM   32  C11 UNL     1      35.854  13.545  93.588  1.00  0.00     0.069 A
HETATM   33 CL1  UNL     1      34.303  14.185  94.074  1.00  0.00    -0.081 Cl
HETATM   34  C12 UNL     1      36.866  14.428  93.304  1.00  0.00     0.109 A
HETATM   35  C13 UNL     1      38.089  13.927  92.930  1.00  0.00     0.069 A
HETATM   36 CL2  UNL     1      39.350  15.080  92.571  1.00  0.00    -0.081 Cl
HETATM   37  C14 UNL     1      38.297  12.558  92.842  1.00  0.00     0.036 A
BRANCH  34  38
HETATM   38  O2  UNL     1      36.668  15.828  93.388  1.00  0.00    -0.357 OA
ATOM     39  H2  UNL     1      37.354  16.440  93.146  1.00  0.00     0.217 HD
ENDBRANCH  34  38
ENDBRANCH  27  30
ENDBRANCH  26  27
ENDBRANCH  24  26
ENDBRANCH   3  24
TORSDOF 11
ENDMDL