MODEL 3
REMARK VINA RESULT: -6.798474459      2.818      3.907
REMARK  11 active torsions:
REMARK  status: ('A' for Active; 'I' for Inactive)
REMARK    1  A    between atoms: N1_1  and  C1_4
REMARK    2  A    between atoms: C2_7  and  N3_8
REMARK    3  A    between atoms: C4_10  and  C5_11
REMARK    4  A    between atoms: C5_11  and  C6_12
REMARK    5  A    between atoms: C6_12  and  C7_13
REMARK    6  A    between atoms: C7_13  and  C8_14
REMARK    7  A    between atoms: C8_14  and  C9_16
REMARK    8  A    between atoms: C9_16  and  C10_17
REMARK    9  A    between atoms: C12_24  and  C13_25
REMARK   10  A    between atoms: C16_29  and  O1_30
REMARK   11  A    between atoms: C19_35  and  N6_36
ROOT
HETATM    1  C1  UNL     1      36.772   9.808  92.603  1.00  0.00     0.679 A
HETATM    2  N2  UNL     1      35.925   9.567  91.600  1.00  0.00    -0.176 N
ATOM      3  H2  UNL     1      36.250   9.104  90.751  1.00  0.00     0.186 HD
HETATM    4  C2  UNL     1      34.606   9.951  91.723  1.00  0.00     0.140 A
HETATM    5  C12 UNL     1      34.171  10.575  92.872  1.00  0.00     0.063 A
HETATM    6  C19 UNL     1      35.093  10.796  93.879  1.00  0.00     0.129 A
HETATM    7  N7  UNL     1      36.392  10.410  93.740  1.00  0.00    -0.176 N
ATOM      8  H7  UNL     1      37.065  10.577  94.488  1.00  0.00     0.186 HD
ENDROOT
BRANCH   4   9
HETATM    9  N3  UNL     1      33.698   9.695  90.695  1.00  0.00    -0.304 N
HETATM   10  C3  UNL     1      33.345  10.550  89.568  1.00  0.00     0.158 C
HETATM   11  C4  UNL     1      31.827  10.357  89.700  1.00  0.00     0.102 C
HETATM   12  N4  UNL     1      31.751   8.943  89.937  1.00  0.00    -0.358 N
HETATM   13  C11 UNL     1      32.863   8.564  90.527  1.00  0.00     0.192 C
ATOM     14  H4  UNL     1      30.969   8.336  89.690  1.00  0.00     0.162 HD
HETATM   15  N5  UNL     1      33.185   7.233  90.951  1.00  0.00    -0.063 NA
BRANCH  11  16
HETATM   16  C5  UNL     1      31.054  10.868  88.540  1.00  0.00     0.027 C
BRANCH  16  17
HETATM   17  C6  UNL     1      30.373  12.147  89.003  1.00  0.00     0.005 C
BRANCH  17  18
HETATM   18  C7  UNL     1      29.169  12.495  88.195  1.00  0.00     0.037 C
BRANCH  18  19
HETATM   19  C8  UNL     1      29.020  11.641  86.955  1.00  0.00     0.175 C
HETATM   20  F1  UNL     1      29.136  12.419  85.841  1.00  0.00    -0.249 F
BRANCH  19  21
HETATM   21  C9  UNL     1      27.630  11.048  86.986  1.00  0.00     0.108 C
BRANCH  21  22
HETATM   22  C10 UNL     1      27.503   9.932  85.962  1.00  0.00     0.355 C
HETATM   23  F2  UNL     1      26.420   9.138  86.235  1.00  0.00    -0.214 F
HETATM   24  F3  UNL     1      28.683   9.230  85.850  1.00  0.00    -0.214 F
ENDBRANCH  21  22
ENDBRANCH  19  21
ENDBRANCH  18  19
ENDBRANCH  17  18
ENDBRANCH  16  17
ENDBRANCH  11  16
ENDBRANCH   4   9
BRANCH   5  25
HETATM   25  C13 UNL     1      32.774  10.964  92.978  1.00  0.00    -0.015 A
HETATM   26  C14 UNL     1      31.746  10.173  93.372  1.00  0.00     0.039 A
HETATM   27  C15 UNL     1      30.458  10.646  93.429  1.00  0.00     0.069 A
HETATM   28 CL1  UNL     1      29.134   9.599  93.944  1.00  0.00    -0.081 Cl
HETATM   29  C16 UNL     1      30.167  11.945  93.087  1.00  0.00     0.109 A
HETATM   30  C17 UNL     1      31.182  12.772  92.685  1.00  0.00     0.069 A
HETATM   31 CL2  UNL     1      30.808  14.445  92.241  1.00  0.00    -0.081 Cl
HETATM   32  C18 UNL     1      32.463  12.272  92.636  1.00  0.00     0.039 A
BRANCH  29  33
HETATM   33  O1  UNL     1      28.845  12.402  93.153  1.00  0.00    -0.357 OA
ATOM     34  H1  UNL     1      28.325  12.460  92.360  1.00  0.00     0.217 HD
ENDBRANCH  29  33
ENDBRANCH   5  25
BRANCH   1  35
HETATM   35  N1  UNL     1      38.008   9.429  92.414  1.00  0.00    -0.234 N
ATOM     36  H12 UNL     1      38.578   9.831  91.670  1.00  0.00     0.174 HD
ATOM     37  H11 UNL     1      38.357   8.710  93.048  1.00  0.00     0.174 HD
ENDBRANCH   1  35
BRANCH   6  38
HETATM   38  N6  UNL     1      34.679  11.384  94.958  1.00  0.00    -0.384 N
ATOM     39  H62 UNL     1      34.002  10.938  95.577  1.00  0.00     0.157 HD
ATOM     40  H61 UNL     1      35.053  12.310  95.169  1.00  0.00     0.157 HD
ENDBRANCH   6  38
TORSDOF 11
ENDMDL