MODEL 3
REMARK VINA RESULT: -6.259363321      2.788      5.631
REMARK  9 active torsions:
REMARK  status: ('A' for Active; 'I' for Inactive)
REMARK    1  A    between atoms: C2_2  and  O1_4
REMARK    2  A    between atoms: O1_4  and  C4_5
REMARK    3  A    between atoms: C4_5  and  C5_6
REMARK    4  A    between atoms: C6_9  and  N2_10
REMARK    5  A    between atoms: C7_15  and  N4_16
REMARK    6  A    between atoms: N4_16  and  C8_18
REMARK    7  A    between atoms: C12_22  and  C13_24
REMARK    8  A    between atoms: C14_27  and  N5_28
REMARK       I    between atoms: N5_28  and  C15_30
REMARK    9  A    between atoms: C15_30  and  C16_32
ROOT
HETATM    1  C5  UNL     1      31.357  11.802  90.476  1.00  0.00     0.080 A
HETATM    2  N1  UNL     1      30.852  12.866  91.116  1.00  0.00    -0.191 N
ATOM      3  H1  UNL     1      30.164  13.451  90.642  1.00  0.00     0.184 HD
HETATM    4  C6  UNL     1      31.232  13.181  92.368  1.00  0.00     0.677 A
HETATM    5  N3  UNL     1      32.143  12.428  93.025  1.00  0.00    -0.175 N
ATOM      6  H3  UNL     1      32.428  12.671  93.973  1.00  0.00     0.186 HD
HETATM    7  C7  UNL     1      32.673  11.342  92.401  1.00  0.00     0.146 A
HETATM    8  C14 UNL     1      32.293  11.014  91.125  1.00  0.00     0.105 A
ENDROOT
BRANCH   8   9
HETATM    9  N5  UNL     1      32.851   9.891  90.430  1.00  0.00    -0.318 N
HETATM   10  C15 UNL     1      32.466   8.572  90.661  1.00  0.00     0.260 C
HETATM   11  O2  UNL     1      31.560   8.335  91.537  1.00  0.00    -0.267 OA
ATOM     12  H5  UNL     1      33.569  10.067  89.729  1.00  0.00     0.169 HD
BRANCH  10  13
HETATM   13  C16 UNL     1      33.000   7.428  89.983  1.00  0.00     0.077 A
HETATM   14  C17 UNL     1      33.589   6.386  90.722  1.00  0.00     0.046 A
HETATM   15  C18 UNL     1      34.026   5.229  90.130  1.00  0.00     0.050 A
HETATM   16 CL1  UNL     1      34.746   3.972  91.101  1.00  0.00    -0.083 Cl
HETATM   17  C19 UNL     1      33.886   5.073  88.753  1.00  0.00     0.113 A
HETATM   18  N6  UNL     1      33.333   6.054  88.057  1.00  0.00    -0.350 N
HETATM   19  C20 UNL     1      32.888   7.227  88.631  1.00  0.00     0.114 A
ATOM     20  H6  UNL     1      33.232   5.937  87.048  1.00  0.00     0.166 HD
HETATM   21  N7  UNL     1      32.467   8.078  87.794  1.00  0.00    -0.385 N
ATOM     22  H72 UNL     1      32.138   8.945  88.219  1.00  0.00     0.157 HD
ATOM     23  H71 UNL     1      32.383   7.929  86.789  1.00  0.00     0.157 HD
ENDBRANCH  10  13
ENDBRANCH   8   9
BRANCH   1  24
HETATM   24  C4  UNL     1      30.939  11.425  89.084  1.00  0.00     0.228 C
BRANCH  24  25
HETATM   25  O1  UNL     1      30.552  12.545  88.356  1.00  0.00    -0.381 OA
BRANCH  25  26
HETATM   26  C2  UNL     1      29.470  12.250  87.519  1.00  0.00     0.113 C
HETATM   27  C1  UNL     1      29.507  10.827  87.021  1.00  0.00     0.039 C
HETATM   28  C3  UNL     1      28.147  12.449  88.256  1.00  0.00     0.039 C
ENDBRANCH  25  26
ENDBRANCH  24  25
ENDBRANCH   1  24
BRANCH   7  29
HETATM   29  N4  UNL     1      33.602  10.554  93.085  1.00  0.00    -0.366 N
ATOM     30  H4  UNL     1      33.259   9.650  93.410  1.00  0.00     0.161 HD
BRANCH  29  31
HETATM   31  C8  UNL     1      34.974  10.846  93.392  1.00  0.00     0.128 C
HETATM   32  C9  UNL     1      35.283  11.084  94.828  1.00  0.00     0.029 C
HETATM   33  C10 UNL     1      36.462  10.231  95.219  1.00  0.00     0.006 C
HETATM   34  C11 UNL     1      36.434   9.109  94.227  1.00  0.00     0.051 C
HETATM   35  C12 UNL     1      35.905   9.731  92.965  1.00  0.00     0.182 C
HETATM   36  F1  UNL     1      35.218   8.728  92.287  1.00  0.00    -0.235 F
BRANCH  35  37
HETATM   37  C13 UNL     1      36.998  10.236  92.074  1.00  0.00     0.394 C
HETATM   38  F2  UNL     1      37.030  11.608  92.124  1.00  0.00    -0.211 F
HETATM   39  F3  UNL     1      38.252   9.740  92.447  1.00  0.00    -0.211 F
ENDBRANCH  35  37
ENDBRANCH  29  31
ENDBRANCH   7  29
BRANCH   4  40
HETATM   40  N2  UNL     1      30.743  14.220  93.002  1.00  0.00    -0.234 N
ATOM     41  H22 UNL     1      29.813  14.538  92.729  1.00  0.00     0.174 HD
ATOM     42  H21 UNL     1      31.262  14.697  93.740  1.00  0.00     0.174 HD
ENDBRANCH   4  40
TORSDOF 9
ENDMDL