MODEL 3
REMARK VINA RESULT: -6.674424302      1.470      1.946
REMARK  12 active torsions:
REMARK  status: ('A' for Active; 'I' for Inactive)
REMARK    1  A    between atoms: C2_2  and  C3_3
REMARK    2  A    between atoms: C3_3  and  C4_4
REMARK    3  A    between atoms: C3_3  and  N3_20
REMARK    4  A    between atoms: C4_4  and  O1_5
REMARK    5  A    between atoms: O1_5  and  C5_6
REMARK    6  A    between atoms: C5_6  and  C6_7
REMARK    7  A    between atoms: N3_20  and  C12_22
REMARK    8  A    between atoms: C12_22  and  O2_23
REMARK    9  A    between atoms: C12_22  and  C13_25
REMARK   10  A    between atoms: C14_26  and  O3_27
REMARK   11  A    between atoms: C15_29  and  O4_30
REMARK   12  A    between atoms: C16_32  and  O5_33
ROOT
HETATM    1  C3  UNL     1      31.325  10.237  92.173  1.00  0.00     0.107 C
ENDROOT
BRANCH   1   2
HETATM    2  C2  UNL     1      32.119   9.013  92.546  1.00  0.00     0.023 C
HETATM    3  C1  UNL     1      31.628   7.828  91.747  1.00  0.00     0.007 C
ENDBRANCH   1   2
BRANCH   1   4
HETATM    4  C4  UNL     1      30.898  11.104  93.320  1.00  0.00     0.193 C
BRANCH   4   5
HETATM    5  O1  UNL     1      29.729  11.729  93.317  1.00  0.00    -0.384 OA
BRANCH   5   6
HETATM    6  C5  UNL     1      29.032  12.094  94.398  1.00  0.00     0.211 C
BRANCH   6   7
HETATM    7  C6  UNL     1      27.731  12.723  93.958  1.00  0.00     0.029 A
HETATM    8  C7  UNL     1      26.602  11.972  94.019  1.00  0.00     0.018 A
HETATM    9  C8  UNL     1      26.540  10.573  94.469  1.00  0.00     0.069 C
HETATM   10  N1  UNL     1      25.426  12.549  93.625  1.00  0.00    -0.344 N
HETATM   11  C9  UNL     1      25.373  13.821  93.191  1.00  0.00     0.141 A
ATOM     12  H1  UNL     1      24.567  12.001  93.662  1.00  0.00     0.167 HD
HETATM   13  N2  UNL     1      24.246  14.336  92.829  1.00  0.00    -0.383 N
HETATM   14  C10 UNL     1      26.494  14.614  93.117  1.00  0.00     0.198 A
ATOM     15  H22 UNL     1      23.414  13.748  92.884  1.00  0.00     0.157 HD
ATOM     16  H21 UNL     1      24.206  15.301  92.499  1.00  0.00     0.157 HD
HETATM   17  F1  UNL     1      26.443  15.889  92.682  1.00  0.00    -0.199 F
HETATM   18  C11 UNL     1      27.695  14.012  93.521  1.00  0.00     0.169 A
HETATM   19  F2  UNL     1      28.826  14.728  93.473  1.00  0.00    -0.202 F
ENDBRANCH   6   7
ENDBRANCH   5   6
ENDBRANCH   4   5
ENDBRANCH   1   4
BRANCH   1  20
HETATM   20  N3  UNL     1      32.270  11.027  91.312  1.00  0.00    -0.363 N
ATOM     21  H3  UNL     1      32.959  11.640  91.748  1.00  0.00     0.162 HD
BRANCH  20  22
HETATM   22  C12 UNL     1      32.211  10.930  89.919  1.00  0.00     0.151 C
BRANCH  22  23
HETATM   23  O2  UNL     1      33.335  10.549  89.388  1.00  0.00    -0.346 OA
ATOM     24  H2  UNL     1      33.368   9.616  89.217  1.00  0.00     0.219 HD
ENDBRANCH  22  23
BRANCH  22  25
HETATM   25  C13 UNL     1      31.112  11.188  89.037  1.00  0.00     0.074 A
HETATM   26  C14 UNL     1      30.275  12.279  89.108  1.00  0.00     0.118 A
HETATM   27  C15 UNL     1      29.226  12.424  88.176  1.00  0.00     0.135 A
HETATM   28  C16 UNL     1      29.016  11.510  87.201  1.00  0.00     0.125 A
HETATM   29  C17 UNL     1      29.834  10.422  87.114  1.00  0.00     0.092 A
HETATM   30 CL1  UNL     1      29.539   9.259  85.844  1.00  0.00    -0.079 Cl
HETATM   31  C18 UNL     1      30.860  10.270  88.018  1.00  0.00     0.076 A
HETATM   32 CL2  UNL     1      31.884   8.832  87.843  1.00  0.00    -0.081 Cl
BRANCH  26  33
HETATM   33  O3  UNL     1      30.411  13.205  90.018  1.00  0.00    -0.357 OA
ATOM     34  H3  UNL     1      31.022  13.925  89.923  1.00  0.00     0.217 HD
ENDBRANCH  26  33
BRANCH  27  35
HETATM   35  O4  UNL     1      28.406  13.545  88.289  1.00  0.00    -0.356 OA
ATOM     36  H4  UNL     1      27.524  13.484  87.942  1.00  0.00     0.218 HD
ENDBRANCH  27  35
BRANCH  28  37
HETATM   37  O5  UNL     1      27.952  11.698  86.288  1.00  0.00    -0.356 OA
ATOM     38  H5  UNL     1      27.251  12.301  86.504  1.00  0.00     0.218 HD
ENDBRANCH  28  37
ENDBRANCH  22  25
ENDBRANCH  20  22
ENDBRANCH   1  20
TORSDOF 12
ENDMDL