MODEL 5
REMARK VINA RESULT: -4.151759924      3.326      6.055
REMARK  5 active torsions:
REMARK  status: ('A' for Active; 'I' for Inactive)
REMARK    1  A    between atoms: C3_3  and  C4_4
REMARK    2  A    between atoms: C4_4  and  N1_5
REMARK    3  A    between atoms: C4_4  and  N2_9
REMARK    4  A    between atoms: N2_9  and  N3_10
REMARK    5  A    between atoms: N3_10  and  C5_12
ROOT
HETATM    1  N2  UNL     1       8.248   2.338   4.372  1.00  0.00    -0.101 NA
ENDROOT
BRANCH   1   2
HETATM    2  C4  UNL     1       7.263   2.431   3.318  1.00  0.00     0.318 C
BRANCH   2   3
HETATM    3  C3  UNL     1       7.016   1.069   2.808  1.00  0.00     0.020 C
HETATM    4  C2  UNL     1       7.156   0.815   1.525  1.00  0.00    -0.032 C
HETATM    5  C1  UNL     1       6.915  -0.550   0.973  1.00  0.00     0.036 C
ENDBRANCH   2   3
BRANCH   2   6
HETATM    6  N1  UNL     1       6.046   3.007   3.835  1.00  0.00    -0.056 N
ATOM      7  H13 UNL     1       5.241   2.401   3.671  1.00  0.00     0.276 HD
ATOM      8  H12 UNL     1       6.031   3.008   4.855  1.00  0.00     0.276 HD
ATOM      9  H11 UNL     1       5.901   3.941   3.452  1.00  0.00     0.276 HD
ENDBRANCH   2   6
ENDBRANCH   1   2
BRANCH   1  10
HETATM   10  N3  UNL     1       9.260   3.265   4.260  1.00  0.00    -0.273 N
ATOM     11  H3  UNL     1       9.477   3.862   5.058  1.00  0.00     0.185 HD
BRANCH  10  12
HETATM   12  C5  UNL     1      10.015   3.411   3.049  1.00  0.00     0.187 C
HETATM   13  N4  UNL     1      11.008   2.660   2.713  1.00  0.00    -0.360 N
HETATM   14  C6  UNL     1      11.557   3.064   1.435  1.00  0.00     0.142 C
ATOM     15  H4  UNL     1      11.361   1.885   3.274  1.00  0.00     0.162 HD
HETATM   16  C7  UNL     1      10.420   3.874   0.846  1.00  0.00     0.142 C
HETATM   17  N5  UNL     1       9.786   4.396   2.042  1.00  0.00    -0.360 N
ATOM     18  H5  UNL     1       9.284   5.278   2.142  1.00  0.00     0.162 HD
ENDBRANCH  10  12
ENDBRANCH   1  10
TORSDOF 5
ENDMDL