MODEL 1
REMARK VINA RESULT: -4.892943579      0.000      0.000
REMARK  4 active torsions:
REMARK  status: ('A' for Active; 'I' for Inactive)
REMARK    1  A    between atoms: C2_2  and  N1_3
REMARK    2  A    between atoms: C2_2  and  O1_7
REMARK    3  A    between atoms: O1_7  and  C3_8
REMARK    4  A    between atoms: C3_8  and  N2_9
ROOT
HETATM    1  N2  UNL     1      13.190   6.309   4.624  1.00  0.00    -0.239 N
HETATM    2  N3  UNL     1      14.385   6.494   5.139  1.00  0.00    -0.290 N
ATOM      3  H3  UNL     1      15.049   5.748   5.348  1.00  0.00     0.188 HD
HETATM    4  C4  UNL     1      14.612   7.803   5.351  1.00  0.00     0.200 A
HETATM    5  N4  UNL     1      13.516   8.490   4.958  1.00  0.00    -0.324 N
ATOM      6  H4  UNL     1      13.376   9.499   4.991  1.00  0.00     0.169 HD
HETATM    7  C5  UNL     1      12.652   7.562   4.514  1.00  0.00     0.212 A
HETATM    8  N5  UNL     1      11.368   7.869   4.008  1.00  0.00    -0.062 NA
ENDROOT
BRANCH   1   9
HETATM    9  C3  UNL     1      12.493   5.096   4.232  1.00  0.00     0.322 C
BRANCH   9  10
HETATM   10  O1  UNL     1      11.703   4.692   5.261  1.00  0.00    -0.338 OA
BRANCH  10  11
HETATM   11  C2  UNL     1      10.945   3.588   5.139  1.00  0.00     0.315 C
HETATM   12  C1  UNL     1      11.603   2.296   5.563  1.00  0.00     0.070 C
BRANCH  11  13
HETATM   13  N1  UNL     1       9.696   3.743   5.894  1.00  0.00    -0.053 N
ATOM     14  H13 UNL     1       9.081   2.934   5.804  1.00  0.00     0.277 HD
ATOM     15  H12 UNL     1       9.840   3.697   6.903  1.00  0.00     0.277 HD
ATOM     16  H11 UNL     1       9.248   4.610   5.600  1.00  0.00     0.277 HD
ENDBRANCH  11  13
ENDBRANCH  10  11
ENDBRANCH   9  10
ENDBRANCH   1   9
TORSDOF 4
ENDMDL