MODEL 4
REMARK VINA RESULT: -3.973555835      1.177      1.269
REMARK  6 active torsions:
REMARK  status: ('A' for Active; 'I' for Inactive)
REMARK    1  A    between atoms: N1_1  and  C1_4
REMARK    2  A    between atoms: C2_9  and  C3_10
REMARK    3  A    between atoms: C3_10  and  C4_11
REMARK    4  A    between atoms: C4_11  and  N4_12
REMARK    5  A    between atoms: C4_11  and  C5_16
REMARK    6  A    between atoms: C5_16  and  N5_17
ROOT
HETATM    1  C3  UNL     1      12.104   1.053   5.391  1.00  0.00     0.101 C
ENDROOT
BRANCH   1   2
HETATM    2  C2  UNL     1      10.806   1.704   5.006  1.00  0.00     0.071 A
HETATM    3  N3  UNL     1      10.273   2.809   5.524  1.00  0.00    -0.296 N
HETATM    4  N2  UNL     1       9.155   3.228   5.114  1.00  0.00    -0.279 N
ATOM      5  H3  UNL     1      10.769   3.318   6.254  1.00  0.00     0.187 HD
HETATM    6  C1  UNL     1       8.515   2.548   4.155  1.00  0.00     0.158 A
ATOM      7  H2  UNL     1       8.744   4.075   5.509  1.00  0.00     0.189 HD
HETATM    8  S1  UNL     1       9.600   1.264   3.862  1.00  0.00    -0.038 SA
BRANCH   6   9
HETATM    9  N1  UNL     1       7.352   2.840   3.616  1.00  0.00    -0.379 N
ATOM     10  H12 UNL     1       6.502   2.286   3.512  1.00  0.00     0.158 HD
ATOM     11  H11 UNL     1       7.078   3.722   3.181  1.00  0.00     0.158 HD
ENDBRANCH   6   9
ENDBRANCH   1   2
BRANCH   1  12
HETATM   12  C4  UNL     1      12.648   1.614   6.650  1.00  0.00     0.215 C
BRANCH  12  13
HETATM   13  N4  UNL     1      14.026   2.085   6.354  1.00  0.00    -0.073 N
ATOM     14  H43 UNL     1      14.604   1.376   5.902  1.00  0.00     0.274 HD
ATOM     15  H42 UNL     1      14.061   2.777   5.606  1.00  0.00     0.274 HD
ATOM     16  H41 UNL     1      14.419   2.422   7.233  1.00  0.00     0.274 HD
ENDBRANCH  12  13
BRANCH  12  17
HETATM   17  C5  UNL     1      12.802   0.571   7.734  1.00  0.00     0.262 C
BRANCH  17  18
HETATM   18  N5  UNL     1      11.599  -0.046   8.124  1.00  0.00    -0.077 N
ATOM     19  H53 UNL     1      11.779  -0.988   8.470  1.00  0.00     0.274 HD
ATOM     20  H52 UNL     1      11.236   0.387   8.972  1.00  0.00     0.274 HD
ATOM     21  H51 UNL     1      10.880  -0.066   7.401  1.00  0.00     0.274 HD
ENDBRANCH  17  18
ENDBRANCH  12  17
ENDBRANCH   1  12
TORSDOF 6
ENDMDL