MODEL 4
REMARK VINA RESULT: -4.049964928      2.360      3.032
REMARK  4 active torsions:
REMARK  status: ('A' for Active; 'I' for Inactive)
REMARK    1  A    between atoms: C2_5  and  N3_6
REMARK    2  A    between atoms: N3_6  and  C3_8
REMARK    3  A    between atoms: C3_8  and  C4_9
REMARK    4  A    between atoms: C4_9  and  N4_10
ROOT
HETATM    1  C1  UNL     1      11.309   1.220   5.016  1.00  0.00     0.198 C
HETATM    2  N1  UNL     1      10.041   1.722   4.508  1.00  0.00    -0.114 N
HETATM    3  N2  UNL     1       9.187   1.144   3.680  1.00  0.00    -0.116 N
ATOM      4  H2  UNL     1       9.312   0.220   3.267  1.00  0.00     0.206 HD
HETATM    5  C2  UNL     1       8.123   1.949   3.457  1.00  0.00     0.707 A
HETATM    6  N5  UNL     1       8.343   3.069   4.185  1.00  0.00    -0.020 N
ATOM      7  H5  UNL     1       7.727   3.880   4.239  1.00  0.00     0.203 HD
HETATM    8  C5  UNL     1       9.524   2.922   4.827  1.00  0.00     0.707 A
HETATM    9  N6  UNL     1      10.067   3.809   5.627  1.00  0.00    -0.233 N
ATOM     10  H61 UNL     1       9.675   4.719   5.870  1.00  0.00     0.174 HD
ATOM     11  H62 UNL     1      10.958   3.698   6.112  1.00  0.00     0.174 HD
ENDROOT
BRANCH   5  12
HETATM   12  N3  UNL     1       7.109   1.673   2.691  1.00  0.00    -0.223 N
ATOM     13  H3  UNL     1       6.359   2.349   2.548  1.00  0.00     0.177 HD
BRANCH  12  14
HETATM   14  C3  UNL     1       7.076   0.382   2.051  1.00  0.00     0.165 C
BRANCH  14  15
HETATM   15  C4  UNL     1       6.894   0.497   0.557  1.00  0.00     0.249 C
BRANCH  15  16
HETATM   16  N4  UNL     1       8.127   0.808  -0.123  1.00  0.00    -0.078 N
ATOM     17  H43 UNL     1       8.902   0.885   0.536  1.00  0.00     0.274 HD
ATOM     18  H42 UNL     1       8.457   0.012  -0.671  1.00  0.00     0.274 HD
ATOM     19  H41 UNL     1       8.052   1.646  -0.700  1.00  0.00     0.274 HD
ENDBRANCH  15  16
ENDBRANCH  14  15
ENDBRANCH  12  14
ENDBRANCH   5  12
TORSDOF 4
ENDMDL