MODEL 4
REMARK VINA RESULT: -4.192043460      3.398      5.766
REMARK  6 active torsions:
REMARK  status: ('A' for Active; 'I' for Inactive)
REMARK    1  A    between atoms: C1_4  and  N2_5
REMARK    2  A    between atoms: N2_5  and  C2_7
REMARK    3  A    between atoms: C3_13  and  N5_14
REMARK    4  A    between atoms: N5_14  and  C4_16
REMARK    5  A    between atoms: C4_16  and  C5_17
REMARK    6  A    between atoms: C5_17  and  N6_18
ROOT
HETATM    1  C2  UNL     1       8.508   2.708   3.512  1.00  0.00     0.174 A
HETATM    2  N3  UNL     1       7.282   2.882   4.030  1.00  0.00    -0.222 N
ATOM      3  H3  UNL     1       7.002   3.611   4.687  1.00  0.00     0.198 HD
HETATM    4  O1  UNL     1       6.516   1.953   3.539  1.00  0.00    -0.153 OA
HETATM    5  N4  UNL     1       7.183   1.184   2.731  1.00  0.00    -0.222 N
ATOM      6  H4  UNL     1       6.798   0.386   2.227  1.00  0.00     0.198 HD
HETATM    7  C3  UNL     1       8.473   1.607   2.662  1.00  0.00     0.170 A
ENDROOT
BRANCH   7   8
HETATM    8  N5  UNL     1       9.445   1.113   1.973  1.00  0.00    -0.370 N
ATOM      9  H5  UNL     1      10.115   0.466   2.391  1.00  0.00     0.161 HD
BRANCH   8  10
HETATM   10  C4  UNL     1       9.550   1.509   0.590  1.00  0.00     0.148 C
BRANCH  10  11
HETATM   11  C5  UNL     1       9.098   0.419  -0.352  1.00  0.00     0.249 C
BRANCH  11  12
HETATM   12  N6  UNL     1       7.798   0.644  -0.900  1.00  0.00    -0.078 N
ATOM     13  H63 UNL     1       7.236  -0.206  -0.858  1.00  0.00     0.274 HD
ATOM     14  H62 UNL     1       7.246   1.243  -0.286  1.00  0.00     0.274 HD
ATOM     15  H61 UNL     1       7.817   1.019  -1.848  1.00  0.00     0.274 HD
ENDBRANCH  11  12
ENDBRANCH  10  11
ENDBRANCH   8  10
ENDBRANCH   7   8
BRANCH   1  16
HETATM   16  N2  UNL     1       9.553   3.434   3.755  1.00  0.00    -0.334 N
ATOM     17  H2  UNL     1       9.798   4.203   3.130  1.00  0.00     0.168 HD
BRANCH  16  18
HETATM   18  C1  UNL     1      10.350   3.161   4.885  1.00  0.00     0.175 C
HETATM   19  N1  UNL     1      10.229   3.884   5.933  1.00  0.00    -0.395 N
ATOM     20  H12 UNL     1       9.555   4.649   5.935  1.00  0.00     0.156 HD
ATOM     21  H11 UNL     1      10.806   3.686   6.750  1.00  0.00     0.156 HD
ENDBRANCH  16  18
ENDBRANCH   1  16
TORSDOF 6
ENDMDL