MODEL 5
REMARK VINA RESULT: -4.099766156      1.784      5.331
REMARK  5 active torsions:
REMARK  status: ('A' for Active; 'I' for Inactive)
REMARK    1  A    between atoms: N1_2  and  C2_5
REMARK    2  A    between atoms: C2_5  and  C3_6
REMARK    3  A    between atoms: C3_6  and  O1_7
REMARK    4  A    between atoms: O1_7  and  C4_8
REMARK    5  A    between atoms: C7_15  and  N4_16
ROOT
HETATM    1  C4  UNL     1      11.321   3.713   5.823  1.00  0.00     0.253 C
HETATM    2  N2  UNL     1       9.956   3.682   5.481  1.00  0.00    -0.358 N
ATOM      3  H2  UNL     1       9.271   4.216   6.014  1.00  0.00     0.162 HD
HETATM    4  C5  UNL     1       9.559   2.888   4.371  1.00  0.00     0.173 C
HETATM    5  N3  UNL     1      10.204   1.625   4.239  1.00  0.00    -0.384 N
ATOM      6  H3  UNL     1       9.941   0.941   3.529  1.00  0.00     0.160 HD
HETATM    7  C6  UNL     1      11.258   1.396   5.193  1.00  0.00     0.157 C
HETATM    8  C7  UNL     1      12.111   2.646   5.150  1.00  0.00     0.249 C
ENDROOT
BRANCH   1   9
HETATM    9  O1  UNL     1      11.861   4.984   5.661  1.00  0.00    -0.363 OA
BRANCH   9  10
HETATM   10  C3  UNL     1      12.296   5.277   4.395  1.00  0.00     0.198 C
BRANCH  10  11
HETATM   11  C2  UNL     1      12.362   6.806   4.306  1.00  0.00     0.258 C
BRANCH  11  12
HETATM   12  N1  UNL     1      13.030   7.365   5.461  1.00  0.00    -0.077 N
HETATM   13  C1  UNL     1      14.376   7.803   5.186  1.00  0.00     0.267 C
ATOM     14  H12 UNL     1      13.016   6.707   6.241  1.00  0.00     0.276 HD
ATOM     15  H11 UNL     1      12.479   8.120   5.868  1.00  0.00     0.276 HD
ENDBRANCH  11  12
ENDBRANCH  10  11
ENDBRANCH   9  10
ENDBRANCH   1   9
BRANCH   8  16
HETATM   16  N4  UNL     1      13.352   2.336   5.828  1.00  0.00    -0.069 N
ATOM     17  H43 UNL     1      13.369   2.752   6.759  1.00  0.00     0.275 HD
ATOM     18  H42 UNL     1      13.388   1.349   6.083  1.00  0.00     0.275 HD
ATOM     19  H41 UNL     1      14.181   2.604   5.297  1.00  0.00     0.275 HD
ENDBRANCH   8  16
TORSDOF 5
ENDMDL