MODEL 4
REMARK VINA RESULT: -4.640609319      7.417      8.277
REMARK  5 active torsions:
REMARK  status: ('A' for Active; 'I' for Inactive)
REMARK    1  A    between atoms: N1_1  and  N2_4
REMARK    2  A    between atoms: N2_4  and  O1_5
REMARK    3  A    between atoms: O1_5  and  N3_6
REMARK    4  A    between atoms: N3_6  and  S1_8
REMARK    5  A    between atoms: S1_8  and  C1_10
ROOT
HETATM    1  S1  UNL     1      13.675   2.858   5.338  1.00  0.00     0.174 S
HETATM    2  O2  UNL     1      14.307   2.513   6.825  1.00  0.00    -0.228 OA
ENDROOT
BRANCH   1   3
HETATM    3  N3  UNL     1      14.395   4.185   4.552  1.00  0.00    -0.186 N
ATOM      4  H3  UNL     1      14.343   4.322   3.543  1.00  0.00     0.207 HD
BRANCH   3   5
HETATM    5  O1  UNL     1      15.032   5.032   5.364  1.00  0.00    -0.135 OA
BRANCH   5   6
HETATM    6  N2  UNL     1      15.543   6.027   4.600  1.00  0.00     0.040 NA
BRANCH   6   7
HETATM    7  N1  UNL     1      15.106   7.284   4.972  1.00  0.00    -0.321 N
ATOM      8  H12 UNL     1      14.335   7.756   4.500  1.00  0.00     0.174 HD
ATOM      9  H11 UNL     1      15.628   7.680   5.754  1.00  0.00     0.174 HD
ENDBRANCH   6   7
ENDBRANCH   5   6
ENDBRANCH   3   5
ENDBRANCH   1   3
BRANCH   1  10
HETATM   10  C1  UNL     1      11.953   2.897   5.284  1.00  0.00     0.087 A
HETATM   11  C2  UNL     1      11.161   3.964   5.622  1.00  0.00     0.131 A
HETATM   12  N4  UNL     1       9.860   3.591   5.442  1.00  0.00    -0.311 N
HETATM   13  N5  UNL     1       9.814   2.336   5.007  1.00  0.00    -0.311 N
ATOM     14  H4  UNL     1       9.048   4.185   5.614  1.00  0.00     0.186 HD
HETATM   15  C3  UNL     1      11.101   1.888   4.903  1.00  0.00     0.131 A
ATOM     16  H5  UNL     1       8.971   1.803   4.790  1.00  0.00     0.186 HD
ENDBRANCH   1  10
TORSDOF 5
ENDMDL