MODEL 4
REMARK VINA RESULT: -4.690750462      2.955      4.256
REMARK  3 active torsions:
REMARK  status: ('A' for Active; 'I' for Inactive)
REMARK    1  A    between atoms: N1_1  and  N2_4
REMARK       I    between atoms: C1_6  and  N4_8
REMARK    2  A    between atoms: N4_8  and  N5_10
REMARK    3  A    between atoms: C2_12  and  C3_13
ROOT
HETATM    1  N5  UNL     1      12.607   2.711   5.756  1.00  0.00    -0.307 N
ATOM      2  H5  UNL     1      13.625   2.776   5.766  1.00  0.00     0.186 HD
HETATM    3  C2  UNL     1      11.944   3.481   4.972  1.00  0.00     0.139 C
ENDROOT
BRANCH   1   4
HETATM    4  N4  UNL     1      11.985   1.792   6.591  1.00  0.00    -0.273 N
HETATM    5  C1  UNL     1      12.766   0.733   7.124  1.00  0.00     0.221 C
HETATM    6  N2  UNL     1      13.971   0.492   6.770  1.00  0.00    -0.279 N
HETATM    7  N3  UNL     1      12.193  -0.116   8.108  1.00  0.00    -0.061 NA
ATOM      8  H2  UNL     1      14.435  -0.297   7.222  1.00  0.00     0.189 HD
ATOM      9  H4  UNL     1      10.993   1.876   6.815  1.00  0.00     0.189 HD
BRANCH   6  10
HETATM   10  N1  UNL     1      14.702   1.191   5.840  1.00  0.00    -0.343 N
ATOM     11  H12 UNL     1      14.163   1.647   5.104  1.00  0.00     0.176 HD
ATOM     12  H11 UNL     1      15.717   1.292   5.822  1.00  0.00     0.176 HD
ENDBRANCH   6  10
ENDBRANCH   1   4
BRANCH   3  13
HETATM   13  C3  UNL     1      10.495   3.378   4.969  1.00  0.00     0.083 A
HETATM   14  C4  UNL     1       9.703   2.848   3.944  1.00  0.00     0.141 A
HETATM   15  N6  UNL     1       8.404   2.929   4.315  1.00  0.00    -0.295 N
HETATM   16  N7  UNL     1       8.372   3.478   5.511  1.00  0.00    -0.243 N
ATOM     17  H6  UNL     1       7.600   2.620   3.770  1.00  0.00     0.187 HD
HETATM   18  N8  UNL     1       9.607   3.746   5.902  1.00  0.00    -0.284 N
ATOM     19  H7  UNL     1       7.527   3.668   6.050  1.00  0.00     0.208 HD
ATOM     20  H8  UNL     1       9.850   4.175   6.795  1.00  0.00     0.188 HD
ENDBRANCH   3  13
TORSDOF 3
ENDMDL