MODEL 5
REMARK VINA RESULT: -4.030310862      2.747      4.598
REMARK  4 active torsions:
REMARK  status: ('A' for Active; 'I' for Inactive)
REMARK    1  A    between atoms: N1_1  and  C1_4
REMARK    2  A    between atoms: N3_7  and  C2_8
REMARK    3  A    between atoms: C2_8  and  C3_9
REMARK    4  A    between atoms: C3_9  and  N4_10
ROOT
HETATM    1  C1  UNL     1       7.116   2.602   3.713  1.00  0.00     0.145 A
HETATM    2  N2  UNL     1       8.217   2.961   4.395  1.00  0.00    -0.280 N
ATOM      3  H2  UNL     1       8.265   3.749   5.041  1.00  0.00     0.189 HD
HETATM    4  N3  UNL     1       9.230   2.158   4.118  1.00  0.00    -0.271 N
HETATM    5  C4  UNL     1       8.796   1.230   3.222  1.00  0.00     0.154 A
HETATM    6  N5  UNL     1       9.094   0.154   2.472  1.00  0.00    -0.335 N
ATOM      7  H5  UNL     1      10.002  -0.309   2.431  1.00  0.00     0.168 HD
HETATM    8  C5  UNL     1       7.999  -0.211   1.787  1.00  0.00     0.182 A
HETATM    9  N6  UNL     1       6.976   0.618   2.080  1.00  0.00    -0.346 N
ATOM     10  H6  UNL     1       6.027   0.581   1.709  1.00  0.00     0.167 HD
HETATM   11  C6  UNL     1       7.468   1.501   2.962  1.00  0.00     0.124 A
ENDROOT
BRANCH   4  12
HETATM   12  C2  UNL     1      10.575   2.223   4.654  1.00  0.00     0.178 C
BRANCH  12  13
HETATM   13  C3  UNL     1      11.059   3.645   4.819  1.00  0.00     0.251 C
BRANCH  13  14
HETATM   14  N4  UNL     1      10.808   4.102   6.172  1.00  0.00    -0.078 N
ATOM     15  H43 UNL     1      10.495   3.345   6.779  1.00  0.00     0.274 HD
ATOM     16  H42 UNL     1      11.671   4.338   6.662  1.00  0.00     0.274 HD
ATOM     17  H41 UNL     1      10.150   4.881   6.161  1.00  0.00     0.274 HD
ENDBRANCH  13  14
ENDBRANCH  12  13
ENDBRANCH   4  12
BRANCH   1  18
HETATM   18  N1  UNL     1       5.936   3.173   3.745  1.00  0.00    -0.382 N
ATOM     19  H12 UNL     1       5.596   3.890   3.104  1.00  0.00     0.157 HD
ATOM     20  H11 UNL     1       5.179   2.997   4.405  1.00  0.00     0.157 HD
ENDBRANCH   1  18
TORSDOF 4
ENDMDL