MODEL 4
REMARK VINA RESULT: -0.009893841      2.681      8.454
REMARK  3 active torsions:
REMARK  status: ('A' for Active; 'I' for Inactive)
REMARK    1  A    between atoms: O1_2  and  C2_3
REMARK    2  A    between atoms: C7_10  and  C8_11
REMARK    3  A    between atoms: C9_12  and  C10_13
ROOT
HETATM    1  C8  UNL     1      21.492  10.994  33.942  1.00  0.00    -0.042 C
HETATM    2  C9  UNL     1      20.393  10.580  34.224  1.00  0.00    -0.041 C
ENDROOT
BRANCH   1   3
HETATM    3  C7  UNL     1      22.804  11.466  33.594  1.00  0.00     0.088 A
HETATM    4  N1  UNL     1      23.375  12.653  33.769  1.00  0.00    -0.348 N
HETATM    5  C6  UNL     1      24.629  12.695  33.299  1.00  0.00     0.046 A
ATOM      6  H1  UNL     1      22.909  13.446  34.212  1.00  0.00     0.167 HD
HETATM    7  C5  UNL     1      25.585  13.701  33.266  1.00  0.00     0.030 A
HETATM    8  C20 UNL     1      24.893  11.445  32.782  1.00  0.00     0.027 A
HETATM    9  C4  UNL     1      26.813  13.381  32.686  1.00  0.00     0.005 A
HETATM   10  C3  UNL     1      27.086  12.147  32.171  1.00  0.00     0.038 A
HETATM   11  C2  UNL     1      26.114  11.152  32.214  1.00  0.00     0.080 A
HETATM   12  C19 UNL     1      23.766  10.671  32.958  1.00  0.00     0.055 A
BRANCH  11  13
HETATM   13  O1  UNL     1      26.370   9.903  31.700  1.00  0.00    -0.355 OA
HETATM   14  C1  UNL     1      25.613   8.780  32.082  1.00  0.00     0.210 C
ENDBRANCH  11  13
ENDBRANCH   1   3
BRANCH   2  15
HETATM   15  C10 UNL     1      19.090  10.068  34.544  1.00  0.00     0.098 A
HETATM   16  N2  UNL     1      18.526  10.227  35.755  1.00  0.00    -0.358 N
HETATM   17  C11 UNL     1      17.306   9.748  36.055  1.00  0.00     0.090 A
ATOM     18  H2  UNL     1      19.045  10.731  36.475  1.00  0.00     0.166 HD
HETATM   19  C12 UNL     1      16.591   9.064  35.101  1.00  0.00     0.029 A
HETATM   20  C13 UNL     1      17.133   8.883  33.858  1.00  0.00    -0.022 A
HETATM   21  C14 UNL     1      16.433   8.200  32.883  1.00  0.00     0.012 A
HETATM   22  C18 UNL     1      18.388   9.389  33.584  1.00  0.00     0.010 A
HETATM   23  C15 UNL     1      16.977   8.019  31.637  1.00  0.00     0.001 A
HETATM   24  C16 UNL     1      18.241   8.536  31.384  1.00  0.00     0.001 A
HETATM   25  C17 UNL     1      18.950   9.214  32.334  1.00  0.00     0.015 A
ENDBRANCH   2  15
TORSDOF 3
ENDMDL