MODEL 1
REMARK VINA RESULT: -9.250130754      0.000      0.000
REMARK  1 active torsions:
REMARK  status: ('A' for Active; 'I' for Inactive)
REMARK    1  A    between atoms: O1_1  and  N1_3
ROOT
HETATM    1  N1  UNL     1      25.157   9.799  32.147  1.00  0.00    -0.234 N
HETATM    2  C1  UNL     1      26.287  10.172  31.523  1.00  0.00     0.123 A
HETATM    3  C2  UNL     1      26.504  11.507  31.255  1.00  0.00     0.022 A
HETATM    4  C3  UNL     1      25.538  12.435  31.643  1.00  0.00     0.033 A
HETATM    5  C4  UNL     1      24.383  12.015  32.287  1.00  0.00     0.062 A
HETATM    6  N2  UNL     1      23.450  12.908  32.663  1.00  0.00    -0.354 N
ATOM      7  H2  UNL     1      23.608  13.896  32.466  1.00  0.00     0.166 HD
HETATM    8  C5  UNL     1      22.320  12.546  33.287  1.00  0.00     0.044 A
HETATM    9  C6  UNL     1      21.390  13.490  33.656  1.00  0.00     0.033 A
HETATM   10  C7  UNL     1      20.236  13.122  34.293  1.00  0.00     0.033 A
HETATM   11  C8  UNL     1      20.003  11.797  34.568  1.00  0.00     0.044 A
HETATM   12  N3  UNL     1      18.990  11.157  35.164  1.00  0.00    -0.355 N
ATOM     13  H3  UNL     1      18.155  11.603  35.543  1.00  0.00     0.166 HD
HETATM   14  C9  UNL     1      19.240   9.848  35.189  1.00  0.00     0.043 A
HETATM   15  C10 UNL     1      18.484   8.787  35.701  1.00  0.00     0.030 A
HETATM   16  C11 UNL     1      18.901   7.481  35.640  1.00  0.00     0.002 A
HETATM   17  C12 UNL     1      20.111   7.234  35.045  1.00  0.00     0.001 A
HETATM   18  C13 UNL     1      20.868   8.294  34.532  1.00  0.00     0.014 A
HETATM   19  C14 UNL     1      20.469   9.603  34.584  1.00  0.00     0.004 A
HETATM   20  C15 UNL     1      20.947  10.835  34.194  1.00  0.00     0.016 A
HETATM   21  C16 UNL     1      22.108  11.205  33.553  1.00  0.00     0.006 A
HETATM   22  C17 UNL     1      23.034  10.262  33.186  1.00  0.00     0.049 A
HETATM   23  C18 UNL     1      24.211  10.673  32.532  1.00  0.00     0.089 A
ENDROOT
BRANCH   1  24
HETATM   24  O1  UNL     1      24.984   8.459  32.392  1.00  0.00    -0.283 OA
ATOM     25  H1  UNL     1      24.150   8.074  32.150  1.00  0.00     0.245 HD
ENDBRANCH   1  24
TORSDOF 1
ENDMDL