MODEL 2
REMARK VINA RESULT: -7.027909860      2.261      2.715
REMARK  0 active torsions:
REMARK  status: ('A' for Active; 'I' for Inactive)
ROOT
HETATM    1  C1  UNL     1      18.626   8.963  36.871  1.00  0.00     0.018 C
HETATM    2  C2  UNL     1      19.083   9.074  35.757  1.00  0.00    -0.077 C
HETATM    3  C3  UNL     1      19.634   9.225  34.438  1.00  0.00     0.030 A
HETATM    4  C4  UNL     1      20.920   9.736  34.255  1.00  0.00     0.036 A
HETATM    5  C5  UNL     1      21.395   9.858  32.964  1.00  0.00     0.007 A
HETATM    6  C6  UNL     1      22.610  10.325  32.508  1.00  0.00     0.004 A
HETATM    7  C7  UNL     1      23.660  10.793  33.271  1.00  0.00     0.028 C
HETATM    8  C8  UNL     1      24.910  11.231  32.837  1.00  0.00    -0.007 A
HETATM    9  C9  UNL     1      25.936  11.542  33.695  1.00  0.00     0.030 A
HETATM   10  C10 UNL     1      27.035  11.940  32.965  1.00  0.00     0.089 A
HETATM   11  N1  UNL     1      26.664  11.865  31.675  1.00  0.00    -0.365 N
ATOM     12  H1  UNL     1      27.265  12.097  30.884  1.00  0.00     0.165 HD
HETATM   13  C11 UNL     1      25.409  11.447  31.570  1.00  0.00     0.042 A
HETATM   14  C12 UNL     1      24.711  11.258  30.372  1.00  0.00     0.033 C
HETATM   15  C13 UNL     1      23.535  10.571  30.164  1.00  0.00     0.033 C
HETATM   16  C14 UNL     1      22.546  10.219  31.048  1.00  0.00     0.044 A
HETATM   17  N2  UNL     1      21.336   9.711  30.741  1.00  0.00    -0.353 N
ATOM     18  H2  UNL     1      21.000   9.522  29.797  1.00  0.00     0.166 HD
HETATM   19  C15 UNL     1      20.639   9.491  31.873  1.00  0.00     0.071 A
HETATM   20  C16 UNL     1      19.356   8.983  32.090  1.00  0.00     0.071 A
HETATM   21  N3  UNL     1      18.577   8.610  31.054  1.00  0.00    -0.363 N
ATOM     22  H3  UNL     1      18.946   8.708  30.108  1.00  0.00     0.165 HD
HETATM   23  C17 UNL     1      17.337   8.116  31.212  1.00  0.00     0.088 A
HETATM   24  C18 UNL     1      16.782   7.961  32.467  1.00  0.00     0.018 A
HETATM   25  C19 UNL     1      17.568   8.338  33.540  1.00  0.00     0.016 A
HETATM   26  C20 UNL     1      18.842   8.845  33.367  1.00  0.00     0.012 A
ENDROOT
TORSDOF 0
ENDMDL