MODEL 2
REMARK VINA RESULT: -6.876993455      1.401      6.263
REMARK  0 active torsions:
REMARK  status: ('A' for Active; 'I' for Inactive)
ROOT
HETATM    1  C1  UNL     1      21.241  14.380  33.673  1.00  0.00     0.158 C
HETATM    2  N1  UNL     1      21.502  12.967  33.645  1.00  0.00    -0.328 N
HETATM    3  C2  UNL     1      20.595  12.117  34.171  1.00  0.00     0.136 A
HETATM    4  N2  UNL     1      19.407  12.234  34.770  1.00  0.00    -0.340 N
ATOM      5  H2  UNL     1      18.931  13.118  34.948  1.00  0.00     0.167 HD
HETATM    6  C3  UNL     1      18.927  11.029  35.105  1.00  0.00     0.046 A
HETATM    7  C4  UNL     1      17.774  10.579  35.726  1.00  0.00     0.030 A
HETATM    8  C5  UNL     1      17.548   9.234  35.942  1.00  0.00     0.002 A
HETATM    9  C6  UNL     1      18.486   8.309  35.531  1.00  0.00     0.001 A
HETATM   10  C7  UNL     1      19.615   8.759  34.921  1.00  0.00     0.016 A
HETATM   11  C8  UNL     1      19.855  10.107  34.699  1.00  0.00     0.021 A
HETATM   12  C9  UNL     1      20.908  10.790  34.110  1.00  0.00     0.090 A
HETATM   13  N3  UNL     1      22.032  10.344  33.569  1.00  0.00    -0.349 N
ATOM     14  H3  UNL     1      22.208   9.339  33.553  1.00  0.00     0.166 HD
HETATM   15  C10 UNL     1      22.967  11.194  33.029  1.00  0.00     0.079 A
HETATM   16  C11 UNL     1      24.150  10.855  32.450  1.00  0.00     0.011 A
HETATM   17  C12 UNL     1      24.718   9.576  32.255  1.00  0.00     0.015 A
HETATM   18  C13 UNL     1      25.919   9.383  31.656  1.00  0.00     0.001 A
HETATM   19  C14 UNL     1      26.675  10.446  31.191  1.00  0.00     0.001 A
HETATM   20  C15 UNL     1      26.157  11.709  31.361  1.00  0.00     0.020 A
HETATM   21  C16 UNL     1      24.920  11.882  31.981  1.00  0.00     0.019 A
HETATM   22  S1  UNL     1      23.986  13.264  32.354  1.00  0.00    -0.069 SA
HETATM   23  C17 UNL     1      22.652  12.514  33.091  1.00  0.00     0.106 A
ENDROOT
TORSDOF 0
ENDMDL