MODEL 4
REMARK VINA RESULT: -6.333995435      1.548      5.316
REMARK  2 active torsions:
REMARK  status: ('A' for Active; 'I' for Inactive)
REMARK    1  A    between atoms: O1_1  and  N1_3
REMARK    2  A    between atoms: C2_5  and  C18_25
ROOT
HETATM    1  N1  UNL     1      19.554  13.183  33.786  1.00  0.00    -0.174 N
HETATM    2  C1  UNL     1      20.836  13.510  33.557  1.00  0.00     0.158 A
HETATM    3  C2  UNL     1      21.555  12.368  33.716  1.00  0.00     0.025 A
HETATM    4  C3  UNL     1      20.688  11.337  34.048  1.00  0.00     0.076 A
HETATM    5  N2  UNL     1      19.458  11.897  34.078  1.00  0.00    -0.273 N
ATOM      6  H2  UNL     1      18.591  11.405  34.293  1.00  0.00     0.189 HD
HETATM    7  C4  UNL     1      21.173  10.083  34.260  1.00  0.00     0.033 A
HETATM    8  C5  UNL     1      20.570   8.896  34.594  1.00  0.00     0.005 A
HETATM    9  C6  UNL     1      19.279   8.535  34.832  1.00  0.00     0.014 A
HETATM   10  C7  UNL     1      18.969   7.205  35.159  1.00  0.00     0.001 A
HETATM   11  C8  UNL     1      19.948   6.241  35.248  1.00  0.00     0.002 A
HETATM   12  C9  UNL     1      21.255   6.649  34.998  1.00  0.00     0.030 A
HETATM   13  C10 UNL     1      21.564   7.944  34.678  1.00  0.00     0.043 A
HETATM   14  N3  UNL     1      22.744   8.543  34.401  1.00  0.00    -0.354 N
ATOM     15  H3  UNL     1      23.652   8.078  34.390  1.00  0.00     0.166 HD
HETATM   16  C11 UNL     1      22.536   9.843  34.144  1.00  0.00     0.058 A
HETATM   17  C12 UNL     1      23.412  10.872  33.811  1.00  0.00     0.015 A
HETATM   18  C13 UNL     1      24.672  11.352  33.551  1.00  0.00    -0.012 A
HETATM   19  C14 UNL     1      26.026  11.461  33.360  1.00  0.00     0.013 A
HETATM   20  C15 UNL     1      26.346  12.785  33.033  1.00  0.00     0.002 A
HETATM   21  C16 UNL     1      25.204  13.537  33.010  1.00  0.00     0.013 A
HETATM   22  C17 UNL     1      24.155  12.695  33.323  1.00  0.00    -0.013 A
HETATM   23  C18 UNL     1      22.917  12.137  33.598  1.00  0.00     0.002 A
ENDROOT
BRANCH   1  24
HETATM   24  O1  UNL     1      18.469  14.053  33.731  1.00  0.00    -0.268 OA
ATOM     25  H1  UNL     1      18.343  14.819  34.278  1.00  0.00     0.247 HD
ENDBRANCH   1  24
TORSDOF 2
ENDMDL