MODEL 4
REMARK VINA RESULT: -5.148321502      3.887      7.455
REMARK  1 active torsions:
REMARK  status: ('A' for Active; 'I' for Inactive)
REMARK       I    between atoms: C2_2  and  N1_4
REMARK    1  A    between atoms: N1_4  and  C3_6
ROOT
HETATM    1  C3  UNL     1      25.586  11.271  32.060  1.00  0.00     0.152 A
HETATM    2  N2  UNL     1      24.845  10.949  30.999  1.00  0.00    -0.335 N
ATOM      3  H2  UNL     1      25.238  10.984  30.058  1.00  0.00     0.168 HD
HETATM    4  C4  UNL     1      23.599  10.585  31.192  1.00  0.00     0.052 A
HETATM    5  C5  UNL     1      22.667  10.211  30.207  1.00  0.00     0.032 A
HETATM    6  C6  UNL     1      21.399   9.850  30.531  1.00  0.00     0.014 A
HETATM    7  C7  UNL     1      20.939   9.825  31.820  1.00  0.00    -0.024 A
HETATM    8  C8  UNL     1      19.663   9.458  32.110  1.00  0.00     0.024 A
HETATM    9  C9  UNL     1      19.245   9.450  33.449  1.00  0.00    -0.025 A
HETATM   10  C10 UNL     1      17.943   9.076  33.735  1.00  0.00     0.012 A
HETATM   11  C11 UNL     1      17.509   9.060  35.049  1.00  0.00     0.001 A
HETATM   12  C12 UNL     1      18.384   9.419  36.053  1.00  0.00     0.001 A
HETATM   13  C13 UNL     1      19.690   9.791  35.738  1.00  0.00     0.012 A
HETATM   14  C14 UNL     1      20.124   9.808  34.436  1.00  0.00    -0.025 A
HETATM   15  C15 UNL     1      21.421  10.176  34.102  1.00  0.00     0.026 A
HETATM   16  C16 UNL     1      21.842  10.188  32.797  1.00  0.00    -0.006 A
HETATM   17  C17 UNL     1      23.136  10.557  32.477  1.00  0.00     0.046 A
HETATM   18  S1  UNL     1      24.510  11.057  33.361  1.00  0.00    -0.051 SA
ENDROOT
BRANCH   1  19
HETATM   19  N1  UNL     1      26.811  11.657  32.168  1.00  0.00    -0.307 N
HETATM   20  C2  UNL     1      27.248  12.700  32.987  1.00  0.00     0.219 C
HETATM   21  C1  UNL     1      28.468  12.524  33.820  1.00  0.00     0.117 C
HETATM   22  O1  UNL     1      26.657  13.807  33.065  1.00  0.00    -0.274 OA
ATOM     23  H1  UNL     1      27.513  11.164  31.616  1.00  0.00     0.171 HD
ENDBRANCH   1  19
TORSDOF 1
ENDMDL