MODEL 4
REMARK VINA RESULT: -5.751189045      2.710      4.643
REMARK  0 active torsions:
REMARK  status: ('A' for Active; 'I' for Inactive)
REMARK       I    between atoms: C1_2  and  N2_4
ROOT
HETATM    1  N1  UNL     1      22.060  13.605  35.361  1.00  0.00    -0.039 NA
HETATM    2  C1  UNL     1      22.482  12.818  34.232  1.00  0.00     0.340 C
HETATM    3  O1  UNL     1      23.707  13.053  33.936  1.00  0.00    -0.250 OA
HETATM    4  N2  UNL     1      21.695  11.925  33.561  1.00  0.00    -0.265 N
HETATM    5  C2  UNL     1      20.318  11.740  33.946  1.00  0.00     0.055 A
HETATM    6  C3  UNL     1      19.716  12.927  34.262  1.00  0.00     0.031 A
HETATM    7  C4  UNL     1      18.390  12.971  34.625  1.00  0.00     0.002 A
HETATM    8  C5  UNL     1      17.684  11.787  34.657  1.00  0.00     0.001 A
HETATM    9  C6  UNL     1      18.257  10.547  34.340  1.00  0.00     0.014 A
HETATM   10  C7  UNL     1      19.573  10.557  33.992  1.00  0.00     0.002 A
HETATM   11  C8  UNL     1      20.085   9.236  33.715  1.00  0.00    -0.013 A
HETATM   12  C9  UNL     1      19.395   8.276  34.385  1.00  0.00     0.013 A
HETATM   13  C10 UNL     1      19.832   6.957  34.212  1.00  0.00     0.001 A
HETATM   14  C11 UNL     1      20.903   6.648  33.412  1.00  0.00     0.001 A
HETATM   15  C12 UNL     1      21.605   7.637  32.733  1.00  0.00     0.013 A
HETATM   16  C13 UNL     1      21.193   8.922  32.887  1.00  0.00    -0.013 A
HETATM   17  C14 UNL     1      22.043   9.844  32.130  1.00  0.00     0.002 A
HETATM   18  C15 UNL     1      22.615   9.253  31.045  1.00  0.00     0.014 A
HETATM   19  C16 UNL     1      23.451  10.036  30.277  1.00  0.00     0.001 A
HETATM   20  C17 UNL     1      23.700  11.379  30.599  1.00  0.00     0.002 A
HETATM   21  C18 UNL     1      23.096  11.936  31.707  1.00  0.00     0.031 A
HETATM   22  C19 UNL     1      22.265  11.174  32.479  1.00  0.00     0.055 A
ENDROOT
TORSDOF 0
ENDMDL