MODEL 3
REMARK VINA RESULT: 2.337529001      2.623      4.022
REMARK  3 active torsions:
REMARK  status: ('A' for Active; 'I' for Inactive)
REMARK    1  A    between atoms: O1_1  and  C1_3
REMARK    2  A    between atoms: C12_14  and  C13_15
REMARK    3  A    between atoms: C14_16  and  C15_17
ROOT
HETATM    1  C1  UNL     1      23.392  10.208  32.020  1.00  0.00     0.076 A
HETATM    2  C2  UNL     1      23.059  10.760  30.776  1.00  0.00     0.037 A
HETATM    3  C3  UNL     1      21.745  10.689  30.388  1.00  0.00     0.004 A
HETATM    4  C4  UNL     1      20.776  10.104  31.170  1.00  0.00     0.013 A
HETATM    5  C5  UNL     1      21.135   9.576  32.379  1.00  0.00    -0.012 A
HETATM    6  C6  UNL     1      22.442   9.611  32.837  1.00  0.00     0.008 A
HETATM    7  C7  UNL     1      22.792   9.076  34.056  1.00  0.00     0.016 A
HETATM    8  C8  UNL     1      21.860   8.485  34.867  1.00  0.00     0.013 A
HETATM    9  C9  UNL     1      20.537   8.426  34.450  1.00  0.00    -0.025 A
HETATM   10  C10 UNL     1      19.584   7.836  35.252  1.00  0.00     0.014 A
HETATM   11  C11 UNL     1      18.287   7.798  34.801  1.00  0.00     0.021 A
HETATM   12  C12 UNL     1      17.893   8.312  33.608  1.00  0.00     0.019 A
HETATM   13  C20 UNL     1      18.877   8.909  32.806  1.00  0.00     0.033 A
HETATM   14  C21 UNL     1      20.189   8.965  33.224  1.00  0.00    -0.013 A
ENDROOT
BRANCH  12  15
HETATM   15  C13 UNL     1      16.534   8.278  33.126  1.00  0.00    -0.060 C
HETATM   16  C14 UNL     1      15.383   8.251  32.740  1.00  0.00    -0.043 C
BRANCH  16  17
HETATM   17  C15 UNL     1      14.006   8.224  32.303  1.00  0.00     0.086 A
HETATM   18  C16 UNL     1      13.696   8.198  30.939  1.00  0.00     0.039 A
HETATM   19  C17 UNL     1      12.393   8.173  30.490  1.00  0.00     0.004 A
HETATM   20  C18 UNL     1      11.400   8.174  31.450  1.00  0.00     0.017 A
HETATM   21  C19 UNL     1      11.744   8.199  32.787  1.00  0.00     0.089 A
HETATM   22  N1  UNL     1      13.024   8.224  33.197  1.00  0.00    -0.359 N
ATOM     23  H1  UNL     1      13.241   8.243  34.193  1.00  0.00     0.166 HD
ENDBRANCH  16  17
ENDBRANCH  12  15
BRANCH   1  24
HETATM   24  O1  UNL     1      24.702  10.270  32.427  1.00  0.00    -0.360 OA
ATOM     25  H1  UNL     1      25.029   9.582  32.994  1.00  0.00     0.217 HD
ENDBRANCH   1  24
TORSDOF 3
ENDMDL