MODEL 3
REMARK VINA RESULT: -6.540618851      1.668      6.834
REMARK  1 active torsions:
REMARK  status: ('A' for Active; 'I' for Inactive)
REMARK    1  A    between atoms: C4_4  and  C5_5
ROOT
HETATM    1  C1  UNL     1      25.694   8.438  33.182  1.00  0.00     0.018 C
HETATM    2  C2  UNL     1      24.849   9.302  33.196  1.00  0.00    -0.073 C
HETATM    3  C3  UNL     1      23.877  10.349  33.195  1.00  0.00     0.072 A
HETATM    4  C4  UNL     1      24.159  11.579  32.616  1.00  0.00     0.056 A
HETATM    5  N1  UNL     1      23.074  12.331  32.774  1.00  0.00    -0.281 N
ATOM      6  H1  UNL     1      22.988  13.293  32.447  1.00  0.00     0.189 HD
HETATM    7  N2  UNL     1      22.132  11.679  33.402  1.00  0.00    -0.194 N
HETATM    8  C9  UNL     1      22.596  10.430  33.684  1.00  0.00     0.106 A
HETATM    9  C10 UNL     1      21.788   9.434  34.387  1.00  0.00    -0.001 A
HETATM   10  C11 UNL     1      22.201   8.239  34.670  1.00  0.00     0.027 C
HETATM   11  C12 UNL     1      20.441   9.817  34.790  1.00  0.00     0.005 A
HETATM   12  C13 UNL     1      19.593   8.972  35.453  1.00  0.00     0.021 A
HETATM   13  C14 UNL     1      18.300   9.380  35.826  1.00  0.00    -0.061 A
HETATM   14  C15 UNL     1      17.435   8.408  36.543  1.00  0.00     0.048 C
HETATM   15  C16 UNL     1      17.926  10.649  35.499  1.00  0.00     0.015 A
HETATM   16  C17 UNL     1      18.741  11.536  34.834  1.00  0.00    -0.032 A
HETATM   17  C18 UNL     1      18.308  12.893  34.498  1.00  0.00     0.050 C
HETATM   18  C19 UNL     1      20.002  11.109  34.483  1.00  0.00     0.067 A
HETATM   19  N3  UNL     1      20.831  12.021  33.803  1.00  0.00    -0.278 N
ATOM     20  H3  UNL     1      20.476  12.954  33.595  1.00  0.00     0.189 HD
ENDROOT
BRANCH   4  21
HETATM   21  C5  UNL     1      25.373  12.018  31.955  1.00  0.00    -0.006 C
HETATM   22  C6  UNL     1      26.532  11.947  32.945  1.00  0.00     0.021 C
HETATM   23  C7  UNL     1      25.266  13.488  31.573  1.00  0.00     0.021 C
HETATM   24  C8  UNL     1      25.774  11.248  30.745  1.00  0.00     0.021 C
ENDBRANCH   4  21
TORSDOF 1
ENDMDL