MODEL 4
REMARK VINA RESULT: -7.343257555      0.518      1.390
REMARK  7 active torsions:
REMARK  status: ('A' for Active; 'I' for Inactive)
REMARK    1  A    between atoms: C2_2  and  C5_5
REMARK    2  A    between atoms: C5_5  and  C6_7
REMARK       I    between atoms: C6_7  and  N1_9
REMARK    3  A    between atoms: N1_9  and  C7_10
REMARK    4  A    between atoms: C7_10  and  C8_11
REMARK    5  A    between atoms: C8_11  and  O3_12
REMARK    6  A    between atoms: C8_11  and  C9_14
REMARK    7  A    between atoms: C9_14  and  N2_15
ROOT
HETATM    1  C8  UNL     1      -7.033  46.159  38.425  1.00  0.00     0.198 C
ENDROOT
BRANCH   1   2
HETATM    2  C7  UNL     1      -8.294  45.505  37.748  1.00  0.00     0.193 C
BRANCH   2   3
HETATM    3  N1  UNL     1      -8.810  46.184  36.781  1.00  0.00    -0.378 NA
HETATM    4  C6  UNL     1      -9.401  46.975  35.674  1.00  0.00     0.362 C
HETATM    5  O2  UNL     1      -9.346  48.164  35.560  1.00  0.00    -0.248 OA
BRANCH   4   6
HETATM    6  C5  UNL     1     -10.100  46.132  34.667  1.00  0.00     0.238 C
HETATM    7  O1  UNL     1      -9.409  45.843  33.616  1.00  0.00    -0.285 OA
BRANCH   6   8
HETATM    8  C2  UNL     1     -11.480  45.636  34.813  1.00  0.00     0.020 C
HETATM    9  C1  UNL     1     -12.468  46.613  35.377  1.00  0.00     0.023 C
HETATM   10  C3  UNL     1     -11.983  45.295  33.401  1.00  0.00     0.023 C
HETATM   11  C4  UNL     1     -11.430  44.333  35.575  1.00  0.00     0.023 C
ENDBRANCH   6   8
ENDBRANCH   4   6
ENDBRANCH   2   3
ENDBRANCH   1   2
BRANCH   1  12
HETATM   12  O3  UNL     1      -5.974  45.390  38.048  1.00  0.00    -0.388 OA
ATOM     13  H3  UNL     1      -5.756  45.669  37.167  1.00  0.00     0.210 HD
ENDBRANCH   1  12
BRANCH   1  14
HETATM   14  C9  UNL     1      -7.234  46.156  39.912  1.00  0.00     0.310 C
BRANCH  14  15
HETATM   15  N2  UNL     1      -7.295  47.499  40.391  1.00  0.00     0.091 N
HETATM   16  C10 UNL     1      -8.484  48.217  40.135  1.00  0.00     0.273 C
HETATM   17  C11 UNL     1      -8.839  49.343  41.012  1.00  0.00     0.039 C
HETATM   18  C12 UNL     1      -7.752  49.979  41.764  1.00  0.00    -0.037 C
HETATM   19  C13 UNL     1      -7.152  51.177  41.027  1.00  0.00     0.010 C
HETATM   20  C16 UNL     1      -8.368  50.584  43.054  1.00  0.00     0.010 C
HETATM   21  C17 UNL     1      -6.696  49.034  42.202  1.00  0.00     0.039 C
HETATM   22  C14 UNL     1      -8.073  52.293  41.464  1.00  0.00     0.001 C
HETATM   23  C15 UNL     1      -8.116  52.068  42.958  1.00  0.00     0.001 C
HETATM   24  C18 UNL     1      -6.831  47.618  41.761  1.00  0.00     0.273 C
ENDBRANCH  14  15
ENDBRANCH   1  14
TORSDOF 7
ENDMDL