MODEL 5
REMARK VINA RESULT: -7.115995459      2.041      3.556
REMARK  7 active torsions:
REMARK  status: ('A' for Active; 'I' for Inactive)
REMARK    1  A    between atoms: C4_5  and  C5_6
REMARK    2  A    between atoms: C5_6  and  C6_7
REMARK    3  A    between atoms: C6_7  and  O1_8
REMARK    4  A    between atoms: C8_11  and  O2_12
REMARK    5  A    between atoms: C9_14  and  N2_15
REMARK       I    between atoms: N2_15  and  C10_17
REMARK    6  A    between atoms: C10_17  and  O4_19
REMARK    7  A    between atoms: O4_19  and  C11_20
ROOT
HETATM    1  C5  UNL     1      -6.674  45.004  40.641  1.00  0.00    -0.008 C
HETATM    2  C7  UNL     1      -6.557  44.802  42.161  1.00  0.00     0.046 C
HETATM    3  C8  UNL     1      -5.262  45.451  42.576  1.00  0.00     0.141 C
HETATM    4  C9  UNL     1      -5.168  46.630  41.656  1.00  0.00     0.116 C
HETATM    5  C17 UNL     1      -5.806  46.233  40.359  1.00  0.00     0.040 C
ENDROOT
BRANCH   4   6
HETATM    6  N2  UNL     1      -5.831  47.757  42.274  1.00  0.00    -0.330 N
HETATM    7  C10 UNL     1      -5.585  49.084  41.828  1.00  0.00     0.361 C
HETATM    8  O3  UNL     1      -4.776  49.322  40.870  1.00  0.00    -0.238 OA
ATOM      9  H2  UNL     1      -6.483  47.598  43.042  1.00  0.00     0.165 HD
BRANCH   7  10
HETATM   10  O4  UNL     1      -6.194  50.188  42.390  1.00  0.00    -0.299 OA
BRANCH  10  11
HETATM   11  C11 UNL     1      -7.415  50.719  41.990  1.00  0.00     0.133 C
HETATM   12  C12 UNL     1      -7.912  50.034  40.737  1.00  0.00     0.032 C
HETATM   13  C13 UNL     1      -9.317  50.466  40.391  1.00  0.00     0.002 C
HETATM   14  C14 UNL     1      -9.507  51.944  40.426  1.00  0.00     0.000 C
HETATM   15  C15 UNL     1      -8.878  52.622  41.603  1.00  0.00     0.002 C
HETATM   16  C16 UNL     1      -7.414  52.192  41.742  1.00  0.00     0.032 C
ENDBRANCH  10  11
ENDBRANCH   7  10
ENDBRANCH   4   6
BRANCH   3  17
HETATM   17  O2  UNL     1      -4.212  44.557  42.446  1.00  0.00    -0.393 OA
ATOM     18  H2  UNL     1      -4.070  44.094  43.263  1.00  0.00     0.210 HD
ENDBRANCH   3  17
BRANCH   1  19
HETATM   19  C4  UNL     1      -6.053  43.842  39.997  1.00  0.00     0.048 C
HETATM   20  C3  UNL     1      -6.456  42.460  40.368  1.00  0.00     0.243 C
HETATM   21  N1  UNL     1      -6.449  42.093  38.962  1.00  0.00    -0.074 N
HETATM   22  C1  UNL     1      -7.623  41.374  38.566  1.00  0.00     0.272 C
HETATM   23  C2  UNL     1      -5.251  41.342  38.591  1.00  0.00     0.272 C
HETATM   24  C18 UNL     1      -6.407  43.497  38.591  1.00  0.00     0.243 C
ENDBRANCH   1  19
BRANCH   1  25
HETATM   25  C6  UNL     1      -8.089  45.307  40.361  1.00  0.00     0.174 C
BRANCH  25  26
HETATM   26  O1  UNL     1      -8.557  46.519  40.858  1.00  0.00    -0.400 OA
ATOM     27  H1  UNL     1      -8.102  47.295  40.551  1.00  0.00     0.209 HD
ENDBRANCH  25  26
ENDBRANCH   1  25
TORSDOF 7
ENDMDL