MODEL 5
REMARK VINA RESULT: -6.839011237      2.541      6.617
REMARK  8 active torsions:
REMARK  status: ('A' for Active; 'I' for Inactive)
REMARK    1  A    between atoms: C2_2  and  N1_4
REMARK    2  A    between atoms: N1_4  and  C4_6
REMARK    3  A    between atoms: C6_8  and  S1_9
REMARK    4  A    between atoms: S1_9  and  C7_10
REMARK    5  A    between atoms: C14_20  and  N4_21
REMARK    6  A    between atoms: N4_21  and  C15_23
REMARK    7  A    between atoms: C15_23  and  C16_24
REMARK    8  A    between atoms: C16_24  and  O1_25
ROOT
HETATM    1  C4  UNL     1      -8.943  50.199  40.505  1.00  0.00     0.119 A
HETATM    2  C5  UNL     1      -8.085  49.130  40.560  1.00  0.00     0.086 A
HETATM    3  C6  UNL     1      -8.057  48.179  39.546  1.00  0.00     0.090 A
HETATM    4  N3  UNL     1      -8.902  48.336  38.501  1.00  0.00    -0.186 N
ATOM      5  H3  UNL     1      -8.907  47.657  37.740  1.00  0.00     0.185 HD
HETATM    6  C14 UNL     1      -9.735  49.394  38.469  1.00  0.00     0.680 A
HETATM    7  N5  UNL     1      -9.763  50.314  39.448  1.00  0.00    -0.177 N
ATOM      8  H5  UNL     1     -10.408  51.102  39.389  1.00  0.00     0.185 HD
ENDROOT
BRANCH   3   9
HETATM    9  S1  UNL     1      -6.965  46.777  39.570  1.00  0.00    -0.105 SA
BRANCH   9  10
HETATM   10  C7  UNL     1      -5.767  47.003  40.889  1.00  0.00     0.084 C
HETATM   11  C8  UNL     1      -6.312  46.410  42.166  1.00  0.00     0.288 C
HETATM   12  N2  UNL     1      -5.919  45.035  42.148  1.00  0.00     0.094 N
HETATM   13  C9  UNL     1      -6.833  44.182  41.432  1.00  0.00     0.310 C
HETATM   14  C10 UNL     1      -4.598  45.038  41.593  1.00  0.00     0.153 C
HETATM   15  C11 UNL     1      -4.287  43.768  40.813  1.00  0.00     0.049 C
HETATM   16  C12 UNL     1      -3.611  45.113  42.740  1.00  0.00     0.049 C
HETATM   17  C13 UNL     1      -4.490  46.231  40.671  1.00  0.00     0.058 C
ENDBRANCH   9  10
ENDBRANCH   3   9
BRANCH   1  18
HETATM   18  N1  UNL     1      -8.937  51.054  41.460  1.00  0.00    -0.372 N
ATOM     19  H1  UNL     1      -9.672  51.762  41.441  1.00  0.00     0.161 HD
BRANCH  18  20
HETATM   20  C2  UNL     1      -8.015  51.123  42.545  1.00  0.00     0.075 C
HETATM   21  C1  UNL     1      -7.467  52.545  42.579  1.00  0.00     0.031 C
HETATM   22  C3  UNL     1      -8.716  50.851  43.858  1.00  0.00     0.031 C
ENDBRANCH  18  20
ENDBRANCH   1  18
BRANCH   6  23
HETATM   23  N4  UNL     1     -10.519  49.494  37.449  1.00  0.00    -0.224 N
ATOM     24  H4  UNL     1     -10.741  50.411  37.060  1.00  0.00     0.177 HD
BRANCH  23  25
HETATM   25  C15 UNL     1     -11.078  48.297  36.860  1.00  0.00     0.164 C
BRANCH  25  26
HETATM   26  C16 UNL     1     -10.495  48.026  35.498  1.00  0.00     0.184 C
BRANCH  26  27
HETATM   27  O1  UNL     1      -9.180  47.580  35.582  1.00  0.00    -0.399 OA
ATOM     28  H1  UNL     1      -9.120  46.640  35.457  1.00  0.00     0.209 HD
ENDBRANCH  26  27
ENDBRANCH  25  26
ENDBRANCH  23  25
ENDBRANCH   6  23
TORSDOF 8
ENDMDL