MODEL 5
REMARK VINA RESULT: -6.605826377      5.036      7.373
REMARK  6 active torsions:
REMARK  status: ('A' for Active; 'I' for Inactive)
REMARK    1  A    between atoms: C2_2  and  C3_3
REMARK    2  A    between atoms: C6_6  and  O1_7
REMARK    3  A    between atoms: C9_11  and  O2_12
REMARK    4  A    between atoms: C13_17  and  O3_18
REMARK    5  A    between atoms: O3_18  and  C14_19
REMARK    6  A    between atoms: C14_19  and  C15_20
ROOT
HETATM    1  C3  UNL     1      -6.701  47.557  40.892  1.00  0.00    -0.009 C
HETATM    2  C4  UNL     1      -7.412  48.051  42.186  1.00  0.00     0.017 C
HETATM    3  C5  UNL     1      -7.793  49.489  41.888  1.00  0.00     0.033 C
HETATM    4  C6  UNL     1      -8.743  49.627  40.754  1.00  0.00     0.118 C
HETATM    5  C7  UNL     1      -8.556  48.698  39.606  1.00  0.00     0.039 C
HETATM    6  C8  UNL     1      -7.805  47.454  39.927  1.00  0.00     0.030 C
HETATM    7  C9  UNL     1      -7.612  46.602  38.709  1.00  0.00     0.124 C
HETATM    8  C10 UNL     1      -7.155  45.220  39.062  1.00  0.00     0.041 C
HETATM    9  C11 UNL     1      -6.881  45.066  40.532  1.00  0.00     0.022 C
HETATM   10  C12 UNL     1      -6.203  43.785  40.784  1.00  0.00     0.011 C
HETATM   11  C13 UNL     1      -4.913  43.674  40.649  1.00  0.00     0.043 C
HETATM   12  C16 UNL     1      -4.128  44.848  40.238  1.00  0.00     0.065 C
HETATM   13  C17 UNL     1      -4.630  46.149  40.769  1.00  0.00     0.017 C
HETATM   14  C18 UNL     1      -6.095  46.174  41.142  1.00  0.00    -0.025 C
HETATM   15  C19 UNL     1      -6.150  45.933  42.643  1.00  0.00     0.017 C
ENDROOT
BRANCH  11  16
HETATM   16  O3  UNL     1      -4.295  42.452  40.892  1.00  0.00    -0.347 OA
BRANCH  16  17
HETATM   17  C14 UNL     1      -2.907  42.352  41.137  1.00  0.00     0.274 C
BRANCH  17  18
HETATM   18  C15 UNL     1      -2.310  41.428  40.149  1.00  0.00     0.255 C
HETATM   19  N1  UNL     1      -3.166  40.663  39.315  1.00  0.00    -0.060 NA
HETATM   20  O4  UNL     1      -1.065  41.342  40.067  1.00  0.00    -0.274 OA
ENDBRANCH  17  18
ENDBRANCH  16  17
ENDBRANCH  11  16
BRANCH   7  21
HETATM   21  O2  UNL     1      -6.902  47.150  37.679  1.00  0.00    -0.395 OA
ATOM     22  H2  UNL     1      -6.134  46.673  37.386  1.00  0.00     0.210 HD
ENDBRANCH   7  21
BRANCH   1  23
HETATM   23  C2  UNL     1      -5.648  48.539  40.732  1.00  0.00    -0.026 C
HETATM   24  C1  UNL     1      -5.270  49.313  39.777  1.00  0.00     0.008 C
ENDBRANCH   1  23
BRANCH   4  25
HETATM   25  O1  UNL     1      -8.613  50.947  40.264  1.00  0.00    -0.396 OA
ATOM     26  H1  UNL     1      -7.704  51.060  40.012  1.00  0.00     0.210 HD
ENDBRANCH   4  25
TORSDOF 6
ENDMDL