MODEL 1
REMARK VINA RESULT: -6.906966683      0.000      0.000
REMARK  4 active torsions:
REMARK  status: ('A' for Active; 'I' for Inactive)
REMARK    1  A    between atoms: C2_2  and  C3_3
REMARK    2  A    between atoms: C3_3  and  C4_4
REMARK    3  A    between atoms: C9_9  and  C10_10
REMARK    4  A    between atoms: C10_10  and  O1_11
ROOT
HETATM    1  C4  UNL     1      -8.018  48.884  40.380  1.00  0.00    -0.004 C
HETATM    2  C5  UNL     1      -8.725  47.698  40.839  1.00  0.00     0.019 C
HETATM    3  C6  UNL     1      -8.081  46.448  41.221  1.00  0.00    -0.013 C
HETATM    4  C7  UNL     1      -8.056  45.421  40.070  1.00  0.00     0.005 C
HETATM    5  C8  UNL     1      -6.690  45.572  39.487  1.00  0.00     0.012 C
HETATM    6  C9  UNL     1      -5.898  46.495  40.426  1.00  0.00    -0.015 C
HETATM    7  C11 UNL     1      -6.695  46.368  41.682  1.00  0.00     0.016 C
HETATM    8  C12 UNL     1      -5.807  47.808  39.804  1.00  0.00     0.053 C
HETATM    9  C13 UNL     1      -6.534  48.936  40.421  1.00  0.00     0.005 C
HETATM   10  C14 UNL     1      -5.954  49.398  41.716  1.00  0.00     0.286 C
HETATM   11  O2  UNL     1      -4.700  49.426  41.790  1.00  0.00    -0.260 OA
HETATM   12  O3  UNL     1      -6.679  49.783  42.799  1.00  0.00    -0.310 OA
HETATM   13  C15 UNL     1      -8.082  49.833  42.687  1.00  0.00     0.163 C
HETATM   14  C16 UNL     1      -8.564  51.107  43.404  1.00  0.00     0.265 C
HETATM   15  N1  UNL     1      -7.555  52.072  43.067  1.00  0.00    -0.073 N
ATOM     16  H11 UNL     1      -6.648  51.779  43.431  1.00  0.00     0.277 HD
ATOM     17  H12 UNL     1      -7.691  52.929  43.603  1.00  0.00     0.277 HD
HETATM   18  C17 UNL     1      -7.458  52.368  41.688  1.00  0.00     0.233 C
HETATM   19  C18 UNL     1      -8.107  51.405  40.735  1.00  0.00     0.036 C
HETATM   20  C19 UNL     1      -8.480  50.089  41.226  1.00  0.00     0.031 C
ENDROOT
BRANCH   1  21
HETATM   21  C3  UNL     1      -8.403  49.192  38.942  1.00  0.00     0.014 C
BRANCH  21  22
HETATM   22  C2  UNL     1      -9.757  48.731  38.534  1.00  0.00    -0.004 C
HETATM   23  C1  UNL     1     -10.751  49.911  38.558  1.00  0.00     0.005 C
ENDBRANCH  21  22
ENDBRANCH   1  21
BRANCH   6  24
HETATM   24  C10 UNL     1      -4.534  45.850  40.604  1.00  0.00     0.173 C
BRANCH  24  25
HETATM   25  O1  UNL     1      -4.087  46.189  41.884  1.00  0.00    -0.400 OA
ATOM     26  H1  UNL     1      -3.186  46.476  41.796  1.00  0.00     0.209 HD
ENDBRANCH  24  25
ENDBRANCH   6  24
TORSDOF 4
ENDMDL