MODEL 2
REMARK VINA RESULT: -7.191351544      3.875      6.159
REMARK  4 active torsions:
REMARK  status: ('A' for Active; 'I' for Inactive)
REMARK    1  A    between atoms: C2_2  and  N1_4
REMARK    2  A    between atoms: N1_4  and  C4_5
REMARK       I    between atoms: N1_4  and  C12_14
REMARK    3  A    between atoms: C4_5  and  C5_6
REMARK       I    between atoms: C12_14  and  N2_16
REMARK    4  A    between atoms: N2_16  and  C13_18
ROOT
HETATM    1  N1  UNL     1      -9.375  49.126  38.423  1.00  0.00    -0.330 N
HETATM    2  C12 UNL     1      -9.262  48.170  37.387  1.00  0.00     0.320 C
HETATM    3  O2  UNL     1      -8.127  47.594  37.276  1.00  0.00    -0.247 OA
HETATM    4  N2  UNL     1     -10.260  47.786  36.471  1.00  0.00    -0.313 N
ATOM      5  H2  UNL     1     -11.183  48.217  36.518  1.00  0.00     0.167 HD
ENDROOT
BRANCH   1   6
HETATM    6  C2  UNL     1     -10.603  49.830  38.650  1.00  0.00     0.080 C
HETATM    7  C1  UNL     1     -11.232  49.250  39.929  1.00  0.00     0.032 C
HETATM    8  C3  UNL     1     -10.498  51.301  38.823  1.00  0.00     0.032 C
ENDBRANCH   1   6
BRANCH   1   9
HETATM    9  C4  UNL     1      -8.219  49.434  39.220  1.00  0.00     0.134 C
BRANCH   9  10
HETATM   10  C5  UNL     1      -8.489  49.698  40.654  1.00  0.00     0.028 C
HETATM   11  C6  UNL     1      -7.942  48.584  41.539  1.00  0.00     0.173 C
HETATM   12  O1  UNL     1      -6.670  48.876  41.997  1.00  0.00    -0.390 OA
HETATM   13  C7  UNL     1      -6.703  49.854  42.999  1.00  0.00     0.176 C
HETATM   14  C8  UNL     1      -7.667  50.935  42.631  1.00  0.00    -0.026 C
HETATM   15  C9  UNL     1      -7.110  52.319  42.994  1.00  0.00     0.017 C
HETATM   16  C10 UNL     1      -8.962  50.756  43.365  1.00  0.00     0.017 C
HETATM   17  C11 UNL     1      -7.894  50.976  41.122  1.00  0.00     0.019 C
ENDBRANCH   9  10
ENDBRANCH   1   9
BRANCH   4  18
HETATM   18  C13 UNL     1      -9.990  46.794  35.472  1.00  0.00     0.251 C
HETATM   19  N3  UNL     1     -11.044  46.755  34.471  1.00  0.00    -0.350 N
HETATM   20  C14 UNL     1     -12.216  46.148  34.908  1.00  0.00     0.082 C
ATOM     21  H3  UNL     1     -10.933  47.140  33.533  1.00  0.00     0.163 HD
HETATM   22  N4  UNL     1     -13.413  46.529  34.649  1.00  0.00    -0.388 N
HETATM   23  C15 UNL     1     -11.989  44.935  35.752  1.00  0.00     0.153 C
ATOM     24  H42 UNL     1     -13.568  47.356  34.073  1.00  0.00     0.157 HD
ATOM     25  H41 UNL     1     -14.273  46.083  34.969  1.00  0.00     0.157 HD
HETATM   26  S1  UNL     1     -10.239  45.122  36.199  1.00  0.00    -0.116 SA
ENDBRANCH   4  18
TORSDOF 4
ENDMDL