MODEL 3
REMARK VINA RESULT: -6.959854997      2.116      3.001
REMARK  6 active torsions:
REMARK  status: ('A' for Active; 'I' for Inactive)
REMARK    1  A    between atoms: C2_2  and  C3_3
REMARK    2  A    between atoms: C3_3  and  C4_4
REMARK    3  A    between atoms: C4_4  and  O1_5
REMARK       I    between atoms: N1_13  and  C11_14
REMARK    4  A    between atoms: C11_14  and  C12_16
REMARK    5  A    between atoms: C12_16  and  C13_17
REMARK    6  A    between atoms: C15_20  and  N2_21
ROOT
HETATM    1  C3  UNL     1      -8.384  50.739  42.670  1.00  0.00    -0.010 C
HETATM    2  C5  UNL     1      -8.349  52.182  42.157  1.00  0.00     0.012 C
HETATM    3  C6  UNL     1      -7.046  52.673  42.716  1.00  0.00     0.002 C
HETATM    4  C7  UNL     1      -6.169  51.485  42.928  1.00  0.00     0.012 C
HETATM    5  C8  UNL     1      -6.993  50.301  42.398  1.00  0.00    -0.013 C
HETATM    6  C9  UNL     1      -6.647  50.157  40.954  1.00  0.00     0.032 C
HETATM    7  C10 UNL     1      -5.479  49.181  41.008  1.00  0.00     0.126 C
HETATM    8  N1  UNL     1      -5.947  48.212  42.014  1.00  0.00    -0.351 N
HETATM    9  C11 UNL     1      -5.820  46.803  41.975  1.00  0.00     0.225 C
HETATM   10  O2  UNL     1      -6.277  46.124  42.918  1.00  0.00    -0.273 OA
HETATM   11  C16 UNL     1      -6.567  49.020  43.051  1.00  0.00     0.136 C
ENDROOT
BRANCH   9  12
HETATM   12  C12 UNL     1      -5.164  46.170  40.847  1.00  0.00     0.160 C
BRANCH  12  13
HETATM   13  C13 UNL     1      -6.163  45.706  39.794  1.00  0.00     0.026 A
HETATM   14  C14 UNL     1      -6.471  44.375  39.728  1.00  0.00     0.078 A
HETATM   15  S1  UNL     1      -7.593  44.317  38.441  1.00  0.00    -0.064 SA
HETATM   16  C15 UNL     1      -7.608  45.976  38.059  1.00  0.00     0.142 A
HETATM   17  N3  UNL     1      -6.759  46.506  38.928  1.00  0.00    -0.340 N
ATOM     18  H3  UNL     1      -6.569  47.509  38.928  1.00  0.00     0.168 HD
BRANCH  16  19
HETATM   19  N2  UNL     1      -8.292  46.609  37.129  1.00  0.00    -0.380 N
ATOM     20  H22 UNL     1      -8.246  46.458  36.122  1.00  0.00     0.158 HD
ATOM     21  H21 UNL     1      -8.981  47.354  37.231  1.00  0.00     0.158 HD
ENDBRANCH  16  19
ENDBRANCH  12  13
ENDBRANCH   9  12
BRANCH   1  22
HETATM   22  C2  UNL     1      -8.650  50.775  44.131  1.00  0.00     0.008 C
HETATM   23  C1  UNL     1     -10.114  50.724  44.505  1.00  0.00     0.006 C
ENDBRANCH   1  22
BRANCH   1  24
HETATM   24  C4  UNL     1      -9.467  49.957  41.985  1.00  0.00     0.174 C
BRANCH  24  25
HETATM   25  O1  UNL     1      -9.859  50.506  40.769  1.00  0.00    -0.400 OA
ATOM     26  H1  UNL     1     -10.449  49.948  40.277  1.00  0.00     0.209 HD
ENDBRANCH  24  25
ENDBRANCH   1  24
TORSDOF 6
ENDMDL