MODEL 5
REMARK VINA RESULT: -4.242700085      3.719      6.997
REMARK  5 active torsions:
REMARK  status: ('A' for Active; 'I' for Inactive)
REMARK    1  A    between atoms: O1_2  and  C2_3
REMARK    2  A    between atoms: C4_5  and  C5_6
REMARK    3  A    between atoms: C5_6  and  O2_9
REMARK    4  A    between atoms: C13_16  and  O3_17
REMARK    5  A    between atoms: C17_22  and  C18_23
ROOT
HETATM    1  C2  UNL     1      -9.659  41.802  34.427  1.00  0.00     0.100 C
HETATM    2  C3  UNL     1      -9.860  43.262  34.549  1.00  0.00     0.050 C
HETATM    3  C4  UNL     1     -11.232  43.650  33.945  1.00  0.00     0.032 C
HETATM    4  C8  UNL     1     -12.197  42.744  34.596  1.00  0.00    -0.021 C
HETATM    5  C9  UNL     1     -13.540  42.755  34.015  1.00  0.00     0.012 C
HETATM    6  C10 UNL     1     -13.003  41.829  32.904  1.00  0.00     0.013 C
HETATM    7  C11 UNL     1     -12.094  41.331  33.993  1.00  0.00    -0.007 C
HETATM    8  C12 UNL     1     -12.806  40.232  34.690  1.00  0.00     0.019 C
HETATM    9  C13 UNL     1     -10.675  41.047  33.632  1.00  0.00     0.162 C
HETATM   10  C14 UNL     1     -11.975  42.721  36.064  1.00  0.00    -0.008 C
HETATM   11  C15 UNL     1     -13.239  42.611  36.907  1.00  0.00     0.011 C
HETATM   12  C16 UNL     1     -10.994  41.771  36.608  1.00  0.00     0.023 C
HETATM   13  C17 UNL     1      -9.845  41.273  35.873  1.00  0.00     0.124 C
ENDROOT
BRANCH   3  14
HETATM   14  C5  UNL     1     -11.402  45.082  33.836  1.00  0.00     0.055 C
HETATM   15  C6  UNL     1      -9.974  45.670  33.630  1.00  0.00     0.045 C
HETATM   16  C7  UNL     1     -11.969  45.914  34.908  1.00  0.00     0.045 C
BRANCH  14  17
HETATM   17  O2  UNL     1     -12.012  45.458  32.635  1.00  0.00    -0.390 OA
ATOM     18  H2  UNL     1     -12.958  45.371  32.665  1.00  0.00     0.210 HD
ENDBRANCH  14  17
ENDBRANCH   3  14
BRANCH   1  19
HETATM   19  O1  UNL     1      -8.407  41.392  34.079  1.00  0.00    -0.381 OA
HETATM   20  C1  UNL     1      -7.535  42.185  33.465  1.00  0.00     0.202 C
ENDBRANCH   1  19
BRANCH   9  21
HETATM   21  O3  UNL     1     -10.464  40.985  32.266  1.00  0.00    -0.392 OA
ATOM     22  H3  UNL     1     -10.577  41.795  31.785  1.00  0.00     0.210 HD
ENDBRANCH   9  21
BRANCH  13  23
HETATM   23  C18 UNL     1      -8.557  41.623  36.563  1.00  0.00     0.180 C
HETATM   24  O4  UNL     1      -8.264  42.755  36.996  1.00  0.00    -0.648 OA
HETATM   25  O5  UNL     1      -7.615  40.591  36.733  1.00  0.00    -0.648 OA
ENDBRANCH  13  23
TORSDOF 5
ENDMDL