MODEL 3
REMARK VINA RESULT: -7.556286077      2.202      8.527
REMARK  7 active torsions:
REMARK  status: ('A' for Active; 'I' for Inactive)
REMARK    1  A    between atoms: C2_2  and  C4_4
REMARK    2  A    between atoms: C4_4  and  C5_5
REMARK    3  A    between atoms: C5_5  and  N1_6
REMARK    4  A    between atoms: C5_5  and  C6_10
REMARK    5  A    between atoms: C6_10  and  O1_11
REMARK    6  A    between atoms: C6_10  and  N2_13
REMARK    7  A    between atoms: C8_20  and  C9_21
ROOT
HETATM    1  N2  UNL     1      -7.858  49.095  39.479  1.00  0.00    -0.318 N
ATOM      2  H2  UNL     1      -8.535  49.846  39.607  1.00  0.00     0.169 HD
HETATM    3  C7  UNL     1      -8.221  48.307  38.555  1.00  0.00     0.166 A
HETATM    4  N3  UNL     1      -7.700  47.202  38.015  1.00  0.00    -0.279 N
ATOM      5  H3  UNL     1      -6.798  46.854  38.341  1.00  0.00     0.189 HD
HETATM    6  N4  UNL     1      -8.323  46.586  37.100  1.00  0.00    -0.295 N
ATOM      7  H4  UNL     1      -7.919  45.742  36.693  1.00  0.00     0.187 HD
HETATM    8  C8  UNL     1      -9.492  47.026  36.667  1.00  0.00     0.079 A
HETATM    9  S1  UNL     1      -9.709  48.409  37.634  1.00  0.00    -0.037 SA
ENDROOT
BRANCH   1  10
HETATM   10  C6  UNL     1      -6.812  49.222  40.353  1.00  0.00     0.148 C
BRANCH  10  11
HETATM   11  C5  UNL     1      -6.743  49.665  41.744  1.00  0.00     0.257 C
BRANCH  11  12
HETATM   12  C4  UNL     1      -7.988  50.234  42.332  1.00  0.00     0.045 C
BRANCH  12  13
HETATM   13  C2  UNL     1      -7.961  51.692  42.676  1.00  0.00    -0.020 C
HETATM   14  C1  UNL     1      -6.731  52.194  43.345  1.00  0.00     0.009 C
HETATM   15  C3  UNL     1      -8.323  52.558  41.475  1.00  0.00     0.009 C
ENDBRANCH  12  13
ENDBRANCH  11  12
BRANCH  11  16
HETATM   16  N1  UNL     1      -6.150  48.639  42.596  1.00  0.00    -0.068 N
ATOM     17  H13 UNL     1      -5.633  49.056  43.370  1.00  0.00     0.275 HD
ATOM     18  H12 UNL     1      -6.865  48.142  43.127  1.00  0.00     0.275 HD
ATOM     19  H11 UNL     1      -5.566  47.991  42.068  1.00  0.00     0.275 HD
ENDBRANCH  11  16
ENDBRANCH  10  11
BRANCH  10  20
HETATM   20  O1  UNL     1      -5.655  48.888  39.839  1.00  0.00    -0.348 OA
ATOM     21  H1  UNL     1      -5.523  49.192  38.949  1.00  0.00     0.219 HD
ENDBRANCH  10  20
ENDBRANCH   1  10
BRANCH   8  22
HETATM   22  C9  UNL     1     -10.354  46.406  35.634  1.00  0.00     0.018 C
HETATM   23  C10 UNL     1     -11.734  47.004  35.525  1.00  0.00     0.050 C
HETATM   24  C11 UNL     1     -12.443  45.808  34.859  1.00  0.00     0.188 C
HETATM   25  C12 UNL     1     -12.026  44.713  35.847  1.00  0.00     0.039 C
HETATM   26  N5  UNL     1     -11.877  45.580  33.564  1.00  0.00    -0.067 N
HETATM   27  C13 UNL     1     -10.508  44.945  35.840  1.00  0.00     0.005 C
HETATM   28  C14 UNL     1     -10.061  44.281  34.530  1.00  0.00     0.039 C
HETATM   29  C15 UNL     1     -10.446  45.393  33.561  1.00  0.00     0.188 C
HETATM   30  C16 UNL     1      -9.731  46.557  34.238  1.00  0.00     0.050 C
ATOM     31  H52 UNL     1     -12.338  44.793  33.108  1.00  0.00     0.278 HD
ATOM     32  H51 UNL     1     -12.138  46.331  32.924  1.00  0.00     0.278 HD
ENDBRANCH   8  22
TORSDOF 7
ENDMDL