MODEL 1
REMARK VINA RESULT: -7.940401943      0.000      0.000
REMARK  6 active torsions:
REMARK  status: ('A' for Active; 'I' for Inactive)
REMARK    1  A    between atoms: N1_1  and  C1_4
REMARK    2  A    between atoms: C3_6  and  N2_7
REMARK    3  A    between atoms: N3_13  and  C9_14
REMARK    4  A    between atoms: C9_14  and  C10_15
REMARK    5  A    between atoms: C14_19  and  C15_20
REMARK    6  A    between atoms: C15_20  and  O1_21
ROOT
HETATM    1  N2  UNL     1      -9.449  48.052  37.230  1.00  0.00    -0.381 N
HETATM    2  C4  UNL     1      -9.709  49.068  38.194  1.00  0.00     0.123 C
HETATM    3  C5  UNL     1      -8.863  49.130  39.397  1.00  0.00     0.030 C
HETATM    4  C6  UNL     1      -7.793  48.096  39.574  1.00  0.00    -0.023 C
HETATM    5  C7  UNL     1      -6.461  48.794  39.339  1.00  0.00     0.055 C
HETATM    6  C8  UNL     1      -5.662  49.098  40.535  1.00  0.00     0.064 C
HETATM    7  N3  UNL     1      -6.298  49.137  41.792  1.00  0.00    -0.373 N
HETATM    8  C13 UNL     1      -7.403  48.321  42.048  1.00  0.00     0.070 C
HETATM    9  C14 UNL     1      -7.912  47.484  40.925  1.00  0.00     0.057 C
HETATM   10  C16 UNL     1      -7.857  46.974  38.568  1.00  0.00     0.030 C
HETATM   11  C17 UNL     1      -8.127  47.518  37.155  1.00  0.00     0.123 C
ENDROOT
BRANCH   9  12
HETATM   12  C15 UNL     1      -7.417  46.076  41.053  1.00  0.00     0.174 C
BRANCH  12  13
HETATM   13  O1  UNL     1      -8.357  45.151  41.426  1.00  0.00    -0.400 OA
ATOM     14  H1  UNL     1      -8.187  44.260  41.146  1.00  0.00     0.209 HD
ENDBRANCH  12  13
ENDBRANCH   9  12
BRANCH   1  15
HETATM   15  C3  UNL     1     -10.493  47.619  36.376  1.00  0.00     0.035 A
HETATM   16  C2  UNL     1     -10.172  46.742  35.343  1.00  0.00     0.077 A
HETATM   17  C1  UNL     1     -11.156  46.311  34.484  1.00  0.00     0.100 A
HETATM   18  N4  UNL     1     -12.448  46.698  34.588  1.00  0.00    -0.353 N
HETATM   19  C19 UNL     1     -12.758  47.544  35.585  1.00  0.00     0.092 A
ATOM     20  H4  UNL     1     -13.156  46.362  33.936  1.00  0.00     0.166 HD
HETATM   21  C18 UNL     1     -11.801  48.010  36.480  1.00  0.00     0.046 A
BRANCH  17  22
HETATM   22  N1  UNL     1     -10.861  45.493  33.520  1.00  0.00    -0.385 N
ATOM     23  H12 UNL     1     -11.064  44.505  33.672  1.00  0.00     0.157 HD
ATOM     24  H11 UNL     1     -10.446  45.850  32.660  1.00  0.00     0.157 HD
ENDBRANCH  17  22
ENDBRANCH   1  15
BRANCH   7  25
HETATM   25  C9  UNL     1      -6.368  50.444  42.366  1.00  0.00     0.131 C
BRANCH  25  26
HETATM   26  C10 UNL     1      -7.561  51.243  41.913  1.00  0.00     0.004 A
HETATM   27  C11 UNL     1      -8.512  51.585  43.048  1.00  0.00     0.007 A
HETATM   28  C12 UNL     1      -7.634  52.648  42.317  1.00  0.00     0.007 A
ENDBRANCH  25  26
ENDBRANCH   7  25
TORSDOF 6
ENDMDL