MODEL 3
REMARK VINA RESULT: -7.089094601      1.529      1.753
REMARK  11 active torsions:
REMARK  status: ('A' for Active; 'I' for Inactive)
REMARK    1  A    between atoms: C2_2  and  C4_4
REMARK    2  A    between atoms: C4_4  and  C5_5
REMARK    3  A    between atoms: C5_5  and  N1_6
REMARK    4  A    between atoms: N1_6  and  C6_9
REMARK    5  A    between atoms: C6_9  and  C7_10
REMARK    6  A    between atoms: C6_9  and  C8_15
REMARK    7  A    between atoms: N2_11  and  O1_13
REMARK    8  A    between atoms: C8_15  and  S1_16
REMARK    9  A    between atoms: S1_16  and  N3_19
REMARK   10  A    between atoms: N3_19  and  C9_21
REMARK   11  A    between atoms: C9_21  and  C10_22
ROOT
HETATM    1  C8  UNL     1     -24.115  40.056  16.274  1.00  0.00     0.201 C
ENDROOT
BRANCH   1   2
HETATM    2  C6  UNL     1     -24.755  38.902  15.571  1.00  0.00     0.241 C
BRANCH   2   3
HETATM    3  N1  UNL     1     -23.945  37.704  15.526  1.00  0.00    -0.065 N
ATOM      4  H12 UNL     1     -23.377  37.660  14.680  1.00  0.00     0.278 HD
ATOM      5  H11 UNL     1     -24.510  36.869  15.371  1.00  0.00     0.278 HD
BRANCH   3   6
HETATM    6  C5  UNL     1     -23.126  37.595  16.745  1.00  0.00     0.233 C
BRANCH   6   7
HETATM    7  C4  UNL     1     -22.937  36.131  17.006  1.00  0.00     0.031 C
BRANCH   7   8
HETATM    8  C2  UNL     1     -21.873  35.518  16.126  1.00  0.00    -0.021 C
HETATM    9  C1  UNL     1     -20.617  36.319  16.074  1.00  0.00     0.009 C
HETATM   10  C3  UNL     1     -21.517  34.137  16.644  1.00  0.00     0.009 C
ENDBRANCH   7   8
ENDBRANCH   6   7
ENDBRANCH   3   6
ENDBRANCH   2   3
BRANCH   2  11
HETATM   11  C7  UNL     1     -25.248  39.252  14.214  1.00  0.00     0.120 C
HETATM   12  N2  UNL     1     -26.497  39.371  13.927  1.00  0.00    -0.282 N
ATOM     13  H2  UNL     1     -26.798  39.612  12.983  1.00  0.00     0.192 HD
BRANCH  12  14
HETATM   14  O1  UNL     1     -27.408  39.162  14.923  1.00  0.00    -0.291 OA
ATOM     15  H1  UNL     1     -27.808  38.303  14.991  1.00  0.00     0.244 HD
ENDBRANCH  12  14
ENDBRANCH   2  11
ENDBRANCH   1   2
BRANCH   1  16
HETATM   16  S1  UNL     1     -25.217  40.888  17.385  1.00  0.00     0.228 S
HETATM   17  O2  UNL     1     -25.012  42.384  17.168  1.00  0.00    -0.206 OA
HETATM   18  O3  UNL     1     -26.636  40.579  17.091  1.00  0.00    -0.206 OA
BRANCH  16  19
HETATM   19  N3  UNL     1     -24.846  40.586  19.021  1.00  0.00    -0.319 N
ATOM     20  H3  UNL     1     -24.762  39.655  19.427  1.00  0.00     0.172 HD
BRANCH  19  21
HETATM   21  C9  UNL     1     -24.667  41.799  19.751  1.00  0.00     0.145 C
BRANCH  21  22
HETATM   22  C10 UNL     1     -25.235  41.732  21.151  1.00  0.00     0.096 C
HETATM   23  C11 UNL     1     -24.602  40.615  21.921  1.00  0.00     0.017 C
HETATM   24  C12 UNL     1     -25.345  40.194  23.138  1.00  0.00     0.020 C
HETATM   25  C13 UNL     1     -26.490  41.065  23.531  1.00  0.00     0.122 C
HETATM   26  N4  UNL     1     -27.349  41.338  22.389  1.00  0.00    -0.361 N
HETATM   27  C14 UNL     1     -26.696  41.639  21.164  1.00  0.00     0.223 C
ATOM     28  H4  UNL     1     -28.365  41.315  22.464  1.00  0.00     0.162 HD
HETATM   29  O4  UNL     1     -27.347  41.821  20.118  1.00  0.00    -0.273 OA
ENDBRANCH  21  22
ENDBRANCH  19  21
ENDBRANCH  16  19
ENDBRANCH   1  16
TORSDOF 11
ENDMDL