MODEL 1
REMARK VINA RESULT: -6.781533190      0.000      0.000
REMARK  11 active torsions:
REMARK  status: ('A' for Active; 'I' for Inactive)
REMARK    1  A    between atoms: N1_1  and  C1_5
REMARK    2  A    between atoms: C1_5  and  C2_6
REMARK    3  A    between atoms: C1_5  and  C12_22
REMARK    4  A    between atoms: C2_6  and  N2_7
REMARK    5  A    between atoms: N2_7  and  C3_9
REMARK    6  A    between atoms: C3_9  and  C4_10
REMARK    7  A    between atoms: C4_10  and  C5_11
REMARK    8  A    between atoms: C5_11  and  O1_12
REMARK    9  A    between atoms: C5_11  and  C6_14
REMARK       I    between atoms: C6_14  and  N3_16
REMARK   10  A    between atoms: C12_22  and  O3_23
REMARK   11  A    between atoms: O3_23  and  C13_24
ROOT
HETATM    1  C2  UNL     1     -24.031  41.269  14.823  1.00  0.00     0.094 C
ENDROOT
BRANCH   1   2
HETATM    2  C1  UNL     1     -24.953  40.101  14.562  1.00  0.00     0.245 C
BRANCH   2   3
HETATM    3  N1  UNL     1     -25.407  40.111  13.226  1.00  0.00    -0.069 N
ATOM      4  H13 UNL     1     -25.185  40.991  12.759  1.00  0.00     0.275 HD
ATOM      5  H12 UNL     1     -24.861  39.482  12.637  1.00  0.00     0.275 HD
ATOM      6  H11 UNL     1     -26.404  39.901  13.181  1.00  0.00     0.275 HD
ENDBRANCH   2   3
BRANCH   2   7
HETATM    7  C12 UNL     1     -24.234  38.846  15.002  1.00  0.00     0.208 C
BRANCH   7   8
HETATM    8  O3  UNL     1     -22.980  38.951  15.444  1.00  0.00    -0.357 OA
BRANCH   8   9
HETATM    9  C13 UNL     1     -22.378  38.048  16.235  1.00  0.00     0.320 C
HETATM   10  C14 UNL     1     -21.024  37.722  15.595  1.00  0.00     0.061 C
HETATM   11  C15 UNL     1     -20.393  36.484  16.144  1.00  0.00     0.006 C
HETATM   12  C16 UNL     1     -21.375  35.336  16.023  1.00  0.00     0.028 C
HETATM   13  C17 UNL     1     -22.570  35.736  16.880  1.00  0.00     0.235 C
HETATM   14  N4  UNL     1     -23.219  36.844  16.253  1.00  0.00    -0.049 N
ATOM     15  H42 UNL     1     -24.124  37.033  16.685  1.00  0.00     0.280 HD
ATOM     16  H41 UNL     1     -23.535  36.602  15.314  1.00  0.00     0.280 HD
ENDBRANCH   8   9
ENDBRANCH   7   8
ENDBRANCH   2   7
ENDBRANCH   1   2
BRANCH   1  17
HETATM   17  N2  UNL     1     -23.832  41.668  16.136  1.00  0.00    -0.380 N
ATOM     18  H2  UNL     1     -22.926  42.064  16.387  1.00  0.00     0.164 HD
BRANCH  17  19
HETATM   19  C3  UNL     1     -24.803  41.558  17.134  1.00  0.00     0.063 C
BRANCH  19  20
HETATM   20  C4  UNL     1     -24.434  40.625  18.271  1.00  0.00     0.086 C
BRANCH  20  21
HETATM   21  C5  UNL     1     -23.980  41.526  19.440  1.00  0.00     0.214 C
BRANCH  21  22
HETATM   22  O1  UNL     1     -24.186  42.869  19.075  1.00  0.00    -0.386 OA
ATOM     23  H1  UNL     1     -24.138  43.404  19.858  1.00  0.00     0.210 HD
ENDBRANCH  21  22
BRANCH  21  24
HETATM   24  C6  UNL     1     -24.788  41.237  20.638  1.00  0.00     0.248 C
HETATM   25  O2  UNL     1     -26.059  41.198  20.478  1.00  0.00    -0.270 OA
HETATM   26  N3  UNL     1     -24.281  41.003  21.943  1.00  0.00    -0.350 N
HETATM   27  C7  UNL     1     -25.208  40.684  23.039  1.00  0.00     0.126 C
HETATM   28  C11 UNL     1     -22.893  41.072  22.305  1.00  0.00     0.126 C
HETATM   29  C8  UNL     1     -24.667  39.488  23.787  1.00  0.00     0.020 C
HETATM   30  C9  UNL     1     -23.324  39.806  24.419  1.00  0.00     0.003 C
HETATM   31  C10 UNL     1     -22.783  41.067  23.833  1.00  0.00     0.020 C
ENDBRANCH  21  24
ENDBRANCH  20  21
ENDBRANCH  19  20
ENDBRANCH  17  19
ENDBRANCH   1  17
TORSDOF 11
ENDMDL