MODEL 1
REMARK VINA RESULT: -8.034719280      0.000      0.000
REMARK  11 active torsions:
REMARK  status: ('A' for Active; 'I' for Inactive)
REMARK    1  A    between atoms: O1_2  and  C2_3
REMARK    2  A    between atoms: C2_3  and  O2_4
REMARK    3  A    between atoms: C2_3  and  C3_6
REMARK    4  A    between atoms: C4_7  and  C5_8
REMARK    5  A    between atoms: C6_9  and  C7_10
REMARK    6  A    between atoms: C9_13  and  C10_14
REMARK    7  A    between atoms: C11_15  and  C12_16
REMARK    8  A    between atoms: C13_17  and  C15_19
REMARK       I    between atoms: C15_19  and  N1_21
REMARK    9  A    between atoms: N1_21  and  C16_23
REMARK   10  A    between atoms: C16_23  and  C17_24
REMARK       I    between atoms: C17_24  and  N2_26
REMARK   11  A    between atoms: N2_26  and  N3_28
ROOT
HETATM    1  C10 UNL     1     -24.272  41.019  19.407  1.00  0.00    -0.017 C
HETATM    2  C11 UNL     1     -23.740  41.705  20.376  1.00  0.00    -0.003 C
ENDROOT
BRANCH   2   3
HETATM    3  C12 UNL     1     -23.806  41.242  21.780  1.00  0.00     0.012 C
HETATM    4  C13 UNL     1     -22.722  41.210  22.515  1.00  0.00     0.006 C
HETATM    5  C14 UNL     1     -21.441  41.652  21.891  1.00  0.00     0.054 C
BRANCH   4   6
HETATM    6  C15 UNL     1     -22.692  40.771  23.900  1.00  0.00     0.247 C
HETATM    7  O4  UNL     1     -21.880  41.316  24.724  1.00  0.00    -0.268 OA
HETATM    8  N1  UNL     1     -23.520  39.755  24.423  1.00  0.00    -0.348 N
ATOM      9  H1  UNL     1     -24.180  39.310  23.785  1.00  0.00     0.163 HD
BRANCH   8  10
HETATM   10  C16 UNL     1     -23.503  39.299  25.793  1.00  0.00     0.227 C
BRANCH  10  11
HETATM   11  C17 UNL     1     -24.705  39.678  26.563  1.00  0.00     0.253 C
HETATM   12  O5  UNL     1     -24.655  40.646  27.351  1.00  0.00    -0.270 OA
HETATM   13  N2  UNL     1     -25.902  38.956  26.415  1.00  0.00    -0.275 N
ATOM     14  H2  UNL     1     -25.936  38.167  25.768  1.00  0.00     0.189 HD
BRANCH  13  15
HETATM   15  N3  UNL     1     -27.047  39.303  27.138  1.00  0.00    -0.343 N
ATOM     16  H32 UNL     1     -27.215  40.288  27.340  1.00  0.00     0.176 HD
ATOM     17  H31 UNL     1     -27.703  38.590  27.458  1.00  0.00     0.176 HD
ENDBRANCH  13  15
ENDBRANCH  10  11
ENDBRANCH   8  10
ENDBRANCH   4   6
ENDBRANCH   2   3
BRANCH   1  18
HETATM   18  C9  UNL     1     -24.259  41.385  18.016  1.00  0.00     0.065 C
HETATM   19  C7  UNL     1     -24.490  40.417  16.925  1.00  0.00     0.153 C
HETATM   20  O3  UNL     1     -25.799  40.261  17.438  1.00  0.00    -0.381 OA
HETATM   21  C8  UNL     1     -25.735  41.674  17.596  1.00  0.00     0.179 C
BRANCH  19  22
HETATM   22  C6  UNL     1     -23.686  39.230  16.764  1.00  0.00     0.005 C
HETATM   23  C5  UNL     1     -24.172  38.051  17.160  1.00  0.00    -0.002 C
BRANCH  23  24
HETATM   24  C4  UNL     1     -23.437  36.819  17.036  1.00  0.00     0.001 C
HETATM   25  C3  UNL     1     -22.368  36.742  16.287  1.00  0.00     0.033 C
BRANCH  25  26
HETATM   26  C2  UNL     1     -21.591  35.466  16.147  1.00  0.00     0.280 C
BRANCH  26  27
HETATM   27  O1  UNL     1     -20.233  35.685  16.264  1.00  0.00    -0.363 OA
HETATM   28  C1  UNL     1     -19.935  36.968  15.883  1.00  0.00     0.205 C
ENDBRANCH  26  27
BRANCH  26  29
HETATM   29  O2  UNL     1     -22.057  34.517  17.057  1.00  0.00    -0.368 OA
ATOM     30  H2  UNL     1     -22.297  34.903  17.891  1.00  0.00     0.213 HD
ENDBRANCH  26  29
ENDBRANCH  25  26
ENDBRANCH  23  24
ENDBRANCH  19  22
ENDBRANCH   1  18
TORSDOF 11
ENDMDL