MODEL 5
REMARK VINA RESULT: -6.777800024      1.939      6.386
REMARK  10 active torsions:
REMARK  status: ('A' for Active; 'I' for Inactive)
REMARK    1  A    between atoms: C2_2  and  C4_4
REMARK    2  A    between atoms: C4_4  and  C5_5
REMARK    3  A    between atoms: C5_5  and  N1_6
REMARK    4  A    between atoms: C5_5  and  C11_20
REMARK       I    between atoms: N1_6  and  C6_8
REMARK    5  A    between atoms: C6_8  and  C7_10
REMARK    6  A    between atoms: C7_10  and  C8_11
REMARK    7  A    between atoms: C10_14  and  O3_15
REMARK       I    between atoms: C11_20  and  N3_22
REMARK    8  A    between atoms: N3_22  and  C12_24
REMARK    9  A    between atoms: C12_24  and  C13_25
REMARK   10  A    between atoms: C12_24  and  C15_28
ROOT
HETATM    1  C13 UNL     1     -27.878  42.122  14.990  1.00  0.00     0.149 C
HETATM    2  C14 UNL     1     -27.093  42.800  15.972  1.00  0.00     0.061 C
HETATM    3  N4  UNL     1     -26.478  43.389  16.767  1.00  0.00    -0.197 NA
ENDROOT
BRANCH   1   4
HETATM    4  C12 UNL     1     -27.214  40.974  14.296  1.00  0.00     0.101 C
BRANCH   4   5
HETATM    5  N3  UNL     1     -26.091  40.593  15.190  1.00  0.00    -0.353 N
HETATM    6  C11 UNL     1     -26.099  39.319  15.736  1.00  0.00     0.240 C
HETATM    7  O4  UNL     1     -27.076  38.508  15.485  1.00  0.00    -0.271 OA
ATOM      8  H3  UNL     1     -25.338  41.249  15.397  1.00  0.00     0.163 HD
BRANCH   6   9
HETATM    9  C5  UNL     1     -25.048  38.717  16.638  1.00  0.00     0.177 C
BRANCH   9  10
HETATM   10  C4  UNL     1     -23.984  38.106  15.861  1.00  0.00     0.038 C
BRANCH  10  11
HETATM   11  C2  UNL     1     -22.733  37.635  16.490  1.00  0.00    -0.020 C
HETATM   12  C1  UNL     1     -22.490  36.156  16.515  1.00  0.00     0.009 C
HETATM   13  C3  UNL     1     -21.504  38.246  15.765  1.00  0.00     0.009 C
ENDBRANCH  10  11
ENDBRANCH   9  10
BRANCH   9  14
HETATM   14  N1  UNL     1     -24.769  39.558  17.745  1.00  0.00    -0.348 N
HETATM   15  C6  UNL     1     -24.018  40.765  17.663  1.00  0.00     0.220 C
HETATM   16  O1  UNL     1     -23.587  41.062  16.506  1.00  0.00    -0.274 OA
ATOM     17  H1  UNL     1     -25.129  39.280  18.658  1.00  0.00     0.163 HD
BRANCH  15  18
HETATM   18  C7  UNL     1     -23.721  41.648  18.793  1.00  0.00     0.138 C
BRANCH  18  19
HETATM   19  C8  UNL     1     -24.732  41.658  19.889  1.00  0.00     0.224 C
HETATM   20  C9  UNL     1     -25.045  43.122  20.250  1.00  0.00     0.206 C
HETATM   21  O2  UNL     1     -23.736  43.504  20.650  1.00  0.00    -0.337 OA
HETATM   22  C10 UNL     1     -23.310  42.505  21.492  1.00  0.00     0.467 C
HETATM   23  N2  UNL     1     -24.033  41.291  21.133  1.00  0.00    -0.018 N
ATOM     24  H22 UNL     1     -24.642  40.930  21.868  1.00  0.00     0.283 HD
ATOM     25  H21 UNL     1     -23.449  40.459  21.059  1.00  0.00     0.283 HD
BRANCH  22  26
HETATM   26  O3  UNL     1     -21.944  42.292  21.478  1.00  0.00    -0.350 OA
ATOM     27  H3  UNL     1     -21.574  42.065  22.323  1.00  0.00     0.214 HD
ENDBRANCH  22  26
ENDBRANCH  18  19
ENDBRANCH  15  18
ENDBRANCH   9  14
ENDBRANCH   6   9
ENDBRANCH   4   5
BRANCH   4  28
HETATM   28  C15 UNL     1     -26.641  41.337  12.957  1.00  0.00     0.001 C
HETATM   29  C16 UNL     1     -25.121  41.524  13.072  1.00  0.00     0.011 C
HETATM   30  C17 UNL     1     -26.814  40.180  12.001  1.00  0.00     0.011 C
ENDBRANCH   4  28
ENDBRANCH   1   4
TORSDOF 10
ENDMDL