MODEL 2
REMARK VINA RESULT: -6.523064155      3.604      8.305
REMARK  12 active torsions:
REMARK  status: ('A' for Active; 'I' for Inactive)
REMARK    1  A    between atoms: C2_2  and  N1_4
REMARK    2  A    between atoms: N1_4  and  C4_7
REMARK    3  A    between atoms: C4_7  and  C5_8
REMARK    4  A    between atoms: C5_8  and  O1_9
REMARK    5  A    between atoms: C5_8  and  C6_11
REMARK    6  A    between atoms: C6_11  and  N2_12
REMARK       I    between atoms: N2_12  and  C7_14
REMARK       I    between atoms: C7_14  and  N3_16
REMARK    7  A    between atoms: N3_16  and  C8_18
REMARK    8  A    between atoms: C8_18  and  C9_19
REMARK    9  A    between atoms: C8_18  and  C14_26
REMARK   10  A    between atoms: C9_19  and  O4_21
REMARK   11  A    between atoms: O4_21  and  C10_22
REMARK   12  A    between atoms: C10_22  and  C11_23
ROOT
HETATM    1  N2  UNL     1     -27.979  40.993  12.304  1.00  0.00    -0.341 N
ATOM      2  H2  UNL     1     -28.442  41.831  12.656  1.00  0.00     0.164 HD
HETATM    3  C7  UNL     1     -27.045  40.415  13.178  1.00  0.00     0.316 C
HETATM    4  O2  UNL     1     -26.434  39.382  12.850  1.00  0.00    -0.247 OA
HETATM    5  N3  UNL     1     -26.742  40.964  14.468  1.00  0.00    -0.327 N
ATOM      6  H3  UNL     1     -27.226  41.810  14.768  1.00  0.00     0.165 HD
ENDROOT
BRANCH   5   7
HETATM    7  C8  UNL     1     -25.782  40.368  15.354  1.00  0.00     0.216 C
BRANCH   7   8
HETATM    8  C9  UNL     1     -26.344  39.159  16.014  1.00  0.00     0.283 C
HETATM    9  O3  UNL     1     -27.553  39.060  16.340  1.00  0.00    -0.263 OA
BRANCH   8  10
HETATM   10  O4  UNL     1     -25.532  38.072  16.302  1.00  0.00    -0.319 OA
BRANCH  10  11
HETATM   11  C10 UNL     1     -24.334  37.768  15.613  1.00  0.00     0.183 C
BRANCH  11  12
HETATM   12  C11 UNL     1     -23.289  37.501  16.695  1.00  0.00     0.010 A
HETATM   13  C12 UNL     1     -22.037  36.813  16.353  1.00  0.00     0.007 A
HETATM   14  C13 UNL     1     -23.096  36.044  17.085  1.00  0.00     0.007 A
ENDBRANCH  11  12
ENDBRANCH  10  11
ENDBRANCH   8  10
ENDBRANCH   7   8
BRANCH   7  15
HETATM   15  C14 UNL     1     -25.337  41.314  16.448  1.00  0.00     0.218 C
HETATM   16  C15 UNL     1     -23.883  41.238  16.754  1.00  0.00     0.037 C
HETATM   17  C16 UNL     1     -23.820  41.420  18.277  1.00  0.00     0.029 C
HETATM   18  C17 UNL     1     -25.239  41.759  18.680  1.00  0.00     0.233 C
HETATM   19  N4  UNL     1     -26.023  41.064  17.697  1.00  0.00    -0.068 N
ATOM     20  H42 UNL     1     -27.009  41.323  17.690  1.00  0.00     0.277 HD
ATOM     21  H41 UNL     1     -26.168  40.075  17.902  1.00  0.00     0.277 HD
ENDBRANCH   7  15
ENDBRANCH   5   7
BRANCH   1  22
HETATM   22  C6  UNL     1     -28.376  40.586  11.009  1.00  0.00     0.157 C
BRANCH  22  23
HETATM   23  C5  UNL     1     -27.404  40.715   9.894  1.00  0.00     0.161 C
BRANCH  23  24
HETATM   24  C4  UNL     1     -26.914  42.143   9.714  1.00  0.00     0.265 C
BRANCH  24  25
HETATM   25  N1  UNL     1     -25.526  42.202  10.058  1.00  0.00    -0.069 N
ATOM     26  H12 UNL     1     -24.954  42.377   9.232  1.00  0.00     0.277 HD
ATOM     27  H11 UNL     1     -25.175  41.279  10.313  1.00  0.00     0.277 HD
BRANCH  25  28
HETATM   28  C2  UNL     1     -25.242  43.167  11.096  1.00  0.00     0.178 C
HETATM   29  C1  UNL     1     -24.060  43.999  10.605  1.00  0.00     0.039 C
HETATM   30  C3  UNL     1     -26.407  44.096  11.353  1.00  0.00     0.039 C
ENDBRANCH  25  28
ENDBRANCH  24  25
ENDBRANCH  23  24
BRANCH  23  31
HETATM   31  O1  UNL     1     -26.372  39.807   9.860  1.00  0.00    -0.392 OA
ATOM     32  H1  UNL     1     -26.258  39.365  10.694  1.00  0.00     0.210 HD
ENDBRANCH  23  31
ENDBRANCH  22  23
ENDBRANCH   1  22
TORSDOF 12
ENDMDL