MODEL 5
REMARK VINA RESULT: -6.570582126      2.051      3.260
REMARK  14 active torsions:
REMARK  status: ('A' for Active; 'I' for Inactive)
REMARK    1  A    between atoms: C2_2  and  C3_3
REMARK    2  A    between atoms: C4_4  and  C5_5
REMARK    3  A    between atoms: C5_5  and  C6_6
REMARK    4  A    between atoms: C5_5  and  N1_26
REMARK    5  A    between atoms: C7_7  and  C8_8
REMARK    6  A    between atoms: C9_9  and  C10_10
REMARK    7  A    between atoms: C10_10  and  C11_11
REMARK    8  A    between atoms: C12_13  and  C13_14
REMARK    9  A    between atoms: C13_14  and  O2_15
REMARK   10  A    between atoms: C14_17  and  O3_18
REMARK   11  A    between atoms: C15_20  and  O4_21
REMARK   12  A    between atoms: C16_23  and  O5_24
REMARK   13  A    between atoms: N1_26  and  C17_28
REMARK   14  A    between atoms: C17_28  and  C18_29
ROOT
HETATM    1  C11 UNL     1     -25.453  43.104  19.058  1.00  0.00     0.157 C
HETATM    2  O1  UNL     1     -24.212  43.384  19.575  1.00  0.00    -0.373 OA
HETATM    3  C12 UNL     1     -24.213  43.980  20.807  1.00  0.00     0.176 C
HETATM    4  C14 UNL     1     -25.508  43.866  21.573  1.00  0.00     0.180 C
HETATM    5  C15 UNL     1     -26.659  44.416  20.768  1.00  0.00     0.180 C
HETATM    6  C16 UNL     1     -26.332  44.310  19.277  1.00  0.00     0.178 C
ENDROOT
BRANCH   1   7
HETATM    7  C10 UNL     1     -25.379  42.689  17.620  1.00  0.00     0.061 C
BRANCH   7   8
HETATM    8  C9  UNL     1     -24.085  42.203  17.162  1.00  0.00    -0.024 C
HETATM    9  C8  UNL     1     -23.703  40.977  17.217  1.00  0.00    -0.004 C
BRANCH   9  10
HETATM   10  C7  UNL     1     -24.483  39.877  17.739  1.00  0.00    -0.002 C
HETATM   11  C6  UNL     1     -24.476  38.688  17.191  1.00  0.00     0.002 C
BRANCH  11  12
HETATM   12  C5  UNL     1     -23.649  38.429  15.993  1.00  0.00     0.127 C
BRANCH  12  13
HETATM   13  C4  UNL     1     -22.853  37.203  16.251  1.00  0.00     0.002 C
HETATM   14  C3  UNL     1     -23.333  36.225  16.995  1.00  0.00    -0.002 C
BRANCH  14  15
HETATM   15  C2  UNL     1     -22.532  35.024  17.237  1.00  0.00    -0.010 C
HETATM   16  C1  UNL     1     -21.512  34.719  16.469  1.00  0.00     0.011 C
ENDBRANCH  14  15
ENDBRANCH  12  13
BRANCH  12  17
HETATM   17  N1  UNL     1     -24.384  38.309  14.800  1.00  0.00    -0.388 N
ATOM     18  H1  UNL     1     -24.022  37.707  14.061  1.00  0.00     0.159 HD
BRANCH  17  19
HETATM   19  C17 UNL     1     -25.588  38.982  14.589  1.00  0.00     0.083 C
BRANCH  19  20
HETATM   20  C18 UNL     1     -25.628  39.990  13.508  1.00  0.00     0.006 C
HETATM   21  C19 UNL     1     -24.938  41.133  13.625  1.00  0.00     0.012 C
ENDBRANCH  19  20
ENDBRANCH  17  19
ENDBRANCH  12  17
ENDBRANCH  11  12
ENDBRANCH   9  10
ENDBRANCH   7   8
ENDBRANCH   1   7
BRANCH   6  22
HETATM   22  O5  UNL     1     -25.635  45.446  18.870  1.00  0.00    -0.390 OA
ATOM     23  H5  UNL     1     -25.082  45.734  19.587  1.00  0.00     0.210 HD
ENDBRANCH   6  22
BRANCH   3  24
HETATM   24  C13 UNL     1     -23.053  43.490  21.681  1.00  0.00     0.198 C
BRANCH  24  25
HETATM   25  O2  UNL     1     -22.740  42.195  21.213  1.00  0.00    -0.398 OA
ATOM     26  H2  UNL     1     -23.508  41.664  21.390  1.00  0.00     0.209 HD
ENDBRANCH  24  25
ENDBRANCH   3  24
BRANCH   5  27
HETATM   27  O4  UNL     1     -26.807  45.761  21.096  1.00  0.00    -0.390 OA
ATOM     28  H4  UNL     1     -27.485  46.126  20.539  1.00  0.00     0.210 HD
ENDBRANCH   5  27
BRANCH   4  29
HETATM   29  O3  UNL     1     -25.732  42.565  22.022  1.00  0.00    -0.390 OA
ATOM     30  H3  UNL     1     -24.920  42.088  22.146  1.00  0.00     0.210 HD
ENDBRANCH   4  29
TORSDOF 14
ENDMDL