MODEL 3
REMARK VINA RESULT: -6.360493190      1.869      3.825
REMARK  13 active torsions:
REMARK  status: ('A' for Active; 'I' for Inactive)
REMARK    1  A    between atoms: C2_2  and  C3_3
REMARK       I    between atoms: C3_3  and  N1_5
REMARK    2  A    between atoms: N1_5  and  C4_7
REMARK    3  A    between atoms: C4_7  and  C5_8
REMARK    4  A    between atoms: C4_7  and  C9_17
REMARK    5  A    between atoms: C5_8  and  C6_9
REMARK    6  A    between atoms: C6_9  and  O2_11
REMARK    7  A    between atoms: C6_9  and  C8_13
REMARK       I    between atoms: C9_17  and  N3_19
REMARK    8  A    between atoms: N3_19  and  C10_21
REMARK    9  A    between atoms: C10_21  and  C11_22
REMARK   10  A    between atoms: C10_21  and  C15_26
REMARK   11  A    between atoms: C15_26  and  O4_27
REMARK   12  A    between atoms: C15_26  and  C16_29
REMARK   13  A    between atoms: C16_29  and  O5_31
ROOT
HETATM    1  C4  UNL     1     -24.056  40.199  17.288  1.00  0.00     0.083 C
ENDROOT
BRANCH   1   2
HETATM    2  N1  UNL     1     -24.676  40.782  16.127  1.00  0.00    -0.322 N
HETATM    3  C3  UNL     1     -26.045  41.065  16.063  1.00  0.00     0.244 C
HETATM    4  O1  UNL     1     -26.798  40.813  17.048  1.00  0.00    -0.268 OA
ATOM      5  H1  UNL     1     -24.094  40.997  15.317  1.00  0.00     0.169 HD
BRANCH   3   6
HETATM    6  C2  UNL     1     -26.680  41.657  14.885  1.00  0.00     0.064 C
HETATM    7  C1  UNL     1     -26.098  41.674  13.708  1.00  0.00     0.017 C
ENDBRANCH   3   6
ENDBRANCH   1   2
BRANCH   1   8
HETATM    8  C5  UNL     1     -24.150  38.728  17.338  1.00  0.00     0.106 C
BRANCH   8   9
HETATM    9  C6  UNL     1     -23.421  37.928  16.335  1.00  0.00     0.091 C
HETATM   10  C7  UNL     1     -23.088  36.551  16.831  1.00  0.00     0.052 C
BRANCH   9  11
HETATM   11  O2  UNL     1     -24.051  37.882  15.090  1.00  0.00    -0.384 OA
ATOM     12  H2  UNL     1     -23.452  37.747  14.365  1.00  0.00     0.211 HD
ENDBRANCH   9  11
BRANCH   9  13
HETATM   13  C8  UNL     1     -22.089  38.594  16.055  1.00  0.00     0.090 C
HETATM   14  N2  UNL     1     -21.061  37.951  15.714  1.00  0.00    -0.409 N
ATOM     15  H22 UNL     1     -21.146  36.938  15.628  1.00  0.00     0.155 HD
ATOM     16  H21 UNL     1     -20.165  38.400  15.525  1.00  0.00     0.155 HD
ENDBRANCH   9  13
ENDBRANCH   8   9
ENDBRANCH   1   8
BRANCH   1  17
HETATM   17  C9  UNL     1     -24.246  40.966  18.527  1.00  0.00     0.264 C
HETATM   18  O3  UNL     1     -23.455  41.946  18.722  1.00  0.00    -0.266 OA
HETATM   19  N3  UNL     1     -25.211  40.718  19.521  1.00  0.00    -0.348 N
ATOM     20  H3  UNL     1     -25.873  39.953  19.388  1.00  0.00     0.163 HD
BRANCH  19  21
HETATM   21  C10 UNL     1     -25.294  41.543  20.770  1.00  0.00     0.120 C
BRANCH  21  22
HETATM   22  C11 UNL     1     -25.143  40.537  21.843  1.00  0.00     0.011 C
HETATM   23  C12 UNL     1     -25.869  40.592  23.124  1.00  0.00     0.007 C
HETATM   24  C13 UNL     1     -24.560  40.071  23.786  1.00  0.00     0.001 C
HETATM   25  C14 UNL     1     -23.855  40.815  22.649  1.00  0.00     0.007 C
ENDBRANCH  21  22
BRANCH  21  26
HETATM   26  C15 UNL     1     -26.526  42.368  20.706  1.00  0.00     0.169 C
BRANCH  26  27
HETATM   27  O4  UNL     1     -27.397  41.565  19.851  1.00  0.00    -0.391 OA
ATOM     28  H4  UNL     1     -28.175  42.106  19.787  1.00  0.00     0.210 HD
ENDBRANCH  26  27
BRANCH  26  29
HETATM   29  C16 UNL     1     -26.424  43.632  19.915  1.00  0.00     0.145 C
HETATM   30  C17 UNL     1     -25.252  44.490  20.445  1.00  0.00     0.042 C
BRANCH  29  31
HETATM   31  O5  UNL     1     -26.233  43.535  18.574  1.00  0.00    -0.393 OA
ATOM     32  H5  UNL     1     -25.847  44.275  18.121  1.00  0.00     0.210 HD
ENDBRANCH  29  31
ENDBRANCH  26  29
ENDBRANCH  21  26
ENDBRANCH  19  21
ENDBRANCH   1  17
TORSDOF 13
ENDMDL