MODEL 4
REMARK VINA RESULT: -6.415507001      2.434      3.230
REMARK  12 active torsions:
REMARK  status: ('A' for Active; 'I' for Inactive)
REMARK    1  A    between atoms: N1_1  and  N2_4
REMARK    2  A    between atoms: N2_4  and  C1_5
REMARK    3  A    between atoms: C4_11  and  O1_12
REMARK    4  A    between atoms: O1_12  and  C5_13
REMARK    5  A    between atoms: C5_13  and  C6_14
REMARK    6  A    between atoms: C6_14  and  O2_15
REMARK    7  A    between atoms: O2_15  and  C7_16
REMARK    8  A    between atoms: C7_16  and  C8_17
REMARK    9  A    between atoms: C8_17  and  O3_18
REMARK   10  A    between atoms: O3_18  and  C9_19
REMARK   11  A    between atoms: C12_22  and  C13_23
REMARK   12  A    between atoms: C13_23  and  C14_24
ROOT
HETATM    1  C7  UNL     1     -27.010  42.467  16.985  1.00  0.00     0.193 C
ENDROOT
BRANCH   1   2
HETATM    2  O2  UNL     1     -27.052  41.705  18.126  1.00  0.00    -0.387 OA
BRANCH   2   3
HETATM    3  C6  UNL     1     -27.155  42.499  19.249  1.00  0.00     0.193 C
BRANCH   3   4
HETATM    4  C5  UNL     1     -25.785  42.718  19.878  1.00  0.00     0.194 C
BRANCH   4   5
HETATM    5  O1  UNL     1     -25.704  42.161  21.122  1.00  0.00    -0.380 OA
BRANCH   5   6
HETATM    6  C4  UNL     1     -24.748  41.179  21.220  1.00  0.00     0.169 C
HETATM    7  C1  UNL     1     -25.042  40.320  22.417  1.00  0.00     0.154 C
HETATM    8  C2  UNL     1     -23.697  40.306  23.143  1.00  0.00     0.258 C
HETATM    9  N3  UNL     1     -23.201  41.671  22.909  1.00  0.00    -0.071 N
HETATM   10  C3  UNL     1     -23.414  41.801  21.500  1.00  0.00     0.265 C
ATOM     11  H32 UNL     1     -23.627  42.396  23.485  1.00  0.00     0.277 HD
ATOM     12  H31 UNL     1     -22.249  41.853  23.227  1.00  0.00     0.277 HD
BRANCH   7  13
HETATM   13  N2  UNL     1     -26.001  40.982  23.321  1.00  0.00    -0.139 NA
BRANCH  13  14
HETATM   14  N1  UNL     1     -27.290  40.555  22.978  1.00  0.00    -0.348 N
ATOM     15  H12 UNL     1     -28.086  41.169  22.809  1.00  0.00     0.172 HD
ATOM     16  H11 UNL     1     -27.284  39.536  22.929  1.00  0.00     0.172 HD
ENDBRANCH  13  14
ENDBRANCH   7  13
ENDBRANCH   5   6
ENDBRANCH   4   5
ENDBRANCH   3   4
ENDBRANCH   2   3
ENDBRANCH   1   2
BRANCH   1  17
HETATM   17  C8  UNL     1     -26.017  42.069  15.951  1.00  0.00     0.194 C
BRANCH  17  18
HETATM   18  O3  UNL     1     -24.721  42.393  16.256  1.00  0.00    -0.384 OA
BRANCH  18  19
HETATM   19  C9  UNL     1     -23.795  41.384  16.192  1.00  0.00     0.121 C
HETATM   20  C10 UNL     1     -23.669  40.834  17.610  1.00  0.00     0.032 C
HETATM   21  C11 UNL     1     -24.312  39.459  17.556  1.00  0.00     0.007 C
HETATM   22  C12 UNL     1     -23.932  39.013  16.169  1.00  0.00    -0.006 C
HETATM   23  C17 UNL     1     -24.202  40.238  15.334  1.00  0.00     0.037 C
BRANCH  22  24
HETATM   24  C13 UNL     1     -22.507  38.588  16.100  1.00  0.00     0.063 C
BRANCH  24  25
HETATM   25  C14 UNL     1     -22.291  37.164  16.362  1.00  0.00     0.025 A
HETATM   26  C15 UNL     1     -23.005  36.195  16.998  1.00  0.00     0.114 A
HETATM   27  N4  UNL     1     -22.361  35.023  16.981  1.00  0.00    -0.360 N
HETATM   28  C16 UNL     1     -21.216  35.247  16.320  1.00  0.00     0.180 A
ATOM     29  H4  UNL     1     -22.676  34.142  17.386  1.00  0.00     0.166 HD
HETATM   30  N5  UNL     1     -21.148  36.530  15.935  1.00  0.00    -0.355 N
ATOM     31  H5  UNL     1     -20.382  36.961  15.417  1.00  0.00     0.166 HD
ENDBRANCH  24  25
ENDBRANCH  22  24
ENDBRANCH  18  19
ENDBRANCH  17  18
ENDBRANCH   1  17
TORSDOF 12
ENDMDL