MODEL 2
REMARK VINA RESULT: -6.525941846      1.261      1.353
REMARK  15 active torsions:
REMARK  status: ('A' for Active; 'I' for Inactive)
REMARK    1  A    between atoms: C2_2  and  C3_3
REMARK    2  A    between atoms: C3_3  and  N1_4
REMARK    3  A    between atoms: C4_5  and  C5_6
REMARK    4  A    between atoms: C5_6  and  O1_7
REMARK    5  A    between atoms: O1_7  and  C6_8
REMARK    6  A    between atoms: C11_13  and  O2_14
REMARK    7  A    between atoms: C12_16  and  C13_17
REMARK    8  A    between atoms: C13_17  and  O3_18
REMARK    9  A    between atoms: C13_17  and  C14_20
REMARK   10  A    between atoms: C14_20  and  O4_21
REMARK   11  A    between atoms: C14_20  and  C15_23
REMARK   12  A    between atoms: C15_23  and  C16_24
REMARK   13  A    between atoms: C16_24  and  O5_25
REMARK   14  A    between atoms: C16_24  and  C17_27
REMARK   15  A    between atoms: C17_27  and  O6_28
ROOT
HETATM    1  N1  UNL     1     -25.254  40.664  15.978  1.00  0.00     0.111 N
HETATM    2  C4  UNL     1     -24.649  39.535  15.343  1.00  0.00     0.278 C
HETATM    3  C11 UNL     1     -25.777  39.661  14.291  1.00  0.00     0.189 C
HETATM    4  C12 UNL     1     -25.634  41.132  14.594  1.00  0.00     0.285 C
ENDROOT
BRANCH   4   5
HETATM    5  C13 UNL     1     -26.922  41.899  14.659  1.00  0.00     0.183 C
BRANCH   5   6
HETATM    6  O3  UNL     1     -26.721  43.165  15.274  1.00  0.00    -0.391 OA
ATOM      7  H3  UNL     1     -27.454  43.384  15.836  1.00  0.00     0.210 HD
ENDBRANCH   5   6
BRANCH   5   8
HETATM    8  C14 UNL     1     -27.510  42.162  13.291  1.00  0.00     0.151 C
BRANCH   8   9
HETATM    9  O4  UNL     1     -27.674  43.540  13.103  1.00  0.00    -0.393 OA
ATOM     10  H4  UNL     1     -26.924  43.892  12.638  1.00  0.00     0.210 HD
ENDBRANCH   8   9
BRANCH   8  11
HETATM   11  C15 UNL     1     -28.694  41.362  12.899  1.00  0.00     0.068 C
BRANCH  11  12
HETATM   12  C16 UNL     1     -28.383  40.503  11.690  1.00  0.00     0.144 C
BRANCH  12  13
HETATM   13  O5  UNL     1     -28.222  39.162  12.012  1.00  0.00    -0.393 OA
ATOM     14  H5  UNL     1     -29.020  38.660  11.902  1.00  0.00     0.210 HD
ENDBRANCH  12  13
BRANCH  12  15
HETATM   15  C17 UNL     1     -27.311  40.989  10.790  1.00  0.00     0.195 C
BRANCH  15  16
HETATM   16  O6  UNL     1     -26.465  39.868  10.533  1.00  0.00    -0.398 OA
ATOM     17  H6  UNL     1     -26.177  39.551  11.381  1.00  0.00     0.209 HD
ENDBRANCH  15  16
ENDBRANCH  12  15
ENDBRANCH  11  12
ENDBRANCH   8  11
ENDBRANCH   5   8
ENDBRANCH   4   5
BRANCH   1  18
HETATM   18  C3  UNL     1     -24.295  41.601  16.561  1.00  0.00     0.300 C
BRANCH  18  19
HETATM   19  C2  UNL     1     -23.782  41.148  17.876  1.00  0.00    -0.007 C
HETATM   20  C1  UNL     1     -24.591  40.878  18.889  1.00  0.00     0.008 C
ENDBRANCH  18  19
ENDBRANCH   1  18
BRANCH   3  21
HETATM   21  O2  UNL     1     -25.384  39.188  13.074  1.00  0.00    -0.391 OA
ATOM     22  H2  UNL     1     -25.701  39.735  12.366  1.00  0.00     0.210 HD
ENDBRANCH   3  21
BRANCH   2  23
HETATM   23  C5  UNL     1     -24.743  38.205  16.084  1.00  0.00     0.206 C
BRANCH  23  24
HETATM   24  O1  UNL     1     -23.521  37.979  16.661  1.00  0.00    -0.384 OA
BRANCH  24  25
HETATM   25  C6  UNL     1     -22.833  36.893  16.234  1.00  0.00     0.121 C
HETATM   26  C7  UNL     1     -21.359  37.225  16.147  1.00  0.00     0.032 C
HETATM   27  C8  UNL     1     -20.727  35.870  16.016  1.00  0.00     0.002 C
HETATM   28  C9  UNL     1     -21.730  34.860  16.551  1.00  0.00     0.002 C
HETATM   29  C10 UNL     1     -22.816  35.731  17.201  1.00  0.00     0.032 C
ENDBRANCH  24  25
ENDBRANCH  23  24
ENDBRANCH   2  23
TORSDOF 15
ENDMDL