MODEL 1
REMARK VINA RESULT: -6.836475801      0.000      0.000
REMARK  11 active torsions:
REMARK  status: ('A' for Active; 'I' for Inactive)
REMARK    1  A    between atoms: N1_1  and  C1_4
REMARK    2  A    between atoms: C2_7  and  O1_8
REMARK    3  A    between atoms: C3_10  and  C4_11
REMARK    4  A    between atoms: C4_11  and  N3_12
REMARK    5  A    between atoms: C4_11  and  C18_40
REMARK       I    between atoms: N3_12  and  C5_14
REMARK    6  A    between atoms: C5_14  and  C6_16
REMARK    7  A    between atoms: C6_16  and  N4_17
REMARK       I    between atoms: N4_17  and  C7_19
REMARK    8  A    between atoms: C7_19  and  C8_21
REMARK    9  A    between atoms: C8_21  and  N5_22
REMARK       I    between atoms: C18_40  and  N9_42
REMARK   10  A    between atoms: N9_42  and  O7_44
REMARK   11  A    between atoms: O7_44  and  C19_45
ROOT
HETATM    1  N3  UNL     1       9.268  -8.235   1.150  1.00  0.00    -0.342 N
ATOM      2  H3  UNL     1       8.751  -7.600   0.542  1.00  0.00     0.163 HD
HETATM    3  C5  UNL     1       9.694  -9.501   0.680  1.00  0.00     0.236 C
HETATM    4  O2  UNL     1      10.336 -10.299   1.447  1.00  0.00    -0.272 OA
ENDROOT
BRANCH   1   5
HETATM    5  C4  UNL     1       9.588  -7.859   2.533  1.00  0.00     0.222 C
BRANCH   5   6
HETATM    6  C3  UNL     1      10.309  -6.599   2.601  1.00  0.00     0.093 A
HETATM    7  C2  UNL     1       9.809  -5.456   2.033  1.00  0.00     0.169 A
HETATM    8  N2  UNL     1      10.473  -4.266   2.108  1.00  0.00    -0.170 N
HETATM    9  C1  UNL     1      11.664  -4.214   2.770  1.00  0.00     0.680 A
ATOM     10  H2  UNL     1      10.084  -3.428   1.676  1.00  0.00     0.186 HD
HETATM   11  N10 UNL     1      12.161  -5.316   3.326  1.00  0.00    -0.156 N
HETATM   12  C20 UNL     1      11.515  -6.521   3.262  1.00  0.00     0.272 A
ATOM     13  H10 UNL     1      13.055  -5.261   3.815  1.00  0.00     0.187 HD
HETATM   14  O8  UNL     1      11.979  -7.568   3.785  1.00  0.00    -0.267 OA
BRANCH   7  15
HETATM   15  O1  UNL     1       8.594  -5.525   1.368  1.00  0.00    -0.345 OA
ATOM     16  H1  UNL     1       8.354  -6.320   0.906  1.00  0.00     0.219 HD
ENDBRANCH   7  15
BRANCH   9  17
HETATM   17  N1  UNL     1      12.237  -3.054   2.802  1.00  0.00    -0.234 N
ATOM     18  H12 UNL     1      11.769  -2.173   2.593  1.00  0.00     0.174 HD
ATOM     19  H11 UNL     1      13.224  -3.055   3.061  1.00  0.00     0.174 HD
ENDBRANCH   9  17
ENDBRANCH   5   6
BRANCH   5  20
HETATM   20  C18 UNL     1       8.274  -7.779   3.294  1.00  0.00     0.269 C
HETATM   21  O6  UNL     1       8.148  -6.907   4.174  1.00  0.00    -0.269 OA
HETATM   22  N9  UNL     1       7.207  -8.668   3.015  1.00  0.00    -0.224 N
ATOM     23  H9  UNL     1       7.317  -9.388   2.300  1.00  0.00     0.198 HD
BRANCH  22  24
HETATM   24  O7  UNL     1       6.049  -8.563   3.690  1.00  0.00    -0.172 OA
BRANCH  24  25
HETATM   25  C19 UNL     1       5.215  -9.630   3.462  1.00  0.00     0.546 C
HETATM   26  F2  UNL     1       3.970  -9.289   3.956  1.00  0.00    -0.143 F
HETATM   27  F3  UNL     1       5.658 -10.720   4.209  1.00  0.00    -0.143 F
HETATM   28  F4  UNL     1       5.087  -9.985   2.150  1.00  0.00    -0.143 F
ENDBRANCH  24  25
ENDBRANCH  22  24
ENDBRANCH   5  20
ENDBRANCH   1   5
BRANCH   3  29
HETATM   29  C6  UNL     1       9.383  -9.886  -0.713  1.00  0.00     0.225 C
BRANCH  29  30
HETATM   30  N4  UNL     1       8.219  -9.133  -1.194  1.00  0.00    -0.351 N
HETATM   31  C7  UNL     1       6.907  -9.642  -1.013  1.00  0.00     0.236 C
HETATM   32  O3  UNL     1       6.751 -10.730  -0.429  1.00  0.00    -0.272 OA
ATOM     33  H4  UNL     1       8.354  -8.236  -1.662  1.00  0.00     0.163 HD
BRANCH  31  34
HETATM   34  C8  UNL     1       5.748  -8.910  -1.500  1.00  0.00     0.238 C
BRANCH  34  35
HETATM   35  N5  UNL     1       5.022  -8.158  -0.532  1.00  0.00    -0.269 N
HETATM   36  C9  UNL     1       5.598  -7.260   0.257  1.00  0.00     0.281 C
HETATM   37  O4  UNL     1       6.810  -7.100   0.084  1.00  0.00    -0.265 OA
HETATM   38  C10 UNL     1       5.047  -6.465   1.252  1.00  0.00     0.147 A
HETATM   39  N6  UNL     1       5.678  -5.435   1.838  1.00  0.00    -0.345 N
HETATM   40  C12 UNL     1       3.771  -6.567   1.825  1.00  0.00     0.146 A
HETATM   41  C11 UNL     1       4.834  -4.890   2.759  1.00  0.00     0.182 A
ATOM     42  H6  UNL     1       6.624  -5.115   1.630  1.00  0.00     0.167 HD
HETATM   43  N7  UNL     1       3.690  -5.573   2.748  1.00  0.00    -0.336 N
ATOM     44  H7  UNL     1       2.882  -5.381   3.339  1.00  0.00     0.168 HD
HETATM   45  N8  UNL     1       2.798  -7.454   1.538  1.00  0.00    -0.298 N
HETATM   46  C13 UNL     1       1.686  -7.603   2.299  1.00  0.00     0.141 A
HETATM   47  C16 UNL     1       2.752  -8.304   0.499  1.00  0.00     0.112 A
HETATM   48  C14 UNL     1       0.875  -8.580   1.751  1.00  0.00     0.134 A
HETATM   49  F1  UNL     1      -0.321  -9.013   2.224  1.00  0.00    -0.205 F
HETATM   50  C15 UNL     1       1.576  -9.002   0.618  1.00  0.00     0.079 A
HETATM   51  C17 UNL     1       3.696  -8.465  -0.505  1.00  0.00     0.278 C
HETATM   52  O5  UNL     1       3.226  -8.981  -1.549  1.00  0.00    -0.265 OA
ENDBRANCH  34  35
ENDBRANCH  31  34
ENDBRANCH  29  30
ENDBRANCH   3  29
TORSDOF 11
ENDMDL