MODEL 1
REMARK VINA RESULT: -6.589724775      0.000      0.000
REMARK  11 active torsions:
REMARK  status: ('A' for Active; 'I' for Inactive)
REMARK    1  A    between atoms: N1_1  and  C1_5
REMARK    2  A    between atoms: C1_5  and  C2_6
REMARK    3  A    between atoms: C5_11  and  N2_12
REMARK    4  A    between atoms: C5_11  and  C11_26
REMARK       I    between atoms: N2_12  and  C6_14
REMARK    5  A    between atoms: C6_14  and  C7_16
REMARK       I    between atoms: C11_26  and  N7_28
REMARK    6  A    between atoms: N7_28  and  C12_30
REMARK    7  A    between atoms: C12_30  and  C13_31
REMARK       I    between atoms: C13_31  and  N8_33
REMARK    8  A    between atoms: N8_33  and  N9_35
REMARK    9  A    between atoms: N9_35  and  S1_37
REMARK   10  A    between atoms: S1_37  and  C14_40
REMARK   11  A    between atoms: C16_44  and  C17_45
ROOT
HETATM    1  C2  UNL     1       9.363 -12.245   1.068  1.00  0.00     0.156 C
HETATM    2  C3  UNL     1      10.580 -11.907   0.288  1.00  0.00     0.118 C
HETATM    3  C4  UNL     1      10.120 -10.721  -0.558  1.00  0.00     0.304 C
HETATM    4  F1  UNL     1       9.915 -11.251  -1.841  1.00  0.00    -0.200 F
HETATM    5  F2  UNL     1      11.130  -9.787  -0.740  1.00  0.00    -0.200 F
HETATM    6  C5  UNL     1       8.930 -10.262   0.104  1.00  0.00     0.287 C
HETATM    7  O6  UNL     1       8.618 -11.085   1.198  1.00  0.00    -0.341 OA
ENDROOT
BRANCH   6   8
HETATM    8  N2  UNL     1       8.833  -8.917   0.660  1.00  0.00    -0.316 N
HETATM    9  C6  UNL     1       9.530  -8.458   1.766  1.00  0.00     0.233 C
HETATM   10  O1  UNL     1      10.314  -9.229   2.377  1.00  0.00    -0.273 OA
ATOM     11  H2  UNL     1       8.202  -8.263   0.197  1.00  0.00     0.166 HD
BRANCH   9  12
HETATM   12  C7  UNL     1       9.413  -7.090   2.302  1.00  0.00     0.160 C
HETATM   13  C8  UNL     1      10.740  -6.531   2.702  1.00  0.00     0.144 C
HETATM   14  N3  UNL     1      10.857  -5.133   2.559  1.00  0.00    -0.363 N
HETATM   15  C9  UNL     1      10.086  -4.320   1.932  1.00  0.00     0.189 C
ATOM     16  H3  UNL     1      11.664  -4.709   3.018  1.00  0.00     0.162 HD
HETATM   17  N4  UNL     1      10.281  -2.915   1.823  1.00  0.00    -0.064 NA
HETATM   18  N5  UNL     1       8.898  -4.920   1.421  1.00  0.00    -0.322 N
HETATM   19  C10 UNL     1       8.590  -6.146   1.572  1.00  0.00     0.110 C
ATOM     20  H5  UNL     1       8.253  -4.327   0.900  1.00  0.00     0.169 HD
HETATM   21  N6  UNL     1       7.308  -6.473   0.951  1.00  0.00    -0.086 NA
ENDBRANCH   9  12
ENDBRANCH   6   8
BRANCH   6  22
HETATM   22  C11 UNL     1       7.696 -10.381  -0.774  1.00  0.00     0.280 C
HETATM   23  O2  UNL     1       7.254 -11.435  -1.242  1.00  0.00    -0.268 OA
HETATM   24  N7  UNL     1       7.006  -9.162  -1.050  1.00  0.00    -0.348 N
ATOM     25  H7  UNL     1       7.392  -8.314  -0.633  1.00  0.00     0.163 HD
BRANCH  24  26
HETATM   26  C12 UNL     1       5.839  -9.006  -1.842  1.00  0.00     0.227 C
BRANCH  26  27
HETATM   27  C13 UNL     1       4.581  -8.721  -1.132  1.00  0.00     0.254 C
HETATM   28  O3  UNL     1       3.465  -8.990  -1.569  1.00  0.00    -0.270 OA
HETATM   29  N8  UNL     1       4.696  -8.088   0.136  1.00  0.00    -0.259 N
ATOM     30  H8  UNL     1       5.611  -7.860   0.526  1.00  0.00     0.190 HD
BRANCH  29  31
HETATM   31  N9  UNL     1       3.533  -7.788   0.829  1.00  0.00    -0.219 N
ATOM     32  H9  UNL     1       2.611  -7.694   0.403  1.00  0.00     0.200 HD
BRANCH  31  33
HETATM   33  S1  UNL     1       3.859  -7.594   2.508  1.00  0.00     0.293 S
HETATM   34  O4  UNL     1       2.484  -7.557   3.181  1.00  0.00    -0.197 OA
HETATM   35  O5  UNL     1       4.628  -8.702   3.116  1.00  0.00    -0.197 OA
BRANCH  33  36
HETATM   36  C14 UNL     1       4.602  -6.064   2.897  1.00  0.00     0.167 A
HETATM   37  C15 UNL     1       4.097  -4.823   2.536  1.00  0.00     0.133 A
HETATM   38  N10 UNL     1       4.924  -3.900   3.005  1.00  0.00    -0.345 N
HETATM   39  C16 UNL     1       5.950  -4.461   3.662  1.00  0.00     0.191 A
ATOM     40  H10 UNL     1       4.797  -2.895   2.883  1.00  0.00     0.166 HD
HETATM   41  N11 UNL     1       5.739  -5.800   3.587  1.00  0.00    -0.327 N
ATOM     42  H11 UNL     1       6.350  -6.509   3.992  1.00  0.00     0.168 HD
BRANCH  39  43
HETATM   43  C17 UNL     1       7.044  -3.710   4.311  1.00  0.00     0.449 C
HETATM   44  F3  UNL     1       6.586  -3.113   5.454  1.00  0.00    -0.163 F
HETATM   45  F4  UNL     1       7.486  -2.753   3.405  1.00  0.00    -0.163 F
HETATM   46  F5  UNL     1       8.044  -4.612   4.615  1.00  0.00    -0.163 F
ENDBRANCH  39  43
ENDBRANCH  33  36
ENDBRANCH  31  33
ENDBRANCH  29  31
ENDBRANCH  26  27
ENDBRANCH  24  26
ENDBRANCH   6  22
BRANCH   1  47
HETATM   47  C1  UNL     1       9.636 -12.701   2.499  1.00  0.00     0.261 C
BRANCH  47  48
HETATM   48  N1  UNL     1      10.905 -12.161   2.948  1.00  0.00    -0.077 N
ATOM     49  H13 UNL     1      11.113 -11.259   2.520  1.00  0.00     0.274 HD
ATOM     50  H12 UNL     1      10.871 -11.857   3.921  1.00  0.00     0.274 HD
ATOM     51  H11 UNL     1      11.645 -12.844   2.784  1.00  0.00     0.274 HD
ENDBRANCH  47  48
ENDBRANCH   1  47
TORSDOF 11
ENDMDL