MODEL 2
REMARK VINA RESULT: -5.840214635      8.877     13.729
REMARK  13 active torsions:
REMARK  status: ('A' for Active; 'I' for Inactive)
REMARK    1  A    between atoms: C2_2  and  C3_3
REMARK    2  A    between atoms: C5_7  and  C6_8
REMARK    3  A    between atoms: C6_8  and  C7_9
REMARK    4  A    between atoms: C8_12  and  N2_13
REMARK       I    between atoms: N2_13  and  C9_15
REMARK       I    between atoms: C9_15  and  N3_17
REMARK    5  A    between atoms: N3_17  and  N4_19
REMARK    6  A    between atoms: N6_24  and  C10_25
REMARK    7  A    between atoms: C10_25  and  O4_26
REMARK    8  A    between atoms: C10_25  and  C11_28
REMARK    9  A    between atoms: C11_28  and  N7_29
REMARK   10  A    between atoms: C11_28  and  C12_33
REMARK   11  A    between atoms: C13_36  and  C14_37
REMARK       I    between atoms: C14_37  and  N8_39
REMARK   12  A    between atoms: N8_39  and  C15_41
REMARK   13  A    between atoms: C15_41  and  C16_45
ROOT
HETATM    1  C6  UNL     1       5.777  -7.293   2.307  1.00  0.00     0.167 C
HETATM    2  C8  UNL     1       6.796  -6.367   1.723  1.00  0.00     0.127 C
HETATM    3  N5  UNL     1       7.257  -6.874   0.617  1.00  0.00    -0.286 N
ATOM      4  H5  UNL     1       7.961  -6.421   0.034  1.00  0.00     0.188 HD
HETATM    5  N6  UNL     1       6.682  -8.098   0.323  1.00  0.00    -0.279 N
HETATM    6  C13 UNL     1       5.574  -8.316   1.181  1.00  0.00     0.228 C
ENDROOT
BRANCH   1   7
HETATM    7  C5  UNL     1       6.290  -7.932   3.513  1.00  0.00    -0.010 A
HETATM    8  C4  UNL     1       6.235  -9.334   3.612  1.00  0.00     0.097 A
HETATM    9  N1  UNL     1       6.663  -9.998   4.698  1.00  0.00    -0.366 N
HETATM   10  C3  UNL     1       7.172  -9.352   5.763  1.00  0.00     0.047 A
ATOM     11  H1  UNL     1       6.600 -11.016   4.717  1.00  0.00     0.165 HD
HETATM   12  C18 UNL     1       7.229  -7.983   5.681  1.00  0.00     0.139 A
HETATM   13  C17 UNL     1       6.801  -7.258   4.584  1.00  0.00     0.054 A
HETATM   14  F2  UNL     1       7.735  -7.252   6.729  1.00  0.00    -0.204 F
BRANCH  10  15
HETATM   15  C2  UNL     1       7.649 -10.091   6.976  1.00  0.00     0.056 C
HETATM   16  C1  UNL     1       9.138 -10.335   6.921  1.00  0.00     0.011 C
ENDBRANCH  10  15
ENDBRANCH   1   7
BRANCH   1  17
HETATM   17  C7  UNL     1       4.554  -6.499   2.474  1.00  0.00     0.197 C
HETATM   18  O1  UNL     1       4.385  -5.470   1.773  1.00  0.00    -0.647 OA
HETATM   19  O2  UNL     1       3.577  -6.825   3.363  1.00  0.00    -0.647 OA
ENDBRANCH   1  17
BRANCH   2  20
HETATM   20  N2  UNL     1       7.274  -5.134   2.193  1.00  0.00    -0.294 N
HETATM   21  C9  UNL     1       8.515  -4.510   2.027  1.00  0.00     0.339 C
HETATM   22  O3  UNL     1       9.517  -4.911   1.398  1.00  0.00    -0.245 OA
HETATM   23  N3  UNL     1       8.721  -3.215   2.655  1.00  0.00    -0.258 N
ATOM     24  H3  UNL     1       7.970  -2.788   3.198  1.00  0.00     0.191 HD
ATOM     25  H2  UNL     1       6.604  -4.603   2.749  1.00  0.00     0.172 HD
BRANCH  23  26
HETATM   26  N4  UNL     1       9.923  -2.565   2.518  1.00  0.00    -0.341 N
ATOM     27  H42 UNL     1       9.930  -1.615   2.147  1.00  0.00     0.177 HD
ATOM     28  H41 UNL     1      10.790  -3.030   2.787  1.00  0.00     0.177 HD
ENDBRANCH  23  26
ENDBRANCH   2  20
BRANCH   6  29
HETATM   29  C14 UNL     1       4.237  -8.101   0.549  1.00  0.00     0.249 C
HETATM   30  O7  UNL     1       4.273  -7.552  -0.574  1.00  0.00    -0.271 OA
HETATM   31  N8  UNL     1       3.041  -8.491   1.175  1.00  0.00    -0.310 N
ATOM     32  H8  UNL     1       3.137  -8.935   2.088  1.00  0.00     0.170 HD
BRANCH  31  33
HETATM   33  C15 UNL     1       1.747  -8.345   0.702  1.00  0.00     0.150 C
HETATM   34  N9  UNL     1       1.600  -8.411  -0.625  1.00  0.00    -0.384 N
ATOM     35  H92 UNL     1       2.442  -8.559  -1.182  1.00  0.00     0.157 HD
ATOM     36  H91 UNL     1       0.647  -8.304  -0.972  1.00  0.00     0.157 HD
BRANCH  33  37
HETATM   37  C16 UNL     1       0.536  -8.132   1.505  1.00  0.00     0.314 C
HETATM   38  F1  UNL     1       0.780  -7.949   2.852  1.00  0.00    -0.198 F
HETATM   39 CL1  UNL     1      -0.495  -9.620   1.381  1.00  0.00    -0.058 Cl
HETATM   40 CL2  UNL     1      -0.484  -6.814   0.859  1.00  0.00    -0.058 Cl
ENDBRANCH  33  37
ENDBRANCH  31  33
ENDBRANCH   6  29
BRANCH   5  41
HETATM   41  C10 UNL     1       7.224  -8.990  -0.714  1.00  0.00     0.277 C
BRANCH  41  42
HETATM   42  O4  UNL     1       6.257  -9.794  -1.257  1.00  0.00    -0.373 OA
ATOM     43  H4  UNL     1       6.560 -10.236  -2.042  1.00  0.00     0.212 HD
ENDBRANCH  41  42
BRANCH  41  44
HETATM   44  C11 UNL     1       8.269  -9.912  -0.107  1.00  0.00     0.332 C
BRANCH  44  45
HETATM   45  N7  UNL     1       9.467 -10.009  -0.887  1.00  0.00    -0.061 N
ATOM     46  H73 UNL     1      10.067  -9.199  -0.729  1.00  0.00     0.275 HD
ATOM     47  H72 UNL     1      10.076 -10.743  -0.525  1.00  0.00     0.275 HD
ATOM     48  H71 UNL     1       9.294 -10.141  -1.883  1.00  0.00     0.275 HD
ENDBRANCH  44  45
BRANCH  44  49
HETATM   49  C12 UNL     1       7.648 -11.256   0.013  1.00  0.00     0.209 C
HETATM   50  O5  UNL     1       7.129 -11.615   1.112  1.00  0.00    -0.646 OA
HETATM   51  O6  UNL     1       7.625 -12.134  -1.067  1.00  0.00    -0.646 OA
ENDBRANCH  44  49
ENDBRANCH  41  44
ENDBRANCH   5  41
TORSDOF 13
ENDMDL