MODEL 2
REMARK VINA RESULT: -6.486825275      3.959      8.008
REMARK  18 active torsions:
REMARK  status: ('A' for Active; 'I' for Inactive)
REMARK    1  A    between atoms: C3_4  and  C4_5
REMARK    2  A    between atoms: C4_5  and  O2_14
REMARK    3  A    between atoms: N2_6  and  N3_8
REMARK    4  A    between atoms: N3_8  and  N4_9
REMARK    5  A    between atoms: N3_8  and  O1_12
REMARK    6  A    between atoms: O2_14  and  C5_15
REMARK    7  A    between atoms: C6_16  and  N5_17
REMARK    8  A    between atoms: N5_17  and  C7_19
REMARK    9  A    between atoms: C8_26  and  N10_27
REMARK   10  A    between atoms: C10_32  and  N11_33
REMARK   11  A    between atoms: N11_33  and  C11_36
REMARK   12  A    between atoms: C11_36  and  C12_37
REMARK   13  A    between atoms: C13_40  and  O5_41
REMARK   14  A    between atoms: C13_40  and  C14_43
REMARK   15  A    between atoms: C14_43  and  O7_45
REMARK   16  A    between atoms: O7_45  and  C15_46
REMARK   17  A    between atoms: C15_46  and  C16_47
REMARK   18  A    between atoms: C18_54  and  N13_55
ROOT
HETATM    1  C5  UNL     1      -0.422 -10.489   0.455  1.00  0.00     0.202 C
HETATM    2  C6  UNL     1      -0.529 -11.082   1.812  1.00  0.00     0.163 C
HETATM    3  C8  UNL     1       0.804 -11.258   2.518  1.00  0.00     0.211 C
HETATM    4  C9  UNL     1       1.619  -9.962   2.482  1.00  0.00     0.071 C
HETATM    5  C10 UNL     1       1.851  -9.637   1.046  1.00  0.00     0.235 C
HETATM    6  C13 UNL     1       0.562  -9.383   0.285  1.00  0.00     0.202 C
ENDROOT
BRANCH   1   7
HETATM    7  O2  UNL     1      -0.097 -11.506  -0.476  1.00  0.00    -0.323 OA
BRANCH   7   8
HETATM    8  C4  UNL     1      -1.104 -12.344  -1.052  1.00  0.00     0.174 C
HETATM    9  N2  UNL     1      -2.231 -12.133  -0.602  1.00  0.00    -0.237 N
ATOM     10  H2  UNL     1      -2.224 -11.395   0.101  1.00  0.00     0.193 HD
BRANCH   8  11
HETATM   11  C3  UNL     1      -0.609 -13.266  -2.042  1.00  0.00     0.048 A
HETATM   12  C2  UNL     1       0.138 -12.857  -3.114  1.00  0.00     0.125 A
HETATM   13  N1  UNL     1       0.590 -13.776  -4.026  1.00  0.00    -0.197 N
HETATM   14  C1  UNL     1       1.378 -13.297  -5.144  1.00  0.00     0.174 C
HETATM   15  C18 UNL     1       0.327 -15.087  -3.917  1.00  0.00     0.677 A
HETATM   16  N12 UNL     1      -0.401 -15.519  -2.879  1.00  0.00    -0.201 N
HETATM   17  C17 UNL     1      -0.855 -14.635  -1.972  1.00  0.00     0.123 A
ATOM     18  H12 UNL     1      -0.611 -16.512  -2.778  1.00  0.00     0.183 HD
BRANCH  15  19
HETATM   19  N13 UNL     1       0.791 -15.893  -4.823  1.00  0.00    -0.234 N
ATOM     20 2H13 UNL     1       1.535 -15.621  -5.466  1.00  0.00     0.174 HD
ATOM     21 1H13 UNL     1       0.396 -16.831  -4.893  1.00  0.00     0.174 HD
ENDBRANCH  15  19
ENDBRANCH   8  11
BRANCH   9  22
HETATM   22  N3  UNL     1      -3.452 -12.616  -0.793  1.00  0.00    -0.100 N
BRANCH  22  23
HETATM   23  N4  UNL     1      -4.276 -12.938   0.149  1.00  0.00    -0.303 N
ATOM     24  H42 UNL     1      -3.846 -13.509   0.876  1.00  0.00     0.181 HD
ATOM     25  H41 UNL     1      -5.261 -12.673   0.178  1.00  0.00     0.181 HD
ENDBRANCH  22  23
BRANCH  22  26
HETATM   26  O1  UNL     1      -3.983 -12.807  -2.073  1.00  0.00    -0.254 OA
ATOM     27  H1  UNL     1      -4.822 -12.445  -2.330  1.00  0.00     0.248 HD
ENDBRANCH  22  26
ENDBRANCH   9  22
ENDBRANCH   7   8
ENDBRANCH   1   7
BRANCH   2  28
HETATM   28  N5  UNL     1      -1.469 -10.360   2.654  1.00  0.00    -0.215 N
ATOM     29  H5  UNL     1      -1.098  -9.672   3.309  1.00  0.00     0.178 HD
BRANCH  28  30
HETATM   30  C7  UNL     1      -2.741 -10.541   2.619  1.00  0.00     0.704 A
HETATM   31  N6  UNL     1      -3.646  -9.896   1.861  1.00  0.00    -0.117 N
HETATM   32  N7  UNL     1      -4.837 -10.397   2.141  1.00  0.00     0.006 NA
ATOM     33  H6  UNL     1      -3.449  -9.154   1.189  1.00  0.00     0.202 HD
HETATM   34  N8  UNL     1      -4.670 -11.335   3.059  1.00  0.00     0.006 NA
HETATM   35  N9  UNL     1      -3.391 -11.446   3.372  1.00  0.00    -0.117 N
ATOM     36  H9  UNL     1      -2.979 -12.088   4.049  1.00  0.00     0.202 HD
ENDBRANCH  28  30
ENDBRANCH   2  28
BRANCH   6  37
HETATM   37  O5  UNL     1       0.952  -9.397  -1.077  1.00  0.00    -0.375 OA
ATOM     38  H5  UNL     1       1.887  -9.565  -1.087  1.00  0.00     0.211 HD
ENDBRANCH   6  37
BRANCH   6  39
HETATM   39  C14 UNL     1       0.001  -8.060   0.565  1.00  0.00     0.298 C
HETATM   40  O6  UNL     1       0.691  -7.027   0.772  1.00  0.00    -0.262 OA
BRANCH  39  41
HETATM   41  O7  UNL     1      -1.369  -7.891   0.616  1.00  0.00    -0.310 OA
BRANCH  41  42
HETATM   42  C15 UNL     1      -2.028  -6.939   1.421  1.00  0.00     0.296 C
BRANCH  42  43
HETATM   43  C16 UNL     1      -2.443  -5.801   0.495  1.00  0.00     0.409 C
HETATM   44  F1  UNL     1      -1.504  -4.811   0.482  1.00  0.00    -0.169 F
HETATM   45  F2  UNL     1      -2.609  -6.255  -0.798  1.00  0.00    -0.169 F
HETATM   46  F3  UNL     1      -3.678  -5.325   0.928  1.00  0.00    -0.169 F
ENDBRANCH  42  43
ENDBRANCH  41  42
ENDBRANCH  39  41
ENDBRANCH   6  39
BRANCH   3  47
HETATM   47  N10 UNL     1       0.521 -11.596   3.896  1.00  0.00    -0.073 N
ATOM     48 3H10 UNL     1      -0.050 -10.896   4.369  1.00  0.00     0.274 HD
ATOM     49 2H10 UNL     1      -0.124 -12.380   3.990  1.00  0.00     0.274 HD
ATOM     50 1H10 UNL     1       1.415 -11.759   4.359  1.00  0.00     0.274 HD
ENDBRANCH   3  47
BRANCH   5  51
HETATM   51  N11 UNL     1       2.726  -8.502   0.850  1.00  0.00    -0.058 N
ATOM     52 2H11 UNL     1       2.413  -7.940   0.059  1.00  0.00     0.278 HD
ATOM     53 1H11 UNL     1       2.606  -7.823   1.601  1.00  0.00     0.278 HD
BRANCH  51  54
HETATM   54  C11 UNL     1       4.102  -8.852   0.704  1.00  0.00     0.345 C
BRANCH  54  55
HETATM   55  C12 UNL     1       4.443  -8.773  -0.740  1.00  0.00     0.199 C
HETATM   56  O3  UNL     1       3.745  -8.125  -1.560  1.00  0.00    -0.647 OA
HETATM   57  O4  UNL     1       5.565  -9.422  -1.235  1.00  0.00    -0.647 OA
ENDBRANCH  54  55
ENDBRANCH  51  54
ENDBRANCH   5  51
TORSDOF 18
ENDMDL