MODEL 2
REMARK VINA RESULT: -6.724083145      2.522      4.138
REMARK  9 active torsions:
REMARK  status: ('A' for Active; 'I' for Inactive)
REMARK    1  A    between atoms: C4_7  and  C5_8
REMARK    2  A    between atoms: C5_8  and  C6_11
REMARK    3  A    between atoms: C6_11  and  C7_14
REMARK    4  A    between atoms: C8_15  and  C9_16
REMARK    5  A    between atoms: C9_16  and  C10_17
REMARK    6  A    between atoms: C10_17  and  C11_18
REMARK    7  A    between atoms: C11_18  and  O2_19
REMARK    8  A    between atoms: O2_19  and  N2_20
REMARK    9  A    between atoms: N9_42  and  N10_43
ROOT
HETATM    1  C1  UNL     1       7.868  -7.035   1.669  1.00  0.00     0.042 C
HETATM    2  C2  UNL     1       7.668  -5.871   2.605  1.00  0.00     0.174 C
HETATM    3  N1  UNL     1       6.358  -5.290   2.485  1.00  0.00    -0.346 N
ATOM      4  H1  UNL     1       6.332  -4.340   2.114  1.00  0.00     0.163 HD
HETATM    5  C3  UNL     1       5.138  -5.833   2.798  1.00  0.00     0.247 C
HETATM    6  O1  UNL     1       4.087  -5.232   2.340  1.00  0.00    -0.271 OA
HETATM    7  C4  UNL     1       4.771  -7.030   3.612  1.00  0.00     0.256 C
HETATM    8  N5  UNL     1       4.475  -6.567   4.937  1.00  0.00    -0.346 N
ATOM      9  H5  UNL     1       4.039  -5.645   4.900  1.00  0.00     0.163 HD
HETATM   10  C13 UNL     1       4.586  -6.940   6.108  1.00  0.00     0.184 C
HETATM   11  N6  UNL     1       4.095  -6.082   7.191  1.00  0.00    -0.064 NA
HETATM   12  N7  UNL     1       5.167  -8.166   6.524  1.00  0.00    -0.363 N
ATOM     13  H7  UNL     1       4.576  -8.795   7.068  1.00  0.00     0.162 HD
HETATM   14  C14 UNL     1       6.533  -8.614   6.248  1.00  0.00     0.148 C
HETATM   15  C15 UNL     1       7.500  -7.583   6.737  1.00  0.00     0.187 C
HETATM   16  O3  UNL     1       8.713  -8.023   7.189  1.00  0.00    -0.387 OA
HETATM   17  C16 UNL     1       9.199  -6.995   8.038  1.00  0.00     0.193 C
HETATM   18  C17 UNL     1       8.917  -5.686   7.323  1.00  0.00     0.193 C
HETATM   19  O4  UNL     1       9.671  -4.626   7.853  1.00  0.00    -0.387 OA
HETATM   20  C18 UNL     1       8.984  -3.430   7.591  1.00  0.00     0.187 C
HETATM   21  C19 UNL     1       9.543  -2.699   6.400  1.00  0.00     0.141 C
HETATM   22  N8  UNL     1       9.605  -3.493   5.218  1.00  0.00    -0.402 N
ATOM     23  H8  UNL     1      10.428  -4.040   4.966  1.00  0.00     0.154 HD
HETATM   24  C20 UNL     1       8.410  -3.464   4.403  1.00  0.00     0.268 C
HETATM   25  N9  UNL     1       8.760  -3.598   2.983  1.00  0.00    -0.248 N
HETATM   26  C21 UNL     1       8.725  -4.860   2.304  1.00  0.00     0.261 C
HETATM   27  O5  UNL     1       9.628  -5.057   1.452  1.00  0.00    -0.269 OA
ENDROOT
BRANCH   7  28
HETATM   28  C5  UNL     1       3.527  -7.619   3.087  1.00  0.00     0.340 C
HETATM   29  F1  UNL     1       3.514  -8.875   3.960  1.00  0.00    -0.196 F
HETATM   30  F2  UNL     1       2.453  -6.968   3.716  1.00  0.00    -0.196 F
BRANCH  28  31
HETATM   31  C6  UNL     1       3.177  -8.219   1.815  1.00  0.00     0.328 C
HETATM   32  F3  UNL     1       2.652  -7.506   0.846  1.00  0.00    -0.195 F
HETATM   33  F4  UNL     1       1.987  -9.097   2.103  1.00  0.00    -0.195 F
BRANCH  31  34
HETATM   34  C7  UNL     1       4.151  -9.310   1.497  1.00  0.00     0.053 C
HETATM   35  C8  UNL     1       5.237  -9.216   0.629  1.00  0.00    -0.024 C
BRANCH  35  36
HETATM   36  C9  UNL     1       5.147  -8.597  -0.769  1.00  0.00     0.029 C
BRANCH  36  37
HETATM   37  C10 UNL     1       6.147  -9.376  -1.501  1.00  0.00     0.032 C
BRANCH  37  38
HETATM   38  C11 UNL     1       7.035  -8.983  -2.621  1.00  0.00     0.201 C
BRANCH  38  39
HETATM   39  O2  UNL     1       8.280  -8.864  -1.838  1.00  0.00    -0.278 OA
BRANCH  39  40
HETATM   40  N2  UNL     1       8.612  -9.436  -0.742  1.00  0.00    -0.241 N
HETATM   41  C12 UNL     1       9.635 -10.018  -0.336  1.00  0.00     0.221 C
HETATM   42  N3  UNL     1       9.672 -10.540   1.021  1.00  0.00    -0.065 NA
HETATM   43  N4  UNL     1      10.792 -10.265  -1.091  1.00  0.00    -0.065 NA
ATOM     44  H2  UNL     1       7.870  -9.408  -0.042  1.00  0.00     0.196 HD
ENDBRANCH  39  40
ENDBRANCH  38  39
ENDBRANCH  37  38
ENDBRANCH  36  37
ENDBRANCH  35  36
ENDBRANCH  31  34
ENDBRANCH  28  31
ENDBRANCH   7  28
BRANCH  25  45
HETATM   45  N10 UNL     1       9.139  -2.443   2.287  1.00  0.00    -0.339 N
ATOM     46 2H10 UNL     1       9.356  -1.589   2.801  1.00  0.00     0.177 HD
ATOM     47 1H10 UNL     1       9.186  -2.492   1.270  1.00  0.00     0.177 HD
ENDBRANCH  25  45
TORSDOF 9
ENDMDL