MODEL 3
REMARK VINA RESULT: -6.050344983      1.371      1.620
REMARK  13 active torsions:
REMARK  status: ('A' for Active; 'I' for Inactive)
REMARK    1  A    between atoms: C7_10  and  N2_11
REMARK    2  A    between atoms: C11_22  and  N6_23
REMARK    3  A    between atoms: N6_23  and  C12_24
REMARK    4  A    between atoms: C12_24  and  C13_25
REMARK    5  A    between atoms: C13_25  and  N7_26
REMARK    6  A    between atoms: C13_25  and  C14_30
REMARK    7  A    between atoms: C14_30  and  N8_31
REMARK    8  A    between atoms: N8_31  and  C15_34
REMARK    9  A    between atoms: C15_34  and  O1_35
REMARK   10  A    between atoms: C15_34  and  C16_37
REMARK   11  A    between atoms: C16_37  and  O3_39
REMARK   12  A    between atoms: O3_39  and  S1_40
REMARK   13  A    between atoms: C18_47  and  N10_48
ROOT
HETATM    1  N2  UNL     1       5.826  -8.255  -0.256  1.00  0.00    -0.190 N
ATOM      2  H2  UNL     1       5.901  -8.338  -1.270  1.00  0.00     0.184 HD
HETATM    3  C8  UNL     1       4.634  -8.231   0.160  1.00  0.00     0.685 A
HETATM    4  N3  UNL     1       3.598  -8.312  -0.740  1.00  0.00    -0.174 N
ATOM      5  H3  UNL     1       3.693  -8.397  -1.752  1.00  0.00     0.186 HD
HETATM    6  C9  UNL     1       2.450  -8.260  -0.067  1.00  0.00     0.154 A
HETATM    7  N4  UNL     1       1.157  -8.297  -0.482  1.00  0.00    -0.336 N
ATOM      8  H4  UNL     1       0.951  -8.386  -1.477  1.00  0.00     0.168 HD
HETATM    9  C10 UNL     1       0.147  -8.220   0.395  1.00  0.00     0.184 A
HETATM   10  N5  UNL     1       0.390  -8.107   1.693  1.00  0.00    -0.325 N
ATOM     11  H5  UNL     1      -0.398  -8.050   2.339  1.00  0.00     0.169 HD
HETATM   12  C11 UNL     1       1.667  -8.063   2.198  1.00  0.00     0.210 A
HETATM   13  C17 UNL     1       2.717  -8.144   1.272  1.00  0.00     0.151 A
HETATM   14  N9  UNL     1       4.064  -8.129   1.371  1.00  0.00    -0.183 N
ATOM     15  H9  UNL     1       4.579  -8.051   2.248  1.00  0.00     0.184 HD
ENDROOT
BRANCH  12  16
HETATM   16  N6  UNL     1       1.819  -7.943   3.369  1.00  0.00    -0.399 NA
BRANCH  16  17
HETATM   17  C12 UNL     1       1.986  -7.813   4.693  1.00  0.00     0.192 C
BRANCH  17  18
HETATM   18  C13 UNL     1       3.383  -7.431   5.165  1.00  0.00     0.260 C
BRANCH  18  19
HETATM   19  N7  UNL     1       4.390  -8.387   4.843  1.00  0.00    -0.068 N
ATOM     20  H73 UNL     1       4.366  -8.611   3.848  1.00  0.00     0.275 HD
ATOM     21  H72 UNL     1       5.317  -7.964   4.903  1.00  0.00     0.275 HD
ATOM     22  H71 UNL     1       4.350  -9.240   5.401  1.00  0.00     0.275 HD
ENDBRANCH  18  19
BRANCH  18  23
HETATM   23  C14 UNL     1       3.762  -6.016   4.832  1.00  0.00     0.275 C
BRANCH  23  24
HETATM   24  N8  UNL     1       4.929  -6.034   3.970  1.00  0.00    -0.037 N
ATOM     25  H82 UNL     1       5.790  -6.234   4.480  1.00  0.00     0.280 HD
ATOM     26  H81 UNL     1       4.944  -6.842   3.349  1.00  0.00     0.280 HD
BRANCH  24  27
HETATM   27  C15 UNL     1       4.989  -4.796   3.260  1.00  0.00     0.420 C
BRANCH  27  28
HETATM   28  O1  UNL     1       4.957  -4.957   1.900  1.00  0.00    -0.362 OA
ATOM     29  H1  UNL     1       5.014  -5.866   1.632  1.00  0.00     0.212 HD
ENDBRANCH  27  28
BRANCH  27  30
HETATM   30  C16 UNL     1       6.217  -4.053   3.730  1.00  0.00     0.331 C
HETATM   31  O2  UNL     1       7.319  -4.147   3.116  1.00  0.00    -0.259 OA
BRANCH  30  32
HETATM   32  O3  UNL     1       6.065  -3.299   4.825  1.00  0.00    -0.175 OA
BRANCH  32  33
HETATM   33  S1  UNL     1       7.374  -3.152   6.176  1.00  0.00     0.399 S
HETATM   34  O4  UNL     1       8.057  -2.110   7.122  1.00  0.00    -0.174 OA
HETATM   35  F1  UNL     1       6.576  -3.993   7.178  1.00  0.00    -0.090 F
HETATM   36  F2  UNL     1       6.166  -1.118   5.953  1.00  0.00    -0.090 F
ENDBRANCH  32  33
ENDBRANCH  30  32
ENDBRANCH  27  30
ENDBRANCH  24  27
ENDBRANCH  23  24
ENDBRANCH  18  23
ENDBRANCH  17  18
ENDBRANCH  16  17
ENDBRANCH  12  16
BRANCH   1  37
HETATM   37  C7  UNL     1       7.050  -8.193   0.382  1.00  0.00     0.090 A
HETATM   38  C6  UNL     1       8.064  -9.044   0.108  1.00  0.00     0.045 A
HETATM   39  C1  UNL     1       8.161 -10.106  -0.788  1.00  0.00     0.082 A
HETATM   40  C5  UNL     1       9.149  -8.729   0.880  1.00  0.00     0.066 A
HETATM   41  N1  UNL     1       7.048 -10.452  -1.606  1.00  0.00    -0.100 NA
HETATM   42  C2  UNL     1       9.337 -10.828  -0.893  1.00  0.00     0.060 A
HETATM   43 CL1  UNL     1       9.522 -12.163  -1.998  1.00  0.00    -0.082 Cl
HETATM   44  C3  UNL     1      10.427 -10.494  -0.101  1.00  0.00     0.052 A
HETATM   45  C4  UNL     1      10.331  -9.446   0.784  1.00  0.00     0.063 A
HETATM   46 CL2  UNL     1      11.710  -9.040   1.784  1.00  0.00    -0.082 Cl
HETATM   47  N11 UNL     1       8.901  -7.732   1.647  1.00  0.00    -0.356 N
HETATM   48  C18 UNL     1       7.547  -7.280   1.434  1.00  0.00     0.334 A
ATOM     49  H11 UNL     1       9.560  -7.320   2.307  1.00  0.00     0.162 HD
BRANCH  48  50
HETATM   50  N10 UNL     1       7.608  -5.956   0.862  1.00  0.00    -0.053 N
ATOM     51 3H10 UNL     1       7.094  -5.877  -0.015  1.00  0.00     0.277 HD
ATOM     52 2H10 UNL     1       7.074  -5.268   1.393  1.00  0.00     0.277 HD
ATOM     53 1H10 UNL     1       8.594  -5.709   0.769  1.00  0.00     0.277 HD
ENDBRANCH  48  50
ENDBRANCH   1  37
TORSDOF 13
ENDMDL