MODEL 1
REMARK VINA RESULT: -7.784009188      0.000      0.000
REMARK  14 active torsions:
REMARK  status: ('A' for Active; 'I' for Inactive)
REMARK    1  A    between atoms: C2_2  and  N1_3
REMARK    2  A    between atoms: C4_8  and  N3_9
REMARK    3  A    between atoms: N3_9  and  C5_11
REMARK    4  A    between atoms: C5_11  and  C6_12
REMARK    5  A    between atoms: C7_18  and  N5_19
REMARK    6  A    between atoms: N5_19  and  C8_20
REMARK    7  A    between atoms: C9_21  and  N6_22
REMARK    8  A    between atoms: C12_28  and  C13_29
REMARK    9  A    between atoms: C12_28  and  N7_32
REMARK   10  A    between atoms: C16_34  and  C17_35
REMARK   11  A    between atoms: C17_35  and  N8_36
REMARK   12  A    between atoms: N8_36  and  C18_38
REMARK   13  A    between atoms: C19_44  and  N11_45
REMARK   14  A    between atoms: C20_52  and  O3_53
ROOT
HETATM    1  C8  UNL     1       5.600  -6.948   2.320  1.00  0.00     0.237 C
HETATM    2  C9  UNL     1       6.207  -8.302   2.218  1.00  0.00     0.295 C
HETATM    3  C11 UNL     1       5.286  -9.072   1.357  1.00  0.00     0.197 C
HETATM    4  O1  UNL     1       5.092 -10.256   1.437  1.00  0.00    -0.292 OA
HETATM    5  C12 UNL     1       4.692  -8.111   0.425  1.00  0.00     0.165 C
HETATM    6  C20 UNL     1       4.904  -6.761   0.955  1.00  0.00     0.198 C
ENDROOT
BRANCH   5   7
HETATM    7  C13 UNL     1       5.240  -8.377  -0.927  1.00  0.00     0.046 C
HETATM    8  C14 UNL     1       6.311  -9.040  -1.252  1.00  0.00     0.187 C
HETATM    9  F4  UNL     1       6.692  -9.203  -2.525  1.00  0.00    -0.220 F
ENDBRANCH   5   7
BRANCH   5  10
HETATM   10  N7  UNL     1       3.245  -8.324   0.273  1.00  0.00    -0.263 N
HETATM   11  C15 UNL     1       2.299  -8.402   1.211  1.00  0.00     0.145 A
HETATM   12  C16 UNL     1       1.119  -8.641   0.545  1.00  0.00     0.082 A
HETATM   13  N12 UNL     1       1.429  -8.692  -0.781  1.00  0.00    -0.284 N
HETATM   14  N13 UNL     1       2.706  -8.503  -0.934  1.00  0.00    -0.239 N
ATOM     15  H12 UNL     1       0.763  -8.854  -1.536  1.00  0.00     0.188 HD
ATOM     16  H13 UNL     1       3.208  -8.494  -1.821  1.00  0.00     0.208 HD
BRANCH  12  17
HETATM   17  C17 UNL     1      -0.247  -8.771   1.086  1.00  0.00     0.122 C
BRANCH  17  18
HETATM   18  N8  UNL     1      -0.848  -7.592   1.497  1.00  0.00    -0.345 N
ATOM     19  H8  UNL     1      -0.462  -7.330   2.405  1.00  0.00     0.167 HD
BRANCH  18  20
HETATM   20  C18 UNL     1      -1.679  -6.746   1.165  1.00  0.00     0.173 A
HETATM   21  N9  UNL     1      -1.570  -5.633   0.416  1.00  0.00    -0.222 N
HETATM   22  O2  UNL     1      -2.749  -5.074   0.331  1.00  0.00    -0.153 OA
ATOM     23  H9  UNL     1      -0.713  -5.285  -0.014  1.00  0.00     0.198 HD
HETATM   24  N10 UNL     1      -3.631  -5.776   0.998  1.00  0.00    -0.222 N
HETATM   25  C19 UNL     1      -3.050  -6.822   1.542  1.00  0.00     0.167 A
ATOM     26  H10 UNL     1      -4.620  -5.545   1.083  1.00  0.00     0.198 HD
BRANCH  25  27
HETATM   27  N11 UNL     1      -3.615  -7.721   2.261  1.00  0.00    -0.381 N
ATOM     28 2H11 UNL     1      -4.167  -7.564   3.103  1.00  0.00     0.157 HD
ATOM     29 1H11 UNL     1      -3.611  -8.730   2.113  1.00  0.00     0.157 HD
ENDBRANCH  25  27
ENDBRANCH  18  20
ENDBRANCH  17  18
ENDBRANCH  12  17
ENDBRANCH   5  10
BRANCH   6  30
HETATM   30  O3  UNL     1       5.742  -5.924   0.244  1.00  0.00    -0.389 OA
ATOM     31  H3  UNL     1       5.428  -5.971  -0.651  1.00  0.00     0.210 HD
ENDBRANCH   6  30
BRANCH   2  32
HETATM   32  N6  UNL     1       6.353  -8.973   3.501  1.00  0.00    -0.065 N
HETATM   33  C10 UNL     1       7.751  -9.050   3.842  1.00  0.00     0.268 C
ATOM     34  H62 UNL     1       5.799  -8.529   4.234  1.00  0.00     0.277 HD
ATOM     35  H61 UNL     1       5.901  -9.887   3.513  1.00  0.00     0.277 HD
ENDBRANCH   2  32
BRANCH   1  36
HETATM   36  N5  UNL     1       6.326  -5.866   2.703  1.00  0.00    -0.404 NA
BRANCH  36  37
HETATM   37  C7  UNL     1       6.945  -5.038   3.275  1.00  0.00     0.283 A
HETATM   38  N4  UNL     1       7.829  -4.245   2.583  1.00  0.00    -0.148 N
HETATM   39  C4  UNL     1       8.563  -3.287   3.176  1.00  0.00     0.696 A
ATOM     40  H4  UNL     1       7.933  -4.390   1.579  1.00  0.00     0.188 HD
HETATM   41  N2  UNL     1       8.422  -3.104   4.496  1.00  0.00    -0.022 N
HETATM   42  C3  UNL     1       7.554  -3.866   5.245  1.00  0.00     0.696 A
ATOM     43  H2  UNL     1       8.972  -2.380   4.958  1.00  0.00     0.203 HD
HETATM   44  N1  UNL     1       7.471  -3.632   6.465  1.00  0.00    -0.226 N
HETATM   45  N14 UNL     1       6.849  -4.803   4.597  1.00  0.00    -0.148 N
ATOM     46  H1  UNL     1       8.079  -2.876   6.777  1.00  0.00     0.177 HD
ATOM     47  H14 UNL     1       6.199  -5.374   5.138  1.00  0.00     0.188 HD
BRANCH  39  48
HETATM   48  N3  UNL     1       9.398  -2.548   2.506  1.00  0.00    -0.217 N
ATOM     49  H3  UNL     1       9.024  -1.736   2.014  1.00  0.00     0.178 HD
BRANCH  48  50
HETATM   50  C5  UNL     1      10.802  -2.792   2.412  1.00  0.00     0.255 C
BRANCH  50  51
HETATM   51  C6  UNL     1      11.159  -3.792   1.324  1.00  0.00     0.403 C
HETATM   52  F1  UNL     1      12.354  -3.417   0.714  1.00  0.00    -0.169 F
HETATM   53  F2  UNL     1      11.203  -5.076   1.811  1.00  0.00    -0.169 F
HETATM   54  F3  UNL     1      10.204  -3.768   0.329  1.00  0.00    -0.169 F
ENDBRANCH  50  51
ENDBRANCH  48  50
ENDBRANCH  39  48
BRANCH  44  55
HETATM   55  C2  UNL     1       6.705  -4.202   7.503  1.00  0.00     0.133 C
HETATM   56  C1  UNL     1       7.071  -3.818   8.892  1.00  0.00     0.027 C
ENDBRANCH  44  55
ENDBRANCH  36  37
ENDBRANCH   1  36
TORSDOF 14
ENDMDL