MODEL 5
REMARK VINA RESULT: -7.180096757      1.621      2.266
REMARK  11 active torsions:
REMARK  status: ('A' for Active; 'I' for Inactive)
REMARK       I    between atoms: C1_2  and  N3_4
REMARK    1  A    between atoms: N3_4  and  N4_6
REMARK    2  A    between atoms: N4_6  and  C2_8
REMARK    3  A    between atoms: C2_8  and  C3_9
REMARK    4  A    between atoms: C2_8  and  C10_22
REMARK    5  A    between atoms: C3_9  and  N5_10
REMARK    6  A    between atoms: C10_22  and  C11_25
REMARK    7  A    between atoms: C11_25  and  C12_28
REMARK    8  A    between atoms: C12_28  and  O2_29
REMARK    9  A    between atoms: C12_28  and  C13_31
REMARK   10  A    between atoms: C13_31  and  O3_32
REMARK   11  A    between atoms: C13_31  and  C14_34
ROOT
HETATM    1  C11 UNL     1      -5.256 -11.178   0.635  1.00  0.00     0.341 C
HETATM    2  F3  UNL     1      -6.197 -12.173   0.970  1.00  0.00    -0.196 F
HETATM    3  F4  UNL     1      -5.852  -9.967   0.604  1.00  0.00    -0.196 F
ENDROOT
BRANCH   1   4
HETATM    4  C10 UNL     1      -4.163 -11.345   1.662  1.00  0.00     0.355 C
HETATM    5  F1  UNL     1      -4.142 -12.702   1.966  1.00  0.00    -0.192 F
HETATM    6  F2  UNL     1      -2.933 -10.938   1.179  1.00  0.00    -0.192 F
BRANCH   4   7
HETATM    7  C2  UNL     1      -4.468 -10.588   2.883  1.00  0.00     0.119 C
BRANCH   7   8
HETATM    8  N4  UNL     1      -5.480 -11.006   3.564  1.00  0.00    -0.295 N
ATOM      9  H4  UNL     1      -5.772 -11.962   3.364  1.00  0.00     0.187 HD
BRANCH   8  10
HETATM   10  N3  UNL     1      -6.220 -10.361   4.512  1.00  0.00    -0.276 N
HETATM   11  C1  UNL     1      -7.374  -9.832   4.316  1.00  0.00     0.215 C
HETATM   12  N1  UNL     1      -8.043  -9.192   5.373  1.00  0.00    -0.065 NA
HETATM   13  N2  UNL     1      -7.971  -9.898   3.041  1.00  0.00    -0.065 NA
ATOM     14  H3  UNL     1      -5.825 -10.294   5.450  1.00  0.00     0.189 HD
ENDBRANCH   8  10
ENDBRANCH   7   8
BRANCH   7  15
HETATM   15  C3  UNL     1      -3.758  -9.411   3.341  1.00  0.00     0.132 C
BRANCH  15  16
HETATM   16  N5  UNL     1      -3.946  -8.185   2.639  1.00  0.00    -0.300 N
HETATM   17  C4  UNL     1      -5.077  -7.465   2.596  1.00  0.00     0.190 A
HETATM   18  N6  UNL     1      -4.846  -6.374   1.863  1.00  0.00    -0.349 N
HETATM   19  C5  UNL     1      -3.576  -6.372   1.425  1.00  0.00     0.078 A
ATOM     20  H6  UNL     1      -5.534  -5.647   1.664  1.00  0.00     0.167 HD
HETATM   21  C6  UNL     1      -2.813  -5.525   0.654  1.00  0.00     0.039 A
HETATM   22  C9  UNL     1      -2.993  -7.540   1.926  1.00  0.00     0.142 A
HETATM   23  C7  UNL     1      -1.495  -5.775   0.351  1.00  0.00     0.077 A
HETATM   24  C8  UNL     1      -0.953  -6.929   0.858  1.00  0.00     0.246 A
HETATM   25  O1  UNL     1       0.239  -7.192   0.607  1.00  0.00    -0.268 OA
HETATM   26  N7  UNL     1      -1.696  -7.769   1.618  1.00  0.00    -0.307 N
ATOM     27  H7  UNL     1      -1.254  -8.617   1.975  1.00  0.00     0.170 HD
ENDBRANCH  15  16
ENDBRANCH   7  15
ENDBRANCH   4   7
ENDBRANCH   1   4
BRANCH   1  28
HETATM   28  C12 UNL     1      -4.745 -11.527  -0.751  1.00  0.00     0.230 C
BRANCH  28  29
HETATM   29  O2  UNL     1      -5.477 -10.744  -1.705  1.00  0.00    -0.387 OA
ATOM     30  H2  UNL     1      -4.928 -10.016  -1.972  1.00  0.00     0.210 HD
ENDBRANCH  28  29
BRANCH  28  31
HETATM   31  C13 UNL     1      -4.991 -12.934  -1.174  1.00  0.00     0.202 C
BRANCH  31  32
HETATM   32  O3  UNL     1      -5.787 -12.858  -2.334  1.00  0.00    -0.388 OA
ATOM     33  H3  UNL     1      -6.436 -13.547  -2.252  1.00  0.00     0.210 HD
ENDBRANCH  31  32
BRANCH  31  34
HETATM   34  C14 UNL     1      -3.747 -13.753  -1.458  1.00  0.00     0.262 C
HETATM   35  N8  UNL     1      -3.751 -14.027  -2.843  1.00  0.00    -0.368 N
HETATM   36  C15 UNL     1      -2.763 -14.845  -3.410  1.00  0.00     0.116 C
ATOM     37  H8  UNL     1      -4.479 -13.627  -3.435  1.00  0.00     0.161 HD
HETATM   38  C16 UNL     1      -1.458 -14.189  -3.635  1.00  0.00     0.073 A
HETATM   39  N9  UNL     1      -0.786 -14.597  -4.734  1.00  0.00    -0.306 N
HETATM   40  C19 UNL     1      -0.925 -13.220  -2.811  1.00  0.00     0.135 A
HETATM   41  C17 UNL     1       0.408 -14.032  -4.990  1.00  0.00     0.327 A
ATOM     42  H9  UNL     1      -1.172 -15.312  -5.350  1.00  0.00     0.171 HD
HETATM   43  O4  UNL     1       1.065 -14.403  -6.026  1.00  0.00    -0.247 OA
HETATM   44  N10 UNL     1       0.936 -13.088  -4.192  1.00  0.00    -0.275 N
HETATM   45  C18 UNL     1       0.308 -12.639  -3.079  1.00  0.00     0.268 A
ATOM     46  H10 UNL     1       1.845 -12.694  -4.434  1.00  0.00     0.173 HD
HETATM   47  O5  UNL     1       0.770 -11.771  -2.326  1.00  0.00    -0.267 OA
HETATM   48  C20 UNL     1      -1.506 -12.661  -1.588  1.00  0.00     0.303 C
HETATM   49  O6  UNL     1      -0.976 -11.613  -1.133  1.00  0.00    -0.259 OA
HETATM   50  O7  UNL     1      -2.588 -13.213  -0.916  1.00  0.00    -0.288 OA
ENDBRANCH  31  34
ENDBRANCH  28  31
ENDBRANCH   1  28
TORSDOF 11
ENDMDL