MODEL 3
REMARK VINA RESULT: -6.891162891      2.651      5.492
REMARK  14 active torsions:
REMARK  status: ('A' for Active; 'I' for Inactive)
REMARK    1  A    between atoms: C1_4  and  C2_6
REMARK       I    between atoms: C2_6  and  N3_8
REMARK    2  A    between atoms: N3_8  and  C3_10
REMARK    3  A    between atoms: C3_10  and  C4_11
REMARK    4  A    between atoms: C4_11  and  N4_12
REMARK    5  A    between atoms: C4_11  and  C21_49
REMARK    6  A    between atoms: N4_12  and  C5_13
REMARK    7  A    between atoms: C7_18  and  N6_19
REMARK    8  A    between atoms: N8_24  and  C8_25
REMARK    9  A    between atoms: C8_25  and  C9_26
REMARK   10  A    between atoms: N9_31  and  C13_32
REMARK   11  A    between atoms: C13_32  and  C14_33
REMARK   12  A    between atoms: C14_33  and  C15_35
REMARK   13  A    between atoms: C15_35  and  O5_36
REMARK   14  A    between atoms: C15_35  and  C16_38
ROOT
HETATM    1  C5  UNL     1       5.127  -8.663  -0.077  1.00  0.00     0.261 A
HETATM    2  C6  UNL     1       4.475  -8.691  -1.335  1.00  0.00     0.319 A
HETATM    3  O2  UNL     1       5.227  -8.799  -2.373  1.00  0.00    -0.262 OA
HETATM    4  N5  UNL     1       3.159  -8.610  -1.457  1.00  0.00    -0.151 N
ATOM      5  H5  UNL     1       2.728  -8.633  -2.381  1.00  0.00     0.188 HD
HETATM    6  C7  UNL     1       2.392  -8.496  -0.360  1.00  0.00     0.693 A
HETATM    7  N7  UNL     1       3.006  -8.467   0.829  1.00  0.00    -0.127 N
ATOM      8  H7  UNL     1       2.420  -8.380   1.660  1.00  0.00     0.206 HD
HETATM    9  N8  UNL     1       4.318  -8.543   1.011  1.00  0.00    -0.242 N
ENDROOT
BRANCH   9  10
HETATM   10  C8  UNL     1       4.857  -8.410   2.349  1.00  0.00     0.194 C
BRANCH  10  11
HETATM   11  C9  UNL     1       5.289  -7.045   2.718  1.00  0.00     0.001 A
HETATM   12  C10 UNL     1       6.625  -6.909   3.168  1.00  0.00     0.031 A
HETATM   13  C11 UNL     1       7.145  -5.724   3.565  1.00  0.00     0.060 A
HETATM   14  C12 UNL     1       8.460  -5.594   4.008  1.00  0.00     0.261 A
HETATM   15  C18 UNL     1       6.382  -4.579   3.544  1.00  0.00     0.051 A
HETATM   16  O3  UNL     1       9.154  -6.642   4.025  1.00  0.00    -0.267 OA
HETATM   17  N9  UNL     1       8.917  -4.398   4.385  1.00  0.00    -0.303 N
HETATM   18  C17 UNL     1       8.149  -3.298   4.354  1.00  0.00     0.187 A
HETATM   19  N10 UNL     1       6.886  -3.372   3.939  1.00  0.00    -0.351 N
ATOM     20  H10 UNL     1       6.302  -2.536   3.915  1.00  0.00     0.166 HD
HETATM   21  C19 UNL     1       5.082  -4.670   3.113  1.00  0.00     0.073 A
HETATM   22  C20 UNL     1       4.552  -5.909   2.703  1.00  0.00     0.126 A
HETATM   23  F4  UNL     1       3.255  -5.889   2.263  1.00  0.00    -0.205 F
BRANCH  17  24
HETATM   24  C13 UNL     1      10.307  -4.280   4.850  1.00  0.00     0.214 C
BRANCH  24  25
HETATM   25  C14 UNL     1      11.061  -3.437   3.892  1.00  0.00     0.182 C
HETATM   26  O4  UNL     1      11.206  -2.234   4.096  1.00  0.00    -0.293 OA
BRANCH  25  27
HETATM   27  C15 UNL     1      11.656  -4.017   2.676  1.00  0.00     0.296 C
BRANCH  27  28
HETATM   28  O5  UNL     1      12.852  -3.323   2.381  1.00  0.00    -0.379 OA
ATOM     29  H5  UNL     1      13.444  -3.914   1.930  1.00  0.00     0.210 HD
ENDBRANCH  27  28
BRANCH  27  30
HETATM   30  C16 UNL     1      10.738  -3.991   1.484  1.00  0.00     0.420 C
HETATM   31  F1  UNL     1       9.893  -2.894   1.523  1.00  0.00    -0.168 F
HETATM   32  F2  UNL     1      10.055  -5.157   1.364  1.00  0.00    -0.168 F
HETATM   33  F3  UNL     1      11.583  -3.902   0.365  1.00  0.00    -0.168 F
ENDBRANCH  27  30
ENDBRANCH  25  27
ENDBRANCH  24  25
ENDBRANCH  17  24
ENDBRANCH  10  11
ENDBRANCH   9  10
BRANCH   1  34
HETATM   34  N4  UNL     1       6.316  -8.811  -0.023  1.00  0.00    -0.406 NA
BRANCH  34  35
HETATM   35  C4  UNL     1       7.654  -8.949  -0.108  1.00  0.00     0.283 C
BRANCH  35  36
HETATM   36  C3  UNL     1       8.172  -9.483  -1.434  1.00  0.00     0.173 C
BRANCH  36  37
HETATM   37  N3  UNL     1       7.613 -10.760  -1.740  1.00  0.00    -0.351 N
HETATM   38  C2  UNL     1       8.487 -11.856  -1.962  1.00  0.00     0.282 C
HETATM   39  O1  UNL     1       9.752 -11.674  -1.882  1.00  0.00    -0.265 OA
ATOM     40  H3  UNL     1       6.603 -10.883  -1.798  1.00  0.00     0.162 HD
BRANCH  38  41
HETATM   41  C1  UNL     1       8.045 -13.203  -2.281  1.00  0.00     0.178 C
HETATM   42  N1  UNL     1       8.203 -13.657  -3.459  1.00  0.00    -0.383 N
ATOM     43  H12 UNL     1       7.892 -14.603  -3.682  1.00  0.00     0.157 HD
ATOM     44  H11 UNL     1       8.641 -13.066  -4.165  1.00  0.00     0.157 HD
HETATM   45  N2  UNL     1       7.438 -14.021  -1.303  1.00  0.00    -0.077 NA
ENDBRANCH  38  41
ENDBRANCH  36  37
ENDBRANCH  35  36
BRANCH  35  46
HETATM   46  C21 UNL     1       8.208  -9.815   1.005  1.00  0.00     0.212 C
HETATM   47  O6  UNL     1       7.810 -10.924   1.352  1.00  0.00    -0.646 OA
HETATM   48  O7  UNL     1       9.302  -9.299   1.733  1.00  0.00    -0.646 OA
ENDBRANCH  35  46
ENDBRANCH  34  35
ENDBRANCH   1  34
BRANCH   6  49
HETATM   49  N6  UNL     1       1.111  -8.419  -0.476  1.00  0.00    -0.233 N
ATOM     50  H62 UNL     1       0.548  -9.194  -0.828  1.00  0.00     0.174 HD
ATOM     51  H61 UNL     1       0.627  -7.561  -0.211  1.00  0.00     0.174 HD
ENDBRANCH   6  49
TORSDOF 14
ENDMDL