MODEL 1
REMARK VINA RESULT: -8.222249310      0.000      0.000
REMARK  8 active torsions:
REMARK  status: ('A' for Active; 'I' for Inactive)
REMARK    1  A    between atoms: C2_3  and  O1_4
REMARK    2  A    between atoms: C4_11  and  N4_12
REMARK    3  A    between atoms: C5_17  and  N6_18
REMARK    4  A    between atoms: N6_18  and  C6_20
REMARK    5  A    between atoms: C6_20  and  C7_21
REMARK    6  A    between atoms: C7_21  and  O2_22
REMARK    7  A    between atoms: C7_21  and  C8_24
REMARK    8  A    between atoms: C8_24  and  N7_25
ROOT
HETATM    1  C1  UNL     1      40.164  33.112  34.812  1.00  0.00     0.163 C
HETATM    2  N1  UNL     1      39.954  34.243  35.706  1.00  0.00    -0.283 N
HETATM    3  C2  UNL     1      40.289  34.223  37.001  1.00  0.00     0.227 A
HETATM    4  N2  UNL     1      40.113  35.240  37.854  1.00  0.00    -0.307 N
ATOM      5  H2  UNL     1      40.396  35.148  38.830  1.00  0.00     0.171 HD
HETATM    6  C3  UNL     1      39.554  36.397  37.408  1.00  0.00     0.143 A
HETATM    7  N3  UNL     1      39.349  37.450  38.206  1.00  0.00    -0.176 N
ATOM      8  H3  UNL     1      39.621  37.386  39.187  1.00  0.00     0.186 HD
HETATM    9  C4  UNL     1      38.797  38.586  37.755  1.00  0.00     0.679 A
HETATM   10  N5  UNL     1      38.449  38.639  36.459  1.00  0.00    -0.176 N
ATOM     11  H5  UNL     1      38.030  39.506  36.123  1.00  0.00     0.186 HD
HETATM   12  C5  UNL     1      38.607  37.645  35.568  1.00  0.00     0.140 A
HETATM   13  C9  UNL     1      39.192  36.468  36.083  1.00  0.00     0.121 A
HETATM   14  C10 UNL     1      39.391  35.396  35.239  1.00  0.00     0.268 A
HETATM   15  O3  UNL     1      39.060  35.467  34.037  1.00  0.00    -0.267 OA
ENDROOT
BRANCH  12  16
HETATM   16  N6  UNL     1      38.315  37.615  34.368  1.00  0.00    -0.352 N
ATOM     17  H6  UNL     1      37.918  36.701  34.153  1.00  0.00     0.166 HD
BRANCH  16  18
HETATM   18  C6  UNL     1      38.332  38.370  33.214  1.00  0.00     0.096 C
BRANCH  18  19
HETATM   19  C7  UNL     1      37.594  37.890  32.007  1.00  0.00     0.178 C
BRANCH  19  20
HETATM   20  O2  UNL     1      36.760  36.832  32.429  1.00  0.00    -0.389 OA
ATOM     21  H2  UNL     1      36.837  36.142  31.779  1.00  0.00     0.210 HD
ENDBRANCH  19  20
BRANCH  19  22
HETATM   22  C8  UNL     1      36.575  38.962  31.554  1.00  0.00     0.209 C
BRANCH  22  23
HETATM   23  N7  UNL     1      35.424  38.320  31.008  1.00  0.00    -0.200 N
HETATM   24  N8  UNL     1      34.153  38.545  31.349  1.00  0.00    -0.209 N
HETATM   25  N9  UNL     1      33.344  37.782  30.640  1.00  0.00    -0.211 N
ATOM     26  H8  UNL     1      33.850  39.212  32.057  1.00  0.00     0.211 HD
HETATM   27  N10 UNL     1      34.115  37.072  29.848  1.00  0.00    -0.211 N
ATOM     28  H9  UNL     1      32.326  37.750  30.695  1.00  0.00     0.211 HD
HETATM   29  N11 UNL     1      35.366  37.389  30.063  1.00  0.00    -0.209 N
ATOM     30  H10 UNL     1      33.789  36.382  29.171  1.00  0.00     0.211 HD
ATOM     31  H11 UNL     1      36.169  36.986  29.581  1.00  0.00     0.211 HD
ENDBRANCH  22  23
ENDBRANCH  19  22
ENDBRANCH  18  19
ENDBRANCH  16  18
ENDBRANCH  12  16
BRANCH   9  32
HETATM   32  N4  UNL     1      38.602  39.612  38.545  1.00  0.00    -0.234 N
ATOM     33  H42 UNL     1      38.499  39.485  39.552  1.00  0.00     0.174 HD
ATOM     34  H41 UNL     1      38.547  40.563  38.180  1.00  0.00     0.174 HD
ENDBRANCH   9  32
BRANCH   3  35
HETATM   35  O1  UNL     1      40.865  33.046  37.480  1.00  0.00    -0.332 OA
ATOM     36  H1  UNL     1      41.534  33.140  38.148  1.00  0.00     0.221 HD
ENDBRANCH   3  35
TORSDOF 8
ENDMDL