MODEL 1
REMARK VINA RESULT: -7.122504337      0.000      0.000
REMARK  6 active torsions:
REMARK  status: ('A' for Active; 'I' for Inactive)
REMARK    1  A    between atoms: C2_3  and  C3_4
REMARK    2  A    between atoms: C6_14  and  C7_15
REMARK    3  A    between atoms: C8_16  and  C9_17
REMARK    4  A    between atoms: C10_23  and  C11_24
REMARK    5  A    between atoms: C11_24  and  O4_25
REMARK    6  A    between atoms: C11_24  and  O5_27
ROOT
HETATM    1  N1  UNL     1      38.705  39.091  38.131  1.00  0.00    -0.194 NA
HETATM    2  C1  UNL     1      38.923  38.292  37.346  1.00  0.00     0.107 C
HETATM    3  C2  UNL     1      39.181  37.272  36.396  1.00  0.00     0.244 C
HETATM    4  N3  UNL     1      37.935  36.647  35.891  1.00  0.00    -0.330 N
ATOM      5  H3  UNL     1      36.976  36.758  36.222  1.00  0.00     0.164 HD
HETATM    6  C4  UNL     1      38.438  35.842  34.811  1.00  0.00     0.190 C
HETATM    7  N4  UNL     1      37.898  34.626  34.304  1.00  0.00    -0.063 NA
HETATM    8  N5  UNL     1      39.512  36.409  34.330  1.00  0.00    -0.331 N
ATOM      9  H5  UNL     1      40.076  36.057  33.557  1.00  0.00     0.168 HD
HETATM   10  C5  UNL     1      39.768  37.645  35.094  1.00  0.00     0.065 C
HETATM   11  C6  UNL     1      40.348  38.645  34.539  1.00  0.00     0.046 C
ENDROOT
BRANCH   3  12
HETATM   12  C3  UNL     1      39.949  36.123  37.003  1.00  0.00     0.280 C
HETATM   13  N2  UNL     1      39.253  35.242  37.841  1.00  0.00    -0.058 NA
HETATM   14  O1  UNL     1      41.155  35.953  36.772  1.00  0.00    -0.272 OA
ENDBRANCH   3  12
BRANCH  11  15
HETATM   15  C7  UNL     1      40.679  39.955  35.064  1.00  0.00     0.036 A
HETATM   16  C8  UNL     1      41.876  40.415  35.570  1.00  0.00     0.132 A
HETATM   17  N7  UNL     1      41.637  41.696  35.900  1.00  0.00    -0.255 N
HETATM   18  O3  UNL     1      40.407  42.009  35.628  1.00  0.00    -0.236 OA
ATOM     19  H7  UNL     1      42.324  42.331  36.307  1.00  0.00     0.195 HD
HETATM   20  C10 UNL     1      39.752  41.003  35.113  1.00  0.00     0.143 A
BRANCH  16  21
HETATM   21  C9  UNL     1      43.121  39.675  35.729  1.00  0.00     0.284 C
HETATM   22  N6  UNL     1      44.287  40.101  35.039  1.00  0.00    -0.056 NA
HETATM   23  O2  UNL     1      43.234  38.658  36.456  1.00  0.00    -0.269 OA
ENDBRANCH  16  21
BRANCH  20  24
HETATM   24  C11 UNL     1      38.321  40.960  34.669  1.00  0.00     0.315 C
BRANCH  24  25
HETATM   25  O4  UNL     1      38.054  42.119  33.950  1.00  0.00    -0.365 OA
ATOM     26  H4  UNL     1      38.835  42.350  33.461  1.00  0.00     0.213 HD
ENDBRANCH  24  25
BRANCH  24  27
HETATM   27  O5  UNL     1      37.466  40.824  35.757  1.00  0.00    -0.365 OA
ATOM     28  H5  UNL     1      37.030  39.980  35.743  1.00  0.00     0.213 HD
ENDBRANCH  24  27
ENDBRANCH  20  24
ENDBRANCH  11  15
TORSDOF 6
ENDMDL