MODEL 4
REMARK VINA RESULT: -6.700669707      2.610      6.283
REMARK  10 active torsions:
REMARK  status: ('A' for Active; 'I' for Inactive)
REMARK    1  A    between atoms: N1_1  and  C1_4
REMARK    2  A    between atoms: C2_7  and  C3_8
REMARK    3  A    between atoms: N5_13  and  N6_14
REMARK    4  A    between atoms: C4_17  and  S1_18
REMARK    5  A    between atoms: S1_18  and  C5_19
REMARK    6  A    between atoms: C5_19  and  C6_20
REMARK    7  A    between atoms: C6_20  and  O1_21
REMARK    8  A    between atoms: N7_23  and  O2_24
REMARK    9  A    between atoms: C7_26  and  N8_27
REMARK       I    between atoms: N8_27  and  C8_29
REMARK   10  A    between atoms: N10_32  and  N11_33
ROOT
HETATM    1  C1  UNL     1      41.105  40.029  37.750  1.00  0.00     0.713 A
HETATM    2  N2  UNL     1      40.163  39.379  37.074  1.00  0.00    -0.169 N
ATOM      3  H2  UNL     1      39.376  39.004  37.605  1.00  0.00     0.186 HD
HETATM    4  C2  UNL     1      40.170  39.173  35.707  1.00  0.00     0.198 A
HETATM    5  N7  UNL     1      41.233  39.693  35.098  1.00  0.00    -0.030 N
HETATM    6  C7  UNL     1      42.242  40.377  35.738  1.00  0.00     0.750 A
HETATM    7  N10 UNL     1      42.144  40.523  37.056  1.00  0.00     0.085 N
ENDROOT
BRANCH   4   8
HETATM    8  C3  UNL     1      39.097  38.417  35.132  1.00  0.00     0.134 A
HETATM    9  N3  UNL     1      38.352  38.910  34.079  1.00  0.00    -0.278 N
HETATM   10  N4  UNL     1      37.444  38.036  33.717  1.00  0.00    -0.220 N
ATOM     11  H3  UNL     1      38.489  39.822  33.645  1.00  0.00     0.189 HD
HETATM   12  N5  UNL     1      37.532  36.966  34.472  1.00  0.00    -0.180 N
ATOM     13  H4  UNL     1      36.771  38.167  32.962  1.00  0.00     0.210 HD
HETATM   14  C4  UNL     1      38.566  37.214  35.349  1.00  0.00     0.144 A
BRANCH  12  15
HETATM   15  N6  UNL     1      36.748  35.814  34.410  1.00  0.00    -0.322 N
ATOM     16  H62 UNL     1      36.803  35.003  35.027  1.00  0.00     0.179 HD
ATOM     17  H61 UNL     1      36.004  35.603  33.745  1.00  0.00     0.179 HD
ENDBRANCH  12  15
BRANCH  14  18
HETATM   18  S1  UNL     1      39.051  35.935  36.477  1.00  0.00    -0.104 SA
BRANCH  18  19
HETATM   19  C5  UNL     1      40.031  34.685  35.543  1.00  0.00     0.107 C
BRANCH  19  20
HETATM   20  C6  UNL     1      40.089  33.388  36.305  1.00  0.00     0.174 C
BRANCH  20  21
HETATM   21  O1  UNL     1      40.979  33.537  37.346  1.00  0.00    -0.400 OA
ATOM     22  H1  UNL     1      40.940  32.757  37.887  1.00  0.00     0.209 HD
ENDBRANCH  20  21
ENDBRANCH  19  20
ENDBRANCH  18  19
ENDBRANCH  14  18
ENDBRANCH   4   8
BRANCH   5  23
HETATM   23  O2  UNL     1      41.449  39.556  33.756  1.00  0.00    -0.268 OA
ATOM     24  H2  UNL     1      41.020  40.107  33.113  1.00  0.00     0.246 HD
ENDBRANCH   5  23
BRANCH   1  25
HETATM   25  N1  UNL     1      41.035  40.189  39.036  1.00  0.00    -0.232 N
ATOM     26  H12 UNL     1      40.394  40.873  39.439  1.00  0.00     0.174 HD
ATOM     27  H11 UNL     1      41.611  39.644  39.677  1.00  0.00     0.174 HD
ENDBRANCH   1  25
BRANCH   6  28
HETATM   28  N8  UNL     1      43.184  40.815  35.037  1.00  0.00    -0.139 N
HETATM   29  C8  UNL     1      44.392  40.310  34.636  1.00  0.00     0.347 C
HETATM   30  N9  UNL     1      45.584  40.651  35.323  1.00  0.00    -0.039 NA
HETATM   31  O3  UNL     1      44.485  39.536  33.658  1.00  0.00    -0.250 OA
ATOM     32  H8  UNL     1      43.012  41.757  34.687  1.00  0.00     0.189 HD
ENDBRANCH   6  28
BRANCH   7  33
HETATM   33  N11 UNL     1      43.142  41.208  37.743  1.00  0.00    -0.309 N
ATOM     34 2H11 UNL     1      43.044  41.359  38.747  1.00  0.00     0.178 HD
ATOM     35 1H11 UNL     1      43.953  41.545  37.223  1.00  0.00     0.178 HD
ENDBRANCH   7  33
TORSDOF 10
ENDMDL