MODEL 3
REMARK VINA RESULT: -6.349005610      1.732      2.501
REMARK  7 active torsions:
REMARK  status: ('A' for Active; 'I' for Inactive)
REMARK    1  A    between atoms: O1_2  and  C2_3
REMARK    2  A    between atoms: C4_5  and  N1_6
REMARK       I    between atoms: N1_6  and  C5_8
REMARK    3  A    between atoms: C5_8  and  C6_10
REMARK    4  A    between atoms: N2_11  and  C7_13
REMARK    5  A    between atoms: C8_16  and  N4_17
REMARK    6  A    between atoms: C9_22  and  N6_23
REMARK    7  A    between atoms: N6_23  and  N7_25
ROOT
HETATM    1  C7  UNL     1      34.819  39.002  31.053  1.00  0.00     0.711 A
HETATM    2  N3  UNL     1      34.920  40.274  30.639  1.00  0.00    -0.021 N
ATOM      3  H3  UNL     1      35.745  40.819  30.892  1.00  0.00     0.203 HD
HETATM    4  C8  UNL     1      33.943  40.853  29.887  1.00  0.00     0.705 A
HETATM    5  N5  UNL     1      32.853  40.129  29.553  1.00  0.00    -0.020 N
ATOM      6  H5  UNL     1      32.116  40.553  28.990  1.00  0.00     0.203 HD
HETATM    7  C9  UNL     1      32.734  38.858  29.957  1.00  0.00     0.725 A
HETATM    8  N8  UNL     1      33.721  38.312  30.702  1.00  0.00    -0.020 N
ATOM      9  H8  UNL     1      33.628  37.344  31.009  1.00  0.00     0.203 HD
ENDROOT
BRANCH   1  10
HETATM   10  N2  UNL     1      35.796  38.336  31.837  1.00  0.00    -0.195 N
HETATM   11  C6  UNL     1      37.048  38.546  31.612  1.00  0.00     0.180 C
ATOM     12  H2  UNL     1      35.509  37.693  32.576  1.00  0.00     0.183 HD
BRANCH  11  13
HETATM   13  C5  UNL     1      38.050  37.875  32.402  1.00  0.00     0.258 C
HETATM   14  N1  UNL     1      37.886  37.673  33.798  1.00  0.00    -0.335 N
ATOM     15  H1  UNL     1      37.037  38.012  34.252  1.00  0.00     0.164 HD
HETATM   16  O2  UNL     1      39.109  37.448  31.861  1.00  0.00    -0.267 OA
BRANCH  14  17
HETATM   17  C4  UNL     1      38.887  37.002  34.594  1.00  0.00     0.192 C
HETATM   18  C3  UNL     1      38.649  37.351  36.044  1.00  0.00     0.108 C
HETATM   19  C2  UNL     1      39.714  36.608  36.851  1.00  0.00     0.272 C
HETATM   20  O3  UNL     1      39.572  35.229  36.606  1.00  0.00    -0.293 OA
HETATM   21  C10 UNL     1      39.147  34.734  35.382  1.00  0.00     0.231 C
HETATM   22  N9  UNL     1      38.833  35.577  34.460  1.00  0.00    -0.337 N
HETATM   23  N10 UNL     1      39.054  33.325  35.133  1.00  0.00    -0.056 NA
ATOM     24  H9  UNL     1      38.522  35.201  33.564  1.00  0.00     0.164 HD
BRANCH  19  25
HETATM   25  O1  UNL     1      39.642  36.928  38.193  1.00  0.00    -0.365 OA
HETATM   26  C1  UNL     1      39.364  38.301  38.310  1.00  0.00     0.204 C
ENDBRANCH  19  25
ENDBRANCH  14  17
ENDBRANCH  11  13
ENDBRANCH   1  10
BRANCH   4  27
HETATM   27  N4  UNL     1      34.098  42.082  29.518  1.00  0.00    -0.234 N
ATOM     28  H42 UNL     1      33.900  42.867  30.138  1.00  0.00     0.174 HD
ATOM     29  H41 UNL     1      34.430  42.268  28.572  1.00  0.00     0.174 HD
ENDBRANCH   4  27
BRANCH   7  30
HETATM   30  N6  UNL     1      31.703  38.164  29.645  1.00  0.00    -0.138 N
ATOM     31  H6  UNL     1      31.166  38.448  28.825  1.00  0.00     0.205 HD
BRANCH  30  32
HETATM   32  N7  UNL     1      31.273  37.051  30.354  1.00  0.00    -0.331 N
ATOM     33  H72 UNL     1      31.517  36.137  29.972  1.00  0.00     0.177 HD
ATOM     34  H71 UNL     1      30.737  37.098  31.220  1.00  0.00     0.177 HD
ENDBRANCH  30  32
ENDBRANCH   7  30
TORSDOF 7
ENDMDL