MODEL 3
REMARK VINA RESULT: -7.140325605      2.746      4.245
REMARK  8 active torsions:
REMARK  status: ('A' for Active; 'I' for Inactive)
REMARK    1  A    between atoms: N1_2  and  N3_5
REMARK       I    between atoms: N3_5  and  C3_7
REMARK    2  A    between atoms: C3_7  and  C4_9
REMARK    3  A    between atoms: C4_9  and  O2_10
REMARK    4  A    between atoms: C4_9  and  C5_12
REMARK    5  A    between atoms: C6_14  and  N4_15
REMARK    6  A    between atoms: N4_15  and  N5_17
REMARK    7  A    between atoms: C7_19  and  C8_20
REMARK    8  A    between atoms: C9_31  and  O4_32
ROOT
HETATM    1  C1  UNL     1      41.681  40.358  31.331  1.00  0.00     0.191 C
HETATM    2  N1  UNL     1      41.659  39.760  32.639  1.00  0.00    -0.230 N
HETATM    3  C2  UNL     1      41.046  38.540  32.840  1.00  0.00     0.200 C
HETATM    4  N2  UNL     1      40.537  37.500  32.992  1.00  0.00    -0.170 NA
ENDROOT
BRANCH   2   5
HETATM    5  N3  UNL     1      42.255  40.429  33.696  1.00  0.00    -0.257 N
HETATM    6  C3  UNL     1      43.594  40.182  34.124  1.00  0.00     0.272 C
HETATM    7  O1  UNL     1      44.242  39.323  33.512  1.00  0.00    -0.268 OA
ATOM      8  H3  UNL     1      41.710  41.133  34.193  1.00  0.00     0.191 HD
BRANCH   6   9
HETATM    9  C4  UNL     1      44.166  40.931  35.248  1.00  0.00     0.273 C
BRANCH   9  10
HETATM   10  O2  UNL     1      45.506  40.506  35.458  1.00  0.00    -0.379 OA
ATOM     11  H2  UNL     1      45.785  40.774  36.326  1.00  0.00     0.211 HD
ENDBRANCH   9  10
BRANCH   9  12
HETATM   12  C5  UNL     1      43.438  40.824  36.515  1.00  0.00     0.145 A
HETATM   13  O3  UNL     1      42.202  40.321  36.595  1.00  0.00    -0.275 OA
HETATM   14  C6  UNL     1      41.810  40.355  37.827  1.00  0.00     0.245 A
HETATM   15  N10 UNL     1      42.756  40.877  38.626  1.00  0.00    -0.299 N
HETATM   16  C9  UNL     1      43.778  41.169  37.790  1.00  0.00     0.177 A
ATOM     17  H10 UNL     1      42.712  41.020  39.634  1.00  0.00     0.171 HD
BRANCH  14  18
HETATM   18  N4  UNL     1      40.646  39.934  38.218  1.00  0.00    -0.265 N
ATOM     19  H4  UNL     1      40.086  40.532  38.825  1.00  0.00     0.190 HD
BRANCH  18  20
HETATM   20  N5  UNL     1      40.138  38.707  37.842  1.00  0.00    -0.305 N
HETATM   21  C7  UNL     1      38.930  38.557  37.467  1.00  0.00     0.158 C
ATOM     22  H5  UNL     1      40.751  37.892  37.866  1.00  0.00     0.186 HD
BRANCH  21  23
HETATM   23  C8  UNL     1      37.971  39.625  37.395  1.00  0.00     0.154 A
HETATM   24  N6  UNL     1      37.777  40.522  36.433  1.00  0.00    -0.268 N
HETATM   25  N7  UNL     1      36.783  41.312  36.796  1.00  0.00    -0.227 N
ATOM     26  H6  UNL     1      38.306  40.589  35.564  1.00  0.00     0.190 HD
HETATM   27  N8  UNL     1      36.326  40.946  37.978  1.00  0.00    -0.227 N
ATOM     28  H7  UNL     1      36.422  42.090  36.244  1.00  0.00     0.210 HD
HETATM   29  N9  UNL     1      37.052  39.912  38.348  1.00  0.00    -0.268 N
ATOM     30  H8  UNL     1      35.563  41.377  38.501  1.00  0.00     0.210 HD
ATOM     31  H9  UNL     1      36.940  39.402  39.224  1.00  0.00     0.190 HD
ENDBRANCH  21  23
ENDBRANCH  18  20
ENDBRANCH  14  18
BRANCH  16  32
HETATM   32  O4  UNL     1      44.971  41.729  38.199  1.00  0.00    -0.344 OA
ATOM     33  H4  UNL     1      45.741  41.261  38.501  1.00  0.00     0.219 HD
ENDBRANCH  16  32
ENDBRANCH   9  12
ENDBRANCH   6   9
ENDBRANCH   2   5
TORSDOF 8
ENDMDL