MODEL 4
REMARK VINA RESULT: -6.980838958      1.689      4.871
REMARK  9 active torsions:
REMARK  status: ('A' for Active; 'I' for Inactive)
REMARK       I    between atoms: C2_2  and  N1_4
REMARK       I    between atoms: N1_4  and  C3_6
REMARK    1  A    between atoms: C3_6  and  C4_8
REMARK    2  A    between atoms: C5_10  and  O4_11
REMARK    3  A    between atoms: O4_11  and  C6_12
REMARK    4  A    between atoms: C6_12  and  O5_14
REMARK    5  A    between atoms: C8_16  and  O6_18
REMARK    6  A    between atoms: C10_20  and  O7_21
REMARK    7  A    between atoms: C10_20  and  O8_23
REMARK    8  A    between atoms: O8_23  and  C11_24
REMARK       I    between atoms: C11_24  and  N2_26
REMARK    9  A    between atoms: N2_26  and  N3_28
ROOT
HETATM    1  C4  UNL     1      39.998  38.541  35.017  1.00  0.00     0.282 C
HETATM    2  O3  UNL     1      41.314  38.607  35.417  1.00  0.00    -0.338 OA
HETATM    3  C5  UNL     1      41.514  39.637  36.277  1.00  0.00     0.303 C
HETATM    4  C8  UNL     1      40.223  39.654  37.070  1.00  0.00     0.163 C
HETATM    5  C9  UNL     1      40.195  38.691  38.196  1.00  0.00     0.057 C
HETATM    6  C10 UNL     1      39.202  39.299  35.979  1.00  0.00     0.243 C
ENDROOT
BRANCH   6   7
HETATM    7  O7  UNL     1      38.223  38.542  36.615  1.00  0.00    -0.360 OA
ATOM      8  H7  UNL     1      37.349  38.682  36.270  1.00  0.00     0.213 HD
ENDBRANCH   6   7
BRANCH   6   9
HETATM    9  O8  UNL     1      38.652  40.505  35.600  1.00  0.00    -0.258 OA
BRANCH   9  10
HETATM   10  C11 UNL     1      37.499  41.112  35.990  1.00  0.00     0.381 C
HETATM   11  O9  UNL     1      36.885  41.734  35.115  1.00  0.00    -0.237 OA
HETATM   12  N2  UNL     1      37.056  41.014  37.341  1.00  0.00    -0.252 N
ATOM     13  H2  UNL     1      37.622  40.480  38.001  1.00  0.00     0.191 HD
BRANCH  12  14
HETATM   14  N3  UNL     1      35.888  41.611  37.802  1.00  0.00    -0.341 N
ATOM     15  H32 UNL     1      35.832  41.829  38.796  1.00  0.00     0.177 HD
ATOM     16  H31 UNL     1      35.101  41.836  37.193  1.00  0.00     0.177 HD
ENDBRANCH  12  14
ENDBRANCH   9  10
ENDBRANCH   6   9
BRANCH   1  17
HETATM   17  C3  UNL     1      39.686  37.085  34.948  1.00  0.00     0.259 C
HETATM   18  N1  UNL     1      39.818  36.233  36.063  1.00  0.00    -0.296 N
HETATM   19  C2  UNL     1      39.532  34.845  36.039  1.00  0.00     0.220 C
ATOM     20  H1  UNL     1      40.139  36.640  36.942  1.00  0.00     0.171 HD
HETATM   21  C1  UNL     1      39.058  34.145  34.813  1.00  0.00     0.117 C
HETATM   22  O1  UNL     1      39.684  34.175  37.090  1.00  0.00    -0.274 OA
HETATM   23  O2  UNL     1      39.298  36.626  33.861  1.00  0.00    -0.270 OA
ENDBRANCH   1  17
BRANCH   4  24
HETATM   24  O6  UNL     1      40.053  40.952  37.544  1.00  0.00    -0.379 OA
ATOM     25  H6  UNL     1      40.538  41.526  36.962  1.00  0.00     0.211 HD
ENDBRANCH   4  24
BRANCH   3  26
HETATM   26  O4  UNL     1      42.616  39.489  37.080  1.00  0.00    -0.329 OA
BRANCH  26  27
HETATM   27  C6  UNL     1      43.474  40.584  37.051  1.00  0.00     0.256 C
HETATM   28  C7  UNL     1      43.482  41.276  38.405  1.00  0.00     0.070 C
BRANCH  27  29
HETATM   29  O5  UNL     1      44.807  40.173  36.829  1.00  0.00    -0.372 OA
ATOM     30  H5  UNL     1      45.379  40.924  36.722  1.00  0.00     0.212 HD
ENDBRANCH  27  29
ENDBRANCH  26  27
ENDBRANCH   3  26
TORSDOF 9
ENDMDL