MODEL 3
REMARK VINA RESULT: -6.982488025      2.428      6.889
REMARK  4 active torsions:
REMARK  status: ('A' for Active; 'I' for Inactive)
REMARK    1  A    between atoms: N1_2  and  C3_4
REMARK    2  A    between atoms: C5_11  and  N5_12
REMARK    3  A    between atoms: C6_15  and  C7_16
REMARK    4  A    between atoms: N8_19  and  N9_20
REMARK       I    between atoms: N9_20  and  C8_22
ROOT
HETATM    1  N5  UNL     1      40.257  38.286  35.470  1.00  0.00    -0.027 N
HETATM    2  N6  UNL     1      39.242  38.158  34.655  1.00  0.00    -0.254 N
ATOM      3  H6  UNL     1      38.903  38.895  34.036  1.00  0.00     0.190 HD
HETATM    4  C6  UNL     1      38.690  36.899  34.742  1.00  0.00     0.213 A
HETATM    5  N8  UNL     1      39.429  36.267  35.658  1.00  0.00    -0.178 N
HETATM    6  C9  UNL     1      40.381  37.114  36.100  1.00  0.00     0.383 A
HETATM    7  O2  UNL     1      41.268  36.889  36.960  1.00  0.00    -0.242 OA
ENDROOT
BRANCH   1   8
HETATM    8  C5  UNL     1      41.083  39.460  35.668  1.00  0.00     0.725 A
HETATM    9  N4  UNL     1      41.167  40.363  34.678  1.00  0.00    -0.160 N
HETATM   10  C4  UNL     1      41.914  41.490  34.796  1.00  0.00     0.221 A
ATOM     11  H4  UNL     1      40.655  40.197  33.811  1.00  0.00     0.187 HD
HETATM   12  N2  UNL     1      42.573  41.659  35.970  1.00  0.00    -0.162 N
HETATM   13  N3  UNL     1      41.988  42.424  33.740  1.00  0.00    -0.062 NA
HETATM   14  C3  UNL     1      42.491  40.751  36.971  1.00  0.00     0.696 A
ATOM     15  H2  UNL     1      43.145  42.494  36.103  1.00  0.00     0.187 HD
HETATM   16  N12 UNL     1      41.743  39.659  36.804  1.00  0.00    -0.020 N
ATOM     17  H12 UNL     1      41.678  38.971  37.555  1.00  0.00     0.203 HD
BRANCH  14  18
HETATM   18  N1  UNL     1      43.209  41.036  38.160  1.00  0.00    -0.226 N
HETATM   19  C1  UNL     1      42.458  41.044  39.398  1.00  0.00     0.168 C
HETATM   20  C2  UNL     1      44.618  41.306  38.109  1.00  0.00     0.168 C
ENDBRANCH  14  18
ENDBRANCH   1   8
BRANCH   4  21
HETATM   21  C7  UNL     1      37.545  36.475  33.948  1.00  0.00     0.302 C
HETATM   22  N7  UNL     1      36.985  37.345  32.984  1.00  0.00    -0.054 NA
HETATM   23  O1  UNL     1      37.052  35.353  34.107  1.00  0.00    -0.268 OA
ENDBRANCH   4  21
BRANCH   5  24
HETATM   24  N9  UNL     1      39.225  34.945  36.077  1.00  0.00    -0.261 N
HETATM   25  C8  UNL     1      39.946  33.856  35.526  1.00  0.00     0.201 C
HETATM   26  N10 UNL     1      39.362  33.064  34.710  1.00  0.00    -0.372 N
HETATM   27  N11 UNL     1      41.293  33.643  35.875  1.00  0.00    -0.062 NA
ATOM     28 2H10 UNL     1      38.386  33.219  34.456  1.00  0.00     0.158 HD
ATOM     29 1H10 UNL     1      39.880  32.280  34.313  1.00  0.00     0.158 HD
ATOM     30  H9  UNL     1      38.534  34.760  36.805  1.00  0.00     0.190 HD
ENDBRANCH   5  24
TORSDOF 4
ENDMDL