MODEL 5
REMARK VINA RESULT: -5.575365862      2.762      6.874
REMARK  9 active torsions:
REMARK  status: ('A' for Active; 'I' for Inactive)
REMARK    1  A    between atoms: N1_1  and  C1_5
REMARK    2  A    between atoms: C1_5  and  C2_6
REMARK    3  A    between atoms: C1_5  and  C3_9
REMARK    4  A    between atoms: C2_6  and  O1_7
REMARK    5  A    between atoms: C3_9  and  C4_11
REMARK    6  A    between atoms: C5_14  and  N3_15
REMARK    7  A    between atoms: N3_15  and  C6_16
REMARK    8  A    between atoms: C9_23  and  N6_24
REMARK    9  A    between atoms: N7_29  and  N8_30
ROOT
HETATM    1  C4  UNL     1      39.625  38.881  35.935  1.00  0.00     0.181 A
HETATM    2  N2  UNL     1      39.249  38.839  34.651  1.00  0.00    -0.310 N
ATOM      3  H2  UNL     1      39.419  39.661  34.070  1.00  0.00     0.170 HD
HETATM    4  C5  UNL     1      38.647  37.748  34.074  1.00  0.00     0.223 A
HETATM    5  C9  UNL     1      38.457  36.670  34.959  1.00  0.00     0.230 A
HETATM    6  C10 UNL     1      38.846  36.725  36.273  1.00  0.00     0.306 A
HETATM    7  O5  UNL     1      38.653  35.723  37.032  1.00  0.00    -0.263 OA
HETATM    8  N7  UNL     1      39.430  37.826  36.764  1.00  0.00    -0.204 N
ENDROOT
BRANCH   1   9
HETATM    9  C3  UNL     1      40.243  40.069  36.498  1.00  0.00     0.227 C
HETATM   10  O2  UNL     1      39.502  40.947  37.011  1.00  0.00    -0.287 OA
BRANCH   9  11
HETATM   11  C1  UNL     1      41.698  40.318  36.510  1.00  0.00     0.284 C
BRANCH  11  12
HETATM   12  N1  UNL     1      41.992  41.569  35.812  1.00  0.00    -0.066 N
ATOM     13  H13 UNL     1      41.255  41.884  35.181  1.00  0.00     0.275 HD
ATOM     14  H12 UNL     1      41.982  42.398  36.407  1.00  0.00     0.275 HD
ATOM     15  H11 UNL     1      42.887  41.382  35.359  1.00  0.00     0.275 HD
ENDBRANCH  11  12
BRANCH  11  16
HETATM   16  C2  UNL     1      42.236  40.568  37.927  1.00  0.00     0.205 C
BRANCH  16  17
HETATM   17  O1  UNL     1      41.271  40.598  38.891  1.00  0.00    -0.398 OA
ATOM     18  H1  UNL     1      41.086  39.751  39.280  1.00  0.00     0.209 HD
ENDBRANCH  16  17
ENDBRANCH  11  16
ENDBRANCH   9  11
ENDBRANCH   1   9
BRANCH   8  19
HETATM   19  N8  UNL     1      39.827  37.878  38.107  1.00  0.00    -0.334 N
ATOM     20  H82 UNL     1      39.489  37.181  38.772  1.00  0.00     0.177 HD
ATOM     21  H81 UNL     1      40.456  38.607  38.442  1.00  0.00     0.177 HD
ENDBRANCH   8  19
BRANCH   4  22
HETATM   22  N3  UNL     1      38.269  37.694  32.832  1.00  0.00    -0.350 NA
BRANCH  22  23
HETATM   23  C6  UNL     1      37.913  37.652  31.684  1.00  0.00     0.253 C
HETATM   24  N4  UNL     1      38.591  37.946  30.450  1.00  0.00    -0.349 N
HETATM   25  C7  UNL     1      37.609  38.320  29.483  1.00  0.00     0.143 C
ATOM     26  H4  UNL     1      39.598  37.896  30.293  1.00  0.00     0.163 HD
HETATM   27  C8  UNL     1      36.283  37.850  29.975  1.00  0.00     0.143 C
HETATM   28  N5  UNL     1      36.580  37.245  31.244  1.00  0.00    -0.349 N
ATOM     29  H5  UNL     1      35.955  36.626  31.760  1.00  0.00     0.163 HD
ENDBRANCH  22  23
ENDBRANCH   4  22
BRANCH   5  30
HETATM   30  N6  UNL     1      37.839  35.511  34.444  1.00  0.00    -0.105 N
HETATM   31  O3  UNL     1      36.655  35.520  34.081  1.00  0.00    -0.531 OA
HETATM   32  O4  UNL     1      38.561  34.357  34.340  1.00  0.00    -0.531 OA
ENDBRANCH   5  30
TORSDOF 9
ENDMDL