MODEL 4
REMARK VINA RESULT: -6.827566806      1.436      1.597
REMARK  8 active torsions:
REMARK  status: ('A' for Active; 'I' for Inactive)
REMARK    1  A    between atoms: C2_2  and  O1_3
REMARK    2  A    between atoms: C2_2  and  C3_5
REMARK    3  A    between atoms: C3_5  and  O2_6
REMARK    4  A    between atoms: O2_6  and  N1_7
REMARK    5  A    between atoms: N1_7  and  C4_9
REMARK    6  A    between atoms: C10_23  and  N6_24
REMARK    7  A    between atoms: N6_24  and  N7_26
REMARK    8  A    between atoms: N7_26  and  N8_27
ROOT
HETATM    1  C4  UNL     1      39.339  38.446  35.442  1.00  0.00     0.127 C
HETATM    2  S1  UNL     1      40.230  39.572  34.220  1.00  0.00    -0.062 SA
HETATM    3  C5  UNL     1      41.782  39.677  35.152  1.00  0.00     0.079 C
HETATM    4  C6  UNL     1      43.062  39.764  34.525  1.00  0.00     0.138 C
HETATM    5  N2  UNL     1      43.342  39.616  33.149  1.00  0.00    -0.081 NA
HETATM    6  N3  UNL     1      44.060  40.038  35.299  1.00  0.00    -0.318 N
ATOM      7  H3  UNL     1      44.986  40.058  34.872  1.00  0.00     0.169 HD
HETATM    8  C7  UNL     1      43.986  40.311  36.677  1.00  0.00     0.194 C
HETATM    9  N4  UNL     1      45.175  40.513  37.497  1.00  0.00    -0.063 NA
HETATM   10  N5  UNL     1      42.830  40.375  37.225  1.00  0.00    -0.326 N
ATOM     11  H5  UNL     1      42.778  40.538  38.230  1.00  0.00     0.169 HD
HETATM   12  C8  UNL     1      41.593  40.229  36.486  1.00  0.00     0.108 C
HETATM   13  C9  UNL     1      40.471  39.739  37.323  1.00  0.00     0.230 C
HETATM   14  O3  UNL     1      40.588  39.804  38.602  1.00  0.00    -0.283 OA
HETATM   15  C10 UNL     1      39.281  39.193  36.735  1.00  0.00     0.134 C
ENDROOT
BRANCH   1  16
HETATM   16  N1  UNL     1      38.880  37.339  35.142  1.00  0.00    -0.257 N
ATOM     17  H1  UNL     1      38.764  37.038  34.174  1.00  0.00     0.195 HD
BRANCH  16  18
HETATM   18  O2  UNL     1      38.517  36.492  36.274  1.00  0.00    -0.277 OA
BRANCH  18  19
HETATM   19  C3  UNL     1      39.361  35.308  36.301  1.00  0.00     0.232 C
BRANCH  19  20
HETATM   20  C2  UNL     1      39.509  34.644  34.950  1.00  0.00     0.140 C
HETATM   21  C1  UNL     1      40.266  33.381  34.874  1.00  0.00     0.041 C
BRANCH  20  22
HETATM   22  O1  UNL     1      38.265  34.469  34.382  1.00  0.00    -0.394 OA
ATOM     23  H1  UNL     1      37.764  35.272  34.462  1.00  0.00     0.210 HD
ENDBRANCH  20  22
ENDBRANCH  19  20
ENDBRANCH  18  19
ENDBRANCH  16  18
ENDBRANCH   1  16
BRANCH  15  24
HETATM   24  N6  UNL     1      38.096  39.319  37.215  1.00  0.00    -0.278 N
ATOM     25  H6  UNL     1      37.621  38.495  37.582  1.00  0.00     0.184 HD
BRANCH  24  26
HETATM   26  N7  UNL     1      37.449  40.532  37.247  1.00  0.00    -0.029 NA
BRANCH  26  27
HETATM   27  N8  UNL     1      36.373  40.597  38.184  1.00  0.00    -0.329 N
ATOM     28  H82 UNL     1      35.823  39.774  38.434  1.00  0.00     0.174 HD
ATOM     29  H81 UNL     1      36.212  41.526  38.573  1.00  0.00     0.174 HD
ENDBRANCH  26  27
ENDBRANCH  24  26
ENDBRANCH  15  24
TORSDOF 8
ENDMDL