MODEL 1
REMARK VINA RESULT: -5.678616300      0.000      0.000
REMARK  2 active torsions:
REMARK  status: ('A' for Active; 'I' for Inactive)
REMARK    1  A    between atoms: C2_2  and  N1_5
REMARK    2  A    between atoms: N1_5  and  C5_7
ROOT
HETATM    1  C5  UNL     1      23.556 -24.826  71.881  1.00  0.00     0.122 C
HETATM    2  C6  UNL     1      22.337 -24.017  72.178  1.00  0.00     0.031 C
HETATM    3  C7  UNL     1      21.903 -24.011  73.622  1.00  0.00     0.002 C
HETATM    4  C8  UNL     1      22.914 -23.528  74.594  1.00  0.00     0.000 C
HETATM    5  C9  UNL     1      23.968 -24.574  74.909  1.00  0.00     0.006 C
HETATM    6  C10 UNL     1      25.165 -24.329  74.017  1.00  0.00     0.054 C
HETATM    7  C11 UNL     1      24.719 -24.186  72.610  1.00  0.00     0.002 C
HETATM    8  N2  UNL     1      25.434 -23.397  71.910  1.00  0.00    -0.404 N
ATOM      9  H21 UNL     1      26.217 -22.965  72.402  1.00  0.00     0.155 HD
ATOM     10  H22 UNL     1      25.127 -23.298  70.943  1.00  0.00     0.155 HD
ENDROOT
BRANCH   1  11
HETATM   11  N1  UNL     1      23.865 -24.780  70.509  1.00  0.00    -0.405 N
ATOM     12  H1  UNL     1      23.932 -23.869  70.055  1.00  0.00     0.154 HD
BRANCH  11  13
HETATM   13  C2  UNL     1      24.082 -25.926  69.744  1.00  0.00     0.015 C
HETATM   14  C1  UNL     1      25.523 -25.783  69.172  1.00  0.00     0.037 C
HETATM   15  C3  UNL     1      24.117 -27.251  70.470  1.00  0.00     0.037 C
HETATM   16  C4  UNL     1      23.177 -26.040  68.561  1.00  0.00     0.037 C
ENDBRANCH  11  13
ENDBRANCH   1  11
TORSDOF 2
ENDMDL