MODEL 4
REMARK VINA RESULT: -6.117747408      2.101      3.212
REMARK  2 active torsions:
REMARK  status: ('A' for Active; 'I' for Inactive)
REMARK    1  A    between atoms: C2_2  and  C5_5
REMARK    2  A    between atoms: C9_9  and  C10_10
ROOT
HETATM    1  C5  UNL     1      23.995 -24.406  73.148  1.00  0.00    -0.006 C
HETATM    2  C6  UNL     1      24.230 -24.401  74.623  1.00  0.00     0.005 C
HETATM    3  C7  UNL     1      23.080 -23.662  75.281  1.00  0.00     0.001 C
HETATM    4  C8  UNL     1      23.144 -22.239  74.758  1.00  0.00     0.015 C
HETATM    5  C9  UNL     1      22.711 -22.337  73.288  1.00  0.00     0.087 C
HETATM    6  C11 UNL     1      23.869 -23.002  72.579  1.00  0.00     0.020 C
ENDROOT
BRANCH   1   7
HETATM    7  C2  UNL     1      25.058 -25.164  72.389  1.00  0.00    -0.048 C
HETATM    8  C1  UNL     1      24.366 -26.189  71.494  1.00  0.00     0.015 C
HETATM    9  C3  UNL     1      26.007 -25.899  73.263  1.00  0.00     0.015 C
HETATM   10  C4  UNL     1      25.825 -24.243  71.463  1.00  0.00     0.015 C
ENDBRANCH   1   7
BRANCH   5  11
HETATM   11  C10 UNL     1      22.368 -21.026  72.741  1.00  0.00     0.177 C
HETATM   12  O1  UNL     1      22.055 -20.917  71.531  1.00  0.00    -0.648 OA
HETATM   13  O2  UNL     1      22.388 -19.917  73.542  1.00  0.00    -0.648 OA
ENDBRANCH   5  11
TORSDOF 2
ENDMDL