MODEL 5
REMARK VINA RESULT: -5.327533031      1.832      4.638
REMARK  3 active torsions:
REMARK  status: ('A' for Active; 'I' for Inactive)
REMARK    1  A    between atoms: C2_2  and  C3_3
REMARK    2  A    between atoms: C3_3  and  O1_4
REMARK    3  A    between atoms: C7_9  and  C8_10
ROOT
HETATM    1  C3  UNL     1      25.495 -25.637  71.647  1.00  0.00     0.242 C
HETATM    2  C4  UNL     1      24.442 -26.457  70.926  1.00  0.00     0.073 C
HETATM    3  C5  UNL     1      23.452 -25.456  70.356  1.00  0.00     0.007 C
HETATM    4  C6  UNL     1      22.806 -24.784  71.561  1.00  0.00     0.034 C
HETATM    5  C7  UNL     1      23.862 -24.000  72.316  1.00  0.00     0.197 C
HETATM    6  N1  UNL     1      24.882 -24.919  72.737  1.00  0.00    -0.035 N
ATOM      7  H11 UNL     1      25.588 -24.443  73.299  1.00  0.00     0.281 HD
ATOM      8  H12 UNL     1      24.518 -25.567  73.436  1.00  0.00     0.281 HD
ENDROOT
BRANCH   1   9
HETATM    9  C2  UNL     1      26.487 -26.587  72.200  1.00  0.00     0.030 C
HETATM   10  C1  UNL     1      26.560 -26.707  73.521  1.00  0.00     0.012 C
ENDBRANCH   1   9
BRANCH   1  11
HETATM   11  O1  UNL     1      26.043 -24.754  70.742  1.00  0.00    -0.362 OA
ATOM     12  H1  UNL     1      26.349 -23.951  71.146  1.00  0.00     0.213 HD
ENDBRANCH   1  11
BRANCH   5  13
HETATM   13  C8  UNL     1      23.182 -23.451  73.552  1.00  0.00    -0.023 C
HETATM   14  C9  UNL     1      24.104 -23.526  74.723  1.00  0.00     0.016 C
HETATM   15  C10 UNL     1      21.934 -24.284  73.845  1.00  0.00     0.016 C
HETATM   16  C11 UNL     1      22.716 -22.029  73.350  1.00  0.00     0.016 C
ENDBRANCH   5  13
TORSDOF 3
ENDMDL