MODEL 1
REMARK VINA RESULT: -5.887835885      0.000      0.000
REMARK  3 active torsions:
REMARK  status: ('A' for Active; 'I' for Inactive)
REMARK    1  A    between atoms: O1_2  and  C2_3
REMARK    2  A    between atoms: C2_3  and  N2_7
REMARK    3  A    between atoms: N2_7  and  C3_9
ROOT
HETATM    1  C3  UNL     1      23.004 -23.486  72.785  1.00  0.00     0.085 C
HETATM    2  C4  UNL     1      22.980 -24.067  74.191  1.00  0.00     0.025 C
HETATM    3  C5  UNL     1      24.136 -23.554  75.004  1.00  0.00     0.002 C
HETATM    4  C6  UNL     1      25.471 -23.766  74.390  1.00  0.00     0.000 C
HETATM    5  C7  UNL     1      25.595 -24.936  73.491  1.00  0.00     0.000 C
HETATM    6  C8  UNL     1      25.538 -24.440  72.042  1.00  0.00     0.000 C
HETATM    7  C9  UNL     1      24.365 -25.018  71.326  1.00  0.00     0.002 C
HETATM    8  C10 UNL     1      23.039 -24.610  71.819  1.00  0.00     0.025 C
ENDROOT
BRANCH   1   9
HETATM    9  N2  UNL     1      21.756 -22.723  72.619  1.00  0.00    -0.352 N
ATOM     10  H2  UNL     1      20.870 -23.225  72.570  1.00  0.00     0.163 HD
BRANCH   9  11
HETATM   11  C2  UNL     1      21.756 -21.304  72.524  1.00  0.00     0.212 C
HETATM   12  N1  UNL     1      22.513 -20.627  73.327  1.00  0.00    -0.366 N
ATOM     13  H12 UNL     1      22.513 -19.609  73.258  1.00  0.00     0.159 HD
ATOM     14  H11 UNL     1      23.075 -21.157  73.991  1.00  0.00     0.159 HD
BRANCH  11  15
HETATM   15  O1  UNL     1      20.998 -20.587  71.626  1.00  0.00    -0.328 OA
HETATM   16  C1  UNL     1      19.577 -20.518  71.694  1.00  0.00     0.213 C
ENDBRANCH  11  15
ENDBRANCH   9  11
ENDBRANCH   1   9
TORSDOF 3
ENDMDL