MODEL 5
REMARK VINA RESULT: -5.709670959      1.043      1.462
REMARK  2 active torsions:
REMARK  status: ('A' for Active; 'I' for Inactive)
REMARK    1  A    between atoms: O1_2  and  N1_3
REMARK    2  A    between atoms: C6_9  and  C8_11
ROOT
HETATM    1  N1  UNL     1      24.468 -24.990  70.485  1.00  0.00    -0.255 N
ATOM      2  H1  UNL     1      25.401 -25.392  70.386  1.00  0.00     0.195 HD
HETATM    3  C2  UNL     1      24.108 -24.502  71.623  1.00  0.00     0.098 C
HETATM    4  C3  UNL     1      25.100 -24.563  72.730  1.00  0.00     0.078 C
HETATM    5  C4  UNL     1      24.584 -23.921  73.988  1.00  0.00     0.010 C
HETATM    6  C5  UNL     1      23.592 -22.818  73.708  1.00  0.00     0.031 C
HETATM    7  C6  UNL     1      22.384 -23.431  73.049  1.00  0.00     0.030 C
HETATM    8  C7  UNL     1      21.817 -24.541  73.888  1.00  0.00     0.039 C
HETATM    9  N2  UNL     1      22.814 -23.946  71.762  1.00  0.00    -0.369 N
ATOM     10  H2  UNL     1      22.186 -23.906  70.959  1.00  0.00     0.161 HD
ENDROOT
BRANCH   1  11
HETATM   11  O1  UNL     1      23.635 -24.980  69.422  1.00  0.00    -0.284 OA
HETATM   12  C1  UNL     1      23.799 -25.721  68.249  1.00  0.00     0.237 C
ENDBRANCH   1  11
BRANCH   7  13
HETATM   13  C8  UNL     1      21.290 -22.431  72.799  1.00  0.00     0.005 C
HETATM   14  C9  UNL     1      21.782 -21.230  72.021  1.00  0.00     0.012 C
HETATM   15  C10 UNL     1      20.071 -23.033  72.151  1.00  0.00     0.012 C
ENDBRANCH   7  13
TORSDOF 2
ENDMDL