MODEL 2
REMARK VINA RESULT: -5.607439580      3.017      4.481
REMARK  1 active torsions:
REMARK  status: ('A' for Active; 'I' for Inactive)
REMARK    1  A    between atoms: C5_5  and  N1_6
ROOT
HETATM    1  C1  UNL     1      24.739 -23.635  75.117  1.00  0.00     0.038 C
HETATM    2  C2  UNL     1      23.248 -23.281  75.025  1.00  0.00    -0.030 C
HETATM    3  C3  UNL     1      22.294 -24.145  74.391  1.00  0.00    -0.028 C
HETATM    4  C4  UNL     1      21.916 -24.027  72.921  1.00  0.00     0.064 C
HETATM    5  C5  UNL     1      23.170 -24.223  71.996  1.00  0.00     0.153 C
HETATM    6  C8  UNL     1      24.295 -24.017  72.808  1.00  0.00    -0.158 C
HETATM    7  C9  UNL     1      25.368 -23.809  73.694  1.00  0.00     0.086 C
ENDROOT
BRANCH   5   8
HETATM    8  N1  UNL     1      22.993 -25.540  71.363  1.00  0.00    -0.364 N
HETATM    9  C6  UNL     1      23.668 -25.895  70.331  1.00  0.00     0.095 C
HETATM   10  C7  UNL     1      23.803 -27.050  69.429  1.00  0.00     0.174 C
HETATM   11  N2  UNL     1      24.667 -25.221  69.572  1.00  0.00    -0.319 N
HETATM   12  S1  UNL     1      24.169 -25.941  68.048  1.00  0.00    -0.047 SA
ATOM     13  H2  UNL     1      25.403 -24.561  69.822  1.00  0.00     0.175 HD
ATOM     14  H1  UNL     1      22.314 -26.190  71.756  1.00  0.00     0.162 HD
ENDBRANCH   5   8
TORSDOF 1
ENDMDL