MODEL 1
REMARK VINA RESULT: -5.162507207      0.000      0.000
REMARK  2 active torsions:
REMARK  status: ('A' for Active; 'I' for Inactive)
REMARK    1  A    between atoms: C6_7  and  N1_8
REMARK    2  A    between atoms: N1_8  and  C7_10
ROOT
HETATM    1  C1  UNL     1      26.168 -25.342  69.330  1.00  0.00     0.068 C
HETATM    2  S1  UNL     1      25.600 -26.233  71.022  1.00  0.00    -0.260 SA
HETATM    3  C2  UNL     1      27.305 -26.995  71.165  1.00  0.00     0.068 C
HETATM    4  C3  UNL     1      24.070 -26.898  70.105  1.00  0.00     0.053 C
HETATM    5  C4  UNL     1      23.237 -25.587  70.000  1.00  0.00     0.011 C
HETATM    6  C5  UNL     1      22.891 -25.230  71.403  1.00  0.00     0.026 C
HETATM    7  C6  UNL     1      23.772 -24.374  72.191  1.00  0.00     0.090 C
HETATM    8  C9  UNL     1      25.275 -24.476  71.912  1.00  0.00     0.078 C
ENDROOT
BRANCH   7   9
HETATM    9  N1  UNL     1      23.401 -22.983  72.208  1.00  0.00    -0.375 N
ATOM     10  H1  UNL     1      23.439 -22.464  71.331  1.00  0.00     0.161 HD
BRANCH   9  11
HETATM   11  C7  UNL     1      22.986 -22.294  73.379  1.00  0.00     0.066 C
HETATM   12  C8  UNL     1      23.071 -22.919  74.728  1.00  0.00     0.088 C
HETATM   13  N2  UNL     1      22.527 -21.099  73.253  1.00  0.00    -0.389 N
ATOM     14  H22 UNL     1      22.470 -20.671  72.330  1.00  0.00     0.157 HD
ATOM     15  H21 UNL     1      22.229 -20.604  74.094  1.00  0.00     0.157 HD
ENDBRANCH   9  11
ENDBRANCH   7   9
TORSDOF 2
ENDMDL