MODEL 4
REMARK VINA RESULT: -5.689451519      1.955      2.900
REMARK  3 active torsions:
REMARK  status: ('A' for Active; 'I' for Inactive)
REMARK    1  A    between atoms: C2_2  and  C5_5
REMARK    2  A    between atoms: C9_9  and  N1_10
REMARK    3  A    between atoms: N1_10  and  O1_11
ROOT
HETATM    1  C5  UNL     1      23.802 -24.764  73.427  1.00  0.00     0.059 C
HETATM    2  C6  UNL     1      24.175 -23.775  74.577  1.00  0.00     0.017 C
HETATM    3  C7  UNL     1      23.137 -22.650  74.705  1.00  0.00     0.003 C
HETATM    4  C8  UNL     1      22.846 -21.754  73.619  1.00  0.00     0.024 C
HETATM    5  C9  UNL     1      21.759 -22.000  72.593  1.00  0.00     0.116 C
HETATM    6  C10 UNL     1      21.968 -23.359  71.837  1.00  0.00     0.103 C
HETATM    7  C11 UNL     1      22.869 -24.100  72.614  1.00  0.00    -0.176 C
ENDROOT
BRANCH   1   8
HETATM    8  C2  UNL     1      25.059 -25.181  72.680  1.00  0.00    -0.038 C
HETATM    9  C1  UNL     1      24.750 -26.192  71.597  1.00  0.00     0.015 C
HETATM   10  C3  UNL     1      26.140 -25.741  73.528  1.00  0.00     0.015 C
HETATM   11  C4  UNL     1      25.645 -23.980  71.932  1.00  0.00     0.015 C
ENDBRANCH   1   8
BRANCH   5  12
HETATM   12  N1  UNL     1      21.767 -20.922  71.667  1.00  0.00    -0.098 NA
BRANCH  12  13
HETATM   13  O1  UNL     1      21.644 -19.747  72.367  1.00  0.00    -0.296 OA
ATOM     14  H1  UNL     1      21.315 -19.079  71.777  1.00  0.00     0.238 HD
ENDBRANCH  12  13
ENDBRANCH   5  12
TORSDOF 3
ENDMDL