MODEL 5
REMARK VINA RESULT: -5.267360342      1.027      1.059
REMARK  2 active torsions:
REMARK  status: ('A' for Active; 'I' for Inactive)
REMARK    1  A    between atoms: N1_2  and  O1_3
REMARK    2  A    between atoms: N1_2  and  C2_5
ROOT
HETATM    1  C2  UNL     1      23.177 -23.544  72.530  1.00  0.00     0.038 C
HETATM    2  C3  UNL     1      22.410 -24.105  73.721  1.00  0.00     0.035 C
HETATM    3  C4  UNL     1      22.636 -24.303  71.328  1.00  0.00     0.027 C
HETATM    4  C5  UNL     1      23.272 -25.657  71.166  1.00  0.00     0.002 C
HETATM    5  C6  UNL     1      24.731 -25.371  70.863  1.00  0.00     0.005 C
HETATM    6  C7  UNL     1      25.366 -24.729  72.037  1.00  0.00    -0.008 C
HETATM    7  C8  UNL     1      25.698 -25.749  73.128  1.00  0.00     0.005 C
HETATM    8  C9  UNL     1      26.142 -24.816  74.216  1.00  0.00     0.001 C
HETATM    9  C10 UNL     1      25.104 -23.714  74.138  1.00  0.00     0.007 C
HETATM   10  C11 UNL     1      24.653 -23.627  72.696  1.00  0.00     0.014 C
ENDROOT
BRANCH   1  11
HETATM   11  N1  UNL     1      22.761 -22.172  72.279  1.00  0.00    -0.194 NA
HETATM   12  C1  UNL     1      22.587 -21.388  73.448  1.00  0.00     0.144 C
BRANCH  11  13
HETATM   13  O1  UNL     1      21.652 -22.103  71.520  1.00  0.00    -0.313 OA
ATOM     14  H1  UNL     1      21.252 -21.247  71.619  1.00  0.00     0.237 HD
ENDBRANCH  11  13
ENDBRANCH   1  11
TORSDOF 2
ENDMDL