MODEL 2
REMARK VINA RESULT: -5.954871553      1.376      2.143
REMARK  1 active torsions:
REMARK  status: ('A' for Active; 'I' for Inactive)
REMARK    1  A    between atoms: C10_11  and  N2_12
ROOT
HETATM    1  N1  UNL     1      22.246 -23.899  72.428  1.00  0.00    -0.197 NA
HETATM    2  C1  UNL     1      22.903 -24.626  71.810  1.00  0.00     0.064 C
HETATM    3  C2  UNL     1      23.741 -25.572  71.033  1.00  0.00     0.093 C
HETATM    4  C3  UNL     1      25.083 -24.854  70.856  1.00  0.00     0.024 C
HETATM    5  C4  UNL     1      26.083 -25.718  70.174  1.00  0.00    -0.010 C
HETATM    6  C5  UNL     1      26.049 -27.156  70.577  1.00  0.00     0.012 C
HETATM    7  C6  UNL     1      25.353 -27.931  69.522  1.00  0.00     0.016 C
HETATM    8  C7  UNL     1      23.884 -28.190  69.711  1.00  0.00     0.014 C
HETATM    9  C8  UNL     1      23.590 -26.949  68.934  1.00  0.00     0.017 C
HETATM   10  C9  UNL     1      23.166 -25.743  69.676  1.00  0.00     0.026 C
HETATM   11  C10 UNL     1      24.973 -26.957  68.412  1.00  0.00     0.053 C
HETATM   12  C11 UNL     1      25.793 -25.760  68.690  1.00  0.00     0.038 C
ENDROOT
BRANCH  11  13
HETATM   13  N2  UNL     1      25.133 -27.481  67.088  1.00  0.00    -0.332 N
HETATM   14  N3  UNL     1      26.142 -28.134  66.801  1.00  0.00    -0.349 N
ATOM     15  H32 UNL     1      26.850 -28.291  67.518  1.00  0.00     0.176 HD
ATOM     16  H31 UNL     1      26.256 -28.507  65.859  1.00  0.00     0.176 HD
ATOM     17  H2  UNL     1      24.416 -27.315  66.383  1.00  0.00     0.180 HD
ENDBRANCH  11  13
TORSDOF 1
ENDMDL