MODEL 4
REMARK VINA RESULT: -6.575950342      2.689      6.030
REMARK  9 active torsions:
REMARK  status: ('A' for Active; 'I' for Inactive)
REMARK    1  A    between atoms: N1_1  and  C1_5
REMARK    2  A    between atoms: C1_5  and  C2_6
REMARK    3  A    between atoms: C2_6  and  N2_7
REMARK    4  A    between atoms: C3_12  and  C4_13
REMARK    5  A    between atoms: C4_13  and  S1_14
REMARK    6  A    between atoms: S1_14  and  C5_15
REMARK    7  A    between atoms: C6_19  and  N6_20
REMARK    8  A    between atoms: C7_27  and  C8_28
REMARK    9  A    between atoms: C8_28  and  O1_29
ROOT
HETATM    1  C5  UNL     1      15.001  11.123  28.327  1.00  0.00     0.284 C
HETATM    2  N5  UNL     1      15.094  11.694  29.656  1.00  0.00    -0.006 N
ATOM      3  H51 UNL     1      14.810  11.053  30.396  1.00  0.00     0.283 HD
ATOM      4  H52 UNL     1      14.394  12.412  29.841  1.00  0.00     0.283 HD
HETATM    5  C6  UNL     1      16.461  12.167  29.791  1.00  0.00     0.579 C
HETATM    6  N7  UNL     1      16.809  12.629  28.482  1.00  0.00    -0.013 N
ATOM      7  H71 UNL     1      17.807  12.783  28.336  1.00  0.00     0.282 HD
ATOM      8  H72 UNL     1      16.526  13.588  28.279  1.00  0.00     0.282 HD
HETATM    9  C7  UNL     1      16.218  11.626  27.616  1.00  0.00     0.254 C
ENDROOT
BRANCH   1  10
HETATM   10  S1  UNL     1      14.899   9.333  28.423  1.00  0.00    -0.126 SA
BRANCH  10  11
HETATM   11  C4  UNL     1      15.643   8.691  29.945  1.00  0.00     0.155 C
BRANCH  11  12
HETATM   12  C3  UNL     1      17.071   8.403  29.673  1.00  0.00     0.122 A
HETATM   13  N4  UNL     1      17.564   8.173  28.450  1.00  0.00    -0.271 N
HETATM   14  N3  UNL     1      18.842   7.959  28.587  1.00  0.00    -0.225 N
ATOM     15  H4  UNL     1      17.038   8.168  27.575  1.00  0.00     0.190 HD
HETATM   16  N2  UNL     1      19.191   8.044  29.861  1.00  0.00    -0.217 N
ATOM     17  H3  UNL     1      19.484   7.754  27.820  1.00  0.00     0.210 HD
HETATM   18  N8  UNL     1      18.096   8.319  30.528  1.00  0.00    -0.269 N
ATOM     19  H8  UNL     1      18.035   8.447  31.537  1.00  0.00     0.190 HD
BRANCH  16  20
HETATM   20  C2  UNL     1      20.550   7.861  30.391  1.00  0.00     0.198 C
BRANCH  20  21
HETATM   21  C1  UNL     1      20.473   6.755  31.411  1.00  0.00     0.253 C
BRANCH  21  22
HETATM   22  N1  UNL     1      21.831   6.337  31.712  1.00  0.00    -0.078 N
ATOM     23  H13 UNL     1      21.931   5.964  32.656  1.00  0.00     0.274 HD
ATOM     24  H12 UNL     1      22.110   5.498  31.204  1.00  0.00     0.274 HD
ATOM     25  H11 UNL     1      22.446   7.131  31.534  1.00  0.00     0.274 HD
ENDBRANCH  21  22
ENDBRANCH  20  21
ENDBRANCH  16  20
ENDBRANCH  11  12
ENDBRANCH  10  11
ENDBRANCH   1  10
BRANCH   9  26
HETATM   26  C8  UNL     1      15.863  12.306  26.311  1.00  0.00     0.200 C
BRANCH  26  27
HETATM   27  O1  UNL     1      14.571  11.999  25.894  1.00  0.00    -0.399 OA
ATOM     28  H1  UNL     1      14.210  12.669  25.326  1.00  0.00     0.209 HD
ENDBRANCH  26  27
ENDBRANCH   9  26
BRANCH   5  29
HETATM   29  N6  UNL     1      16.529  13.195  30.800  1.00  0.00    -0.026 N
ATOM     30  H63 UNL     1      15.822  13.916  30.658  1.00  0.00     0.278 HD
ATOM     31  H62 UNL     1      16.217  12.859  31.711  1.00  0.00     0.278 HD
ATOM     32  H61 UNL     1      17.471  13.584  30.837  1.00  0.00     0.278 HD
ENDBRANCH   5  29
TORSDOF 9
ENDMDL