MODEL 3
REMARK VINA RESULT: -7.490482769      2.473      3.542
REMARK  9 active torsions:
REMARK  status: ('A' for Active; 'I' for Inactive)
REMARK    1  A    between atoms: N1_1  and  C1_4
REMARK    2  A    between atoms: C4_9  and  N3_10
REMARK    3  A    between atoms: N3_10  and  C5_11
REMARK    4  A    between atoms: N3_10  and  C7_17
REMARK    5  A    between atoms: C5_11  and  C6_12
REMARK    6  A    between atoms: C6_12  and  N4_13
REMARK    7  A    between atoms: C8_19  and  C9_20
REMARK    8  A    between atoms: C9_20  and  O2_21
REMARK    9  A    between atoms: C10_24  and  O4_25
ROOT
HETATM    1  N3  UNL     1      18.679   9.574  28.702  1.00  0.00    -0.184 N
ENDROOT
BRANCH   1   2
HETATM    2  C4  UNL     1      18.342  10.895  28.280  1.00  0.00     0.683 A
HETATM    3  N2  UNL     1      17.825  11.158  27.079  1.00  0.00    -0.202 N
HETATM    4  C3  UNL     1      17.454  12.420  26.690  1.00  0.00     0.110 A
ATOM      5  H2  UNL     1      17.700  10.387  26.422  1.00  0.00     0.183 HD
HETATM    6  C2  UNL     1      17.624  13.438  27.569  1.00  0.00     0.066 A
HETATM    7  C1  UNL     1      18.154  13.202  28.815  1.00  0.00     0.116 A
HETATM    8  N5  UNL     1      18.488  11.958  29.119  1.00  0.00    -0.177 N
ATOM      9  H5  UNL     1      18.881  11.784  30.045  1.00  0.00     0.185 HD
BRANCH   7  10
HETATM   10  N1  UNL     1      18.309  14.199  29.651  1.00  0.00    -0.385 N
ATOM     11  H12 UNL     1      18.159  15.172  29.381  1.00  0.00     0.157 HD
ATOM     12  H11 UNL     1      18.592  14.010  30.613  1.00  0.00     0.157 HD
ENDBRANCH   7  10
ENDBRANCH   1   2
BRANCH   1  13
HETATM   13  C5  UNL     1      17.623   8.550  28.796  1.00  0.00     0.171 C
BRANCH  13  14
HETATM   14  C6  UNL     1      16.703   8.818  29.964  1.00  0.00     0.250 C
BRANCH  14  15
HETATM   15  N4  UNL     1      17.264   8.087  31.104  1.00  0.00    -0.078 N
ATOM     16  H43 UNL     1      16.578   7.888  31.834  1.00  0.00     0.274 HD
ATOM     17  H42 UNL     1      17.501   7.119  30.888  1.00  0.00     0.274 HD
ATOM     18  H41 UNL     1      18.058   8.636  31.433  1.00  0.00     0.274 HD
ENDBRANCH  14  15
ENDBRANCH  13  14
ENDBRANCH   1  13
BRANCH   1  19
HETATM   19  C7  UNL     1      19.996   9.118  29.049  1.00  0.00     0.298 C
HETATM   20  O1  UNL     1      19.998   7.777  29.449  1.00  0.00    -0.329 OA
HETATM   21  C8  UNL     1      20.781   7.676  30.589  1.00  0.00     0.289 C
HETATM   22  O3  UNL     1      20.506   8.885  31.256  1.00  0.00    -0.325 OA
HETATM   23  C10 UNL     1      20.684   9.773  30.181  1.00  0.00     0.309 C
BRANCH  21  24
HETATM   24  C9  UNL     1      20.364   6.495  31.442  1.00  0.00     0.225 C
BRANCH  24  25
HETATM   25  O2  UNL     1      21.337   5.497  31.410  1.00  0.00    -0.396 OA
ATOM     26  H2  UNL     1      21.615   5.272  32.291  1.00  0.00     0.209 HD
ENDBRANCH  24  25
ENDBRANCH  21  24
BRANCH  23  27
HETATM   27  O4  UNL     1      22.072   9.722  29.916  1.00  0.00    -0.367 OA
ATOM     28  H4  UNL     1      22.343   8.816  30.004  1.00  0.00     0.212 HD
ENDBRANCH  23  27
ENDBRANCH   1  19
TORSDOF 9
ENDMDL