MODEL 3
REMARK VINA RESULT: -6.984170284      1.858      2.664
REMARK  10 active torsions:
REMARK  status: ('A' for Active; 'I' for Inactive)
REMARK    1  A    between atoms: N1_1  and  C1_4
REMARK    2  A    between atoms: N4_12  and  C5_13
REMARK    3  A    between atoms: C5_13  and  O1_14
REMARK    4  A    between atoms: C6_16  and  N5_17
REMARK    5  A    between atoms: N6_20  and  C7_21
REMARK    6  A    between atoms: C7_21  and  C8_22
REMARK    7  A    between atoms: C8_22  and  N7_23
REMARK    8  A    between atoms: N7_23  and  C9_25
REMARK    9  A    between atoms: C9_25  and  C10_26
REMARK   10  A    between atoms: C10_26  and  O2_27
ROOT
HETATM    1  C1  UNL     1      17.225  12.322  27.270  1.00  0.00     0.131 A
HETATM    2  N2  UNL     1      18.537  12.712  27.461  1.00  0.00    -0.337 N
ATOM      3  H2  UNL     1      18.965  13.327  26.769  1.00  0.00     0.168 HD
HETATM    4  C2  UNL     1      19.268  12.327  28.499  1.00  0.00     0.183 A
HETATM    5  N3  UNL     1      18.763  11.519  29.444  1.00  0.00    -0.336 N
ATOM      6  H3  UNL     1      19.324  11.222  30.242  1.00  0.00     0.168 HD
HETATM    7  C3  UNL     1      17.494  11.118  29.299  1.00  0.00     0.156 A
HETATM    8  C4  UNL     1      16.700  11.500  28.230  1.00  0.00     0.142 A
HETATM    9  N4  UNL     1      15.483  10.927  28.385  1.00  0.00    -0.154 N
HETATM   10  C6  UNL     1      15.565  10.207  29.538  1.00  0.00     0.684 A
HETATM   11  N6  UNL     1      16.786  10.330  30.082  1.00  0.00    -0.161 N
ENDROOT
BRANCH  11  12
HETATM   12  C7  UNL     1      17.150   9.675  31.314  1.00  0.00     0.194 C
BRANCH  12  13
HETATM   13  C8  UNL     1      17.847   8.401  31.182  1.00  0.00     0.081 C
BRANCH  13  14
HETATM   14  N7  UNL     1      19.185   8.429  31.584  1.00  0.00    -0.379 N
ATOM     15  H7  UNL     1      19.378   8.850  32.493  1.00  0.00     0.164 HD
BRANCH  14  16
HETATM   16  C9  UNL     1      20.267   7.950  30.888  1.00  0.00     0.086 C
BRANCH  16  17
HETATM   17  C10 UNL     1      20.915   8.876  29.905  1.00  0.00     0.208 C
BRANCH  17  18
HETATM   18  O2  UNL     1      22.071   9.490  30.376  1.00  0.00    -0.396 OA
ATOM     19  H2  UNL     1      22.796   9.478  29.763  1.00  0.00     0.209 HD
ENDBRANCH  17  18
ENDBRANCH  16  17
ENDBRANCH  14  16
ENDBRANCH  13  14
ENDBRANCH  12  13
ENDBRANCH  11  12
BRANCH  10  20
HETATM   20  N5  UNL     1      14.558   9.509  29.995  1.00  0.00    -0.234 N
ATOM     21  H52 UNL     1      14.287   8.562  29.728  1.00  0.00     0.174 HD
ATOM     22  H51 UNL     1      13.917   9.879  30.698  1.00  0.00     0.174 HD
ENDBRANCH  10  20
BRANCH   9  23
HETATM   23  C5  UNL     1      14.301  11.044  27.563  1.00  0.00     0.314 C
BRANCH  23  24
HETATM   24  O1  UNL     1      13.679   9.838  27.355  1.00  0.00    -0.381 OA
ATOM     25  H1  UNL     1      13.492   9.675  26.437  1.00  0.00     0.211 HD
ENDBRANCH  23  24
ENDBRANCH   9  23
BRANCH   1  26
HETATM   26  N1  UNL     1      16.593  12.698  26.274  1.00  0.00    -0.383 N
ATOM     27  H12 UNL     1      17.037  12.966  25.396  1.00  0.00     0.157 HD
ATOM     28  H11 UNL     1      15.576  12.768  26.300  1.00  0.00     0.157 HD
ENDBRANCH   1  26
TORSDOF 10
ENDMDL