MODEL 4
REMARK VINA RESULT: -6.834784747      2.949      5.750
REMARK  9 active torsions:
REMARK  status: ('A' for Active; 'I' for Inactive)
REMARK    1  A    between atoms: N1_1  and  C1_4
REMARK    2  A    between atoms: C4_14  and  O1_15
REMARK    3  A    between atoms: O1_15  and  C5_16
REMARK    4  A    between atoms: C5_16  and  O2_17
REMARK    5  A    between atoms: N5_19  and  C6_20
REMARK    6  A    between atoms: C6_20  and  O3_21
REMARK    7  A    between atoms: O3_21  and  C7_22
REMARK    8  A    between atoms: C7_22  and  C8_23
REMARK    9  A    between atoms: C8_23  and  O4_24
ROOT
HETATM    1  C1  UNL     1      15.328  11.116  27.761  1.00  0.00     0.679 A
HETATM    2  N2  UNL     1      14.689  10.172  28.500  1.00  0.00    -0.175 N
ATOM      3  H2  UNL     1      13.698   9.996  28.331  1.00  0.00     0.186 HD
HETATM    4  C2  UNL     1      15.326   9.464  29.447  1.00  0.00     0.145 A
HETATM    5  N3  UNL     1      14.729   8.567  30.152  1.00  0.00    -0.383 N
ATOM      6  H31 UNL     1      15.213   8.030  30.871  1.00  0.00     0.157 HD
ATOM      7  H32 UNL     1      13.739   8.371  30.004  1.00  0.00     0.157 HD
HETATM    8  C3  UNL     1      16.665   9.730  29.647  1.00  0.00     0.125 A
HETATM    9  N4  UNL     1      17.593   9.241  30.473  1.00  0.00    -0.316 N
ATOM     10  H4  UNL     1      17.439   8.509  31.165  1.00  0.00     0.169 HD
HETATM   11  C4  UNL     1      18.764   9.866  30.249  1.00  0.00     0.232 A
HETATM   12  N5  UNL     1      18.619  10.776  29.269  1.00  0.00    -0.274 N
HETATM   13  C9  UNL     1      17.333  10.700  28.892  1.00  0.00     0.159 A
HETATM   14  N6  UNL     1      16.643  11.363  27.973  1.00  0.00    -0.174 N
ATOM     15  H6  UNL     1      17.113  12.073  27.413  1.00  0.00     0.186 HD
ENDROOT
BRANCH  12  16
HETATM   16  C6  UNL     1      19.699  11.620  28.787  1.00  0.00     0.303 C
BRANCH  16  17
HETATM   17  O3  UNL     1      19.448  12.945  28.917  1.00  0.00    -0.369 OA
BRANCH  17  18
HETATM   18  C7  UNL     1      19.582  13.601  27.714  1.00  0.00     0.196 C
BRANCH  18  19
HETATM   19  C8  UNL     1      18.418  14.422  27.273  1.00  0.00     0.190 C
BRANCH  19  20
HETATM   20  O4  UNL     1      17.427  14.245  28.275  1.00  0.00    -0.399 OA
ATOM     21  H4  UNL     1      17.404  15.064  28.757  1.00  0.00     0.209 HD
ENDBRANCH  19  20
ENDBRANCH  18  19
ENDBRANCH  17  18
ENDBRANCH  16  17
ENDBRANCH  12  16
BRANCH  11  22
HETATM   22  O1  UNL     1      19.923   9.583  30.946  1.00  0.00    -0.296 OA
BRANCH  22  23
HETATM   23  C5  UNL     1      20.934   8.793  30.371  1.00  0.00     0.344 C
BRANCH  23  24
HETATM   24  O2  UNL     1      22.124   9.514  30.338  1.00  0.00    -0.377 OA
ATOM     25  H2  UNL     1      22.196  10.045  31.123  1.00  0.00     0.212 HD
ENDBRANCH  23  24
ENDBRANCH  22  23
ENDBRANCH  11  22
BRANCH   1  26
HETATM   26  N1  UNL     1      14.728  11.804  26.848  1.00  0.00    -0.234 N
ATOM     27  H12 UNL     1      13.800  12.169  27.062  1.00  0.00     0.174 HD
ATOM     28  H11 UNL     1      15.148  11.988  25.937  1.00  0.00     0.174 HD
ENDBRANCH   1  26
TORSDOF 9
ENDMDL