MODEL 1
REMARK VINA RESULT: -6.887556827      0.000      0.000
REMARK  11 active torsions:
REMARK  status: ('A' for Active; 'I' for Inactive)
REMARK    1  A    between atoms: N1_1  and  N2_4
REMARK    2  A    between atoms: N2_4  and  C1_5
REMARK    3  A    between atoms: C2_7  and  C3_8
REMARK    4  A    between atoms: C3_8  and  N3_9
REMARK    5  A    between atoms: C5_11  and  C6_12
REMARK    6  A    between atoms: C6_12  and  N4_13
REMARK    7  A    between atoms: C6_12  and  N5_17
REMARK    8  A    between atoms: C8_24  and  N7_25
REMARK    9  A    between atoms: N7_25  and  C9_27
REMARK   10  A    between atoms: C9_27  and  C10_28
REMARK   11  A    between atoms: C10_28  and  O2_29
ROOT
HETATM    1  N3  UNL     1      18.677  10.947  27.923  1.00  0.00    -0.301 N
HETATM    2  C4  UNL     1      19.318  11.951  28.540  1.00  0.00     0.122 A
HETATM    3  C5  UNL     1      18.753  13.135  28.100  1.00  0.00     0.033 A
HETATM    4  C7  UNL     1      17.764  12.809  27.210  1.00  0.00     0.119 A
HETATM    5  N6  UNL     1      17.752  11.464  27.133  1.00  0.00    -0.309 N
ATOM      6  H6  UNL     1      17.118  10.922  26.546  1.00  0.00     0.186 HD
ENDROOT
BRANCH   1   7
HETATM    7  C3  UNL     1      18.945   9.550  28.104  1.00  0.00     0.182 C
BRANCH   7   8
HETATM    8  C2  UNL     1      19.711   9.193  29.322  1.00  0.00     0.170 C
HETATM    9  O1  UNL     1      20.655   8.209  29.274  1.00  0.00    -0.357 OA
HETATM   10  C1  UNL     1      20.240   7.887  30.605  1.00  0.00     0.259 C
HETATM   11  C8  UNL     1      18.868   8.160  30.138  1.00  0.00     0.158 C
BRANCH  10  12
HETATM   12  N2  UNL     1      20.618   6.496  30.830  1.00  0.00    -0.114 NA
BRANCH  12  13
HETATM   13  N1  UNL     1      21.702   6.596  31.738  1.00  0.00    -0.346 N
ATOM     14  H12 UNL     1      22.049   7.434  32.205  1.00  0.00     0.172 HD
ATOM     15  H11 UNL     1      22.041   5.637  31.805  1.00  0.00     0.172 HD
ENDBRANCH  12  13
ENDBRANCH  10  12
BRANCH  11  16
HETATM   16  N7  UNL     1      17.892   8.829  30.857  1.00  0.00    -0.389 N
ATOM     17  H7  UNL     1      18.157   9.697  31.323  1.00  0.00     0.159 HD
BRANCH  16  18
HETATM   18  C9  UNL     1      16.575   8.400  30.990  1.00  0.00     0.082 C
BRANCH  18  19
HETATM   19  C10 UNL     1      15.652   9.058  30.005  1.00  0.00     0.208 C
BRANCH  19  20
HETATM   20  O2  UNL     1      14.469   8.282  29.845  1.00  0.00    -0.396 OA
ATOM     21  H2  UNL     1      14.081   8.445  28.992  1.00  0.00     0.209 HD
ENDBRANCH  19  20
ENDBRANCH  18  19
ENDBRANCH  16  18
ENDBRANCH  11  16
ENDBRANCH   7   8
ENDBRANCH   1   7
BRANCH   3  22
HETATM   22  C6  UNL     1      19.168  14.492  28.531  1.00  0.00     0.414 C
BRANCH  22  23
HETATM   23  N4  UNL     1      18.328  15.476  27.844  1.00  0.00    -0.046 N
ATOM     24  H43 UNL     1      18.704  15.746  26.936  1.00  0.00     0.277 HD
ATOM     25  H42 UNL     1      17.447  15.079  27.517  1.00  0.00     0.277 HD
ATOM     26  H41 UNL     1      18.191  16.274  28.464  1.00  0.00     0.277 HD
ENDBRANCH  22  23
BRANCH  22  27
HETATM   27  N5  UNL     1      19.001  14.610  29.957  1.00  0.00    -0.046 N
ATOM     28  H53 UNL     1      18.022  14.553  30.238  1.00  0.00     0.277 HD
ATOM     29  H52 UNL     1      19.342  13.789  30.456  1.00  0.00     0.277 HD
ATOM     30  H51 UNL     1      19.445  15.470  30.279  1.00  0.00     0.277 HD
ENDBRANCH  22  27
ENDBRANCH   3  22
TORSDOF 11
ENDMDL