MODEL 4
REMARK VINA RESULT: -7.599177685      1.766      2.380
REMARK  7 active torsions:
REMARK  status: ('A' for Active; 'I' for Inactive)
REMARK    1  A    between atoms: N1_1  and  C1_5
REMARK    2  A    between atoms: C3_13  and  C4_14
REMARK    3  A    between atoms: C4_14  and  N5_15
REMARK    4  A    between atoms: N5_15  and  C5_17
REMARK    5  A    between atoms: C5_17  and  C6_18
REMARK    6  A    between atoms: C6_18  and  C7_19
REMARK    7  A    between atoms: C7_19  and  N6_20
ROOT
HETATM    1  C1  UNL     1      20.468   9.590  30.550  1.00  0.00     0.396 C
HETATM    2  N2  UNL     1      19.839   8.515  31.250  1.00  0.00    -0.274 N
ATOM      3  H2  UNL     1      19.389   8.640  32.156  1.00  0.00     0.181 HD
HETATM    4  N3  UNL     1      19.886   7.283  30.606  1.00  0.00    -0.021 NA
HETATM    5  N4  UNL     1      18.765   7.226  29.776  1.00  0.00    -0.252 N
ATOM      6  H4  UNL     1      18.290   6.327  29.693  1.00  0.00     0.187 HD
HETATM    7  C2  UNL     1      18.230   8.315  29.039  1.00  0.00     0.258 C
HETATM    8  O1  UNL     1      17.232   8.051  28.321  1.00  0.00    -0.270 OA
HETATM    9  C3  UNL     1      18.646   9.759  28.955  1.00  0.00     0.191 C
HETATM   10  N9  UNL     1      20.077   9.772  29.193  1.00  0.00    -0.365 N
ATOM     11  H9  UNL     1      20.754   9.902  28.441  1.00  0.00     0.158 HD
ENDROOT
BRANCH   9  12
HETATM   12  C4  UNL     1      18.437  10.291  27.557  1.00  0.00     0.153 C
BRANCH  12  13
HETATM   13  N5  UNL     1      18.303  11.705  27.481  1.00  0.00    -0.400 N
ATOM     14  H5  UNL     1      18.343  12.188  26.583  1.00  0.00     0.158 HD
BRANCH  13  15
HETATM   15  C5  UNL     1      18.113  12.421  28.680  1.00  0.00     0.057 C
BRANCH  15  16
HETATM   16  C6  UNL     1      16.686  12.857  28.957  1.00  0.00     0.064 C
BRANCH  16  17
HETATM   17  C7  UNL     1      16.109  12.079  30.124  1.00  0.00     0.135 C
BRANCH  17  18
HETATM   18  N6  UNL     1      15.372  10.953  29.602  1.00  0.00    -0.337 N
HETATM   19  C8  UNL     1      15.021   9.836  30.303  1.00  0.00     0.200 A
HETATM   20  N7  UNL     1      14.361   8.990  29.524  1.00  0.00    -0.295 N
HETATM   21  N8  UNL     1      14.283   9.557  28.323  1.00  0.00    -0.295 N
ATOM     22  H7  UNL     1      13.985   8.080  29.793  1.00  0.00     0.187 HD
HETATM   23  C9  UNL     1      14.901  10.751  28.380  1.00  0.00     0.200 A
ATOM     24  H8  UNL     1      13.833   9.156  27.501  1.00  0.00     0.187 HD
ENDBRANCH  17  18
ENDBRANCH  16  17
ENDBRANCH  15  16
ENDBRANCH  13  15
ENDBRANCH  12  13
ENDBRANCH   9  12
BRANCH   1  25
HETATM   25  N1  UNL     1      21.905   9.275  30.522  1.00  0.00    -0.040 N
ATOM     26  H13 UNL     1      22.101   8.282  30.396  1.00  0.00     0.279 HD
ATOM     27  H12 UNL     1      22.377   9.603  29.679  1.00  0.00     0.279 HD
ATOM     28  H11 UNL     1      22.297   9.661  31.382  1.00  0.00     0.279 HD
ENDBRANCH   1  25
TORSDOF 7
ENDMDL