MODEL 4
REMARK VINA RESULT: -7.271636129      1.705      2.341
REMARK  12 active torsions:
REMARK  status: ('A' for Active; 'I' for Inactive)
REMARK    1  A    between atoms: N1_1  and  C1_5
REMARK    2  A    between atoms: C1_5  and  C2_6
REMARK    3  A    between atoms: C2_6  and  N2_7
REMARK    4  A    between atoms: N2_7  and  C3_10
REMARK    5  A    between atoms: C3_10  and  C4_11
REMARK    6  A    between atoms: C4_11  and  C5_12
REMARK    7  A    between atoms: C5_12  and  N3_13
REMARK    8  A    between atoms: C7_18  and  N5_19
REMARK    9  A    between atoms: C8_27  and  N8_28
REMARK   10  A    between atoms: N9_30  and  N10_32
REMARK   11  A    between atoms: N10_32  and  N11_33
REMARK   12  A    between atoms: N10_32  and  O1_36
ROOT
HETATM    1  N3  UNL     1      18.318  10.973  29.216  1.00  0.00    -0.373 N
ATOM      2  H3  UNL     1      19.039  10.630  28.582  1.00  0.00     0.161 HD
HETATM    3  C6  UNL     1      17.733  10.076  29.889  1.00  0.00     0.147 C
HETATM    4  N4  UNL     1      16.706  10.382  30.815  1.00  0.00    -0.329 N
ATOM      5  H4  UNL     1      16.565  11.351  31.098  1.00  0.00     0.165 HD
HETATM    6  C7  UNL     1      15.841   9.345  31.376  1.00  0.00     0.402 C
HETATM    7  N6  UNL     1      16.501   8.077  31.392  1.00  0.00    -0.288 N
ATOM      8  H6  UNL     1      16.228   7.377  32.082  1.00  0.00     0.184 HD
HETATM    9  N7  UNL     1      17.525   7.779  30.466  1.00  0.00    -0.282 N
ATOM     10  H7  UNL     1      17.805   6.805  30.362  1.00  0.00     0.188 HD
HETATM   11  C8  UNL     1      18.125   8.652  29.751  1.00  0.00     0.180 C
ENDROOT
BRANCH   1  12
HETATM   12  C5  UNL     1      18.132  12.386  29.204  1.00  0.00     0.123 C
BRANCH  12  13
HETATM   13  C4  UNL     1      18.460  12.836  27.741  1.00  0.00     0.047 C
BRANCH  13  14
HETATM   14  C3  UNL     1      17.527  11.990  26.908  1.00  0.00     0.234 C
BRANCH  14  15
HETATM   15  N2  UNL     1      16.492  12.756  26.334  1.00  0.00    -0.073 N
ATOM     16  H22 UNL     1      16.768  13.109  25.417  1.00  0.00     0.277 HD
ATOM     17  H21 UNL     1      16.380  13.641  26.829  1.00  0.00     0.277 HD
BRANCH  15  18
HETATM   18  C2  UNL     1      15.222  12.043  26.254  1.00  0.00     0.259 C
BRANCH  18  19
HETATM   19  C1  UNL     1      15.055  11.268  27.540  1.00  0.00     0.257 C
BRANCH  19  20
HETATM   20  N1  UNL     1      13.952  10.328  27.463  1.00  0.00    -0.078 N
ATOM     21  H13 UNL     1      13.472  10.243  28.360  1.00  0.00     0.274 HD
ATOM     22  H12 UNL     1      13.183  10.701  26.906  1.00  0.00     0.274 HD
ATOM     23  H11 UNL     1      14.254   9.417  27.116  1.00  0.00     0.274 HD
ENDBRANCH  19  20
ENDBRANCH  18  19
ENDBRANCH  15  18
ENDBRANCH  14  15
ENDBRANCH  13  14
ENDBRANCH  12  13
ENDBRANCH   1  12
BRANCH  11  24
HETATM   24  N8  UNL     1      19.132   8.305  28.863  1.00  0.00    -0.264 N
HETATM   25  N9  UNL     1      20.356   8.230  28.973  1.00  0.00    -0.199 N
ATOM     26  H9  UNL     1      20.843   7.941  28.125  1.00  0.00     0.212 HD
ATOM     27  H8  UNL     1      18.790   8.063  27.933  1.00  0.00     0.190 HD
BRANCH  25  28
HETATM   28  N10 UNL     1      21.170   8.472  30.046  1.00  0.00    -0.087 N
BRANCH  28  29
HETATM   29  N11 UNL     1      21.264   7.616  31.174  1.00  0.00    -0.302 N
ATOM     30 2H11 UNL     1      21.445   8.074  32.068  1.00  0.00     0.181 HD
ATOM     31 1H11 UNL     1      21.147   6.604  31.129  1.00  0.00     0.181 HD
ENDBRANCH  28  29
BRANCH  28  32
HETATM   32  O1  UNL     1      21.936   9.590  30.084  1.00  0.00    -0.253 OA
ATOM     33  H1  UNL     1      21.531  10.444  30.166  1.00  0.00     0.248 HD
ENDBRANCH  28  32
ENDBRANCH  25  28
ENDBRANCH  11  24
BRANCH   6  34
HETATM   34  N5  UNL     1      14.689   9.238  30.481  1.00  0.00    -0.039 N
ATOM     35  H53 UNL     1      14.604   8.321  30.042  1.00  0.00     0.279 HD
ATOM     36  H52 UNL     1      13.796   9.226  30.973  1.00  0.00     0.279 HD
ATOM     37  H51 UNL     1      14.771  10.001  29.810  1.00  0.00     0.279 HD
ENDBRANCH   6  34
TORSDOF 12
ENDMDL