MODEL 3
REMARK VINA RESULT: -7.353313686      1.860      3.284
REMARK  9 active torsions:
REMARK  status: ('A' for Active; 'I' for Inactive)
REMARK    1  A    between atoms: N1_1  and  C1_4
REMARK    2  A    between atoms: C3_8  and  O1_9
REMARK    3  A    between atoms: O1_9  and  C4_10
REMARK    4  A    between atoms: C4_10  and  C5_11
REMARK    5  A    between atoms: C5_11  and  N3_12
REMARK    6  A    between atoms: C5_11  and  O2_16
REMARK    7  A    between atoms: C5_11  and  C6_18
REMARK    8  A    between atoms: C6_18  and  N4_19
REMARK    9  A    between atoms: C8_27  and  N8_28
ROOT
HETATM    1  C4  UNL     1      15.995   8.885  28.120  1.00  0.00     0.246 C
ENDROOT
BRANCH   1   2
HETATM    2  O1  UNL     1      16.665   8.336  29.199  1.00  0.00    -0.341 OA
BRANCH   2   3
HETATM    3  C3  UNL     1      17.950   8.554  29.589  1.00  0.00     0.128 A
HETATM    4  C2  UNL     1      18.967   8.268  28.699  1.00  0.00     0.146 A
HETATM    5  N2  UNL     1      20.257   8.466  29.036  1.00  0.00    -0.199 N
HETATM    6  C1  UNL     1      20.503   8.951  30.271  1.00  0.00     0.677 A
ATOM      7  H2  UNL     1      21.014   8.259  28.385  1.00  0.00     0.183 HD
HETATM    8  N9  UNL     1      19.526   9.237  31.155  1.00  0.00    -0.175 N
HETATM    9  C8  UNL     1      18.231   9.049  30.844  1.00  0.00     0.149 A
ATOM     10  H9  UNL     1      19.773   9.603  32.074  1.00  0.00     0.186 HD
BRANCH   6  11
HETATM   11  N1  UNL     1      21.739   9.151  30.623  1.00  0.00    -0.234 N
ATOM     12  H12 UNL     1      22.482   8.822  30.006  1.00  0.00     0.174 HD
ATOM     13  H11 UNL     1      21.922   9.630  31.505  1.00  0.00     0.174 HD
ENDBRANCH   6  11
BRANCH   9  14
HETATM   14  N8  UNL     1      17.303   9.332  31.715  1.00  0.00    -0.383 N
ATOM     15  H82 UNL     1      16.521   9.931  31.452  1.00  0.00     0.157 HD
ATOM     16  H81 UNL     1      17.316   8.978  32.672  1.00  0.00     0.157 HD
ENDBRANCH   9  14
ENDBRANCH   2   3
ENDBRANCH   1   2
BRANCH   1  17
HETATM   17  C5  UNL     1      14.826   9.690  28.644  1.00  0.00     0.262 C
BRANCH  17  18
HETATM   18  N3  UNL     1      14.235   9.026  29.764  1.00  0.00    -0.043 N
ATOM     19  H33 UNL     1      14.860   8.326  30.166  1.00  0.00     0.278 HD
ATOM     20  H32 UNL     1      14.158   9.639  30.575  1.00  0.00     0.278 HD
ATOM     21  H31 UNL     1      13.335   8.628  29.500  1.00  0.00     0.278 HD
ENDBRANCH  17  18
BRANCH  17  22
HETATM   22  O2  UNL     1      13.859   9.804  27.641  1.00  0.00    -0.362 OA
ATOM     23  H2  UNL     1      14.180   9.391  26.848  1.00  0.00     0.212 HD
ENDBRANCH  17  22
BRANCH  17  24
HETATM   24  C6  UNL     1      15.243  11.092  29.028  1.00  0.00     0.222 C
BRANCH  24  25
HETATM   25  N4  UNL     1      15.830  11.761  27.889  1.00  0.00    -0.266 N
HETATM   26  C7  UNL     1      17.105  12.172  27.803  1.00  0.00     0.220 A
HETATM   27  N5  UNL     1      17.274  12.746  26.599  1.00  0.00    -0.279 N
HETATM   28  N6  UNL     1      16.115  12.676  25.982  1.00  0.00    -0.227 N
ATOM     29  H5  UNL     1      18.134  13.156  26.235  1.00  0.00     0.189 HD
HETATM   30  N7  UNL     1      15.232  12.083  26.749  1.00  0.00    -0.225 N
ATOM     31  H6  UNL     1      15.929  13.032  25.044  1.00  0.00     0.210 HD
ATOM     32  H7  UNL     1      14.258  11.900  26.510  1.00  0.00     0.210 HD
ENDBRANCH  24  25
ENDBRANCH  17  24
ENDBRANCH   1  17
TORSDOF 9
ENDMDL