MODEL 5
REMARK VINA RESULT: -6.278470541      1.578      3.956
REMARK  11 active torsions:
REMARK  status: ('A' for Active; 'I' for Inactive)
REMARK    1  A    between atoms: C2_2  and  N1_3
REMARK    2  A    between atoms: C2_2  and  C3_7
REMARK    3  A    between atoms: C3_7  and  C4_8
REMARK    4  A    between atoms: C4_8  and  N2_9
REMARK    5  A    between atoms: N2_9  and  C5_10
REMARK    6  A    between atoms: N2_9  and  C7_16
REMARK    7  A    between atoms: C5_10  and  C6_11
REMARK    8  A    between atoms: C6_11  and  N3_12
REMARK    9  A    between atoms: C8_19  and  N5_20
REMARK   10  A    between atoms: N6_23  and  N7_24
REMARK   11  A    between atoms: C9_27  and  N8_28
ROOT
HETATM    1  C7  UNL     1      17.864  10.518  29.244  1.00  0.00     0.709 A
HETATM    2  N4  UNL     1      17.163   9.585  29.961  1.00  0.00    -0.020 N
ATOM      3  H4  UNL     1      16.151   9.531  29.850  1.00  0.00     0.203 HD
HETATM    4  C8  UNL     1      17.777   8.734  30.811  1.00  0.00     0.726 A
HETATM    5  N6  UNL     1      19.114   8.853  30.916  1.00  0.00     0.084 N
HETATM    6  C9  UNL     1      19.815   9.771  30.214  1.00  0.00     0.726 A
HETATM    7  N9  UNL     1      19.191  10.613  29.370  1.00  0.00    -0.020 N
ATOM      8  H9  UNL     1      19.718  11.306  28.840  1.00  0.00     0.203 HD
ENDROOT
BRANCH   1   9
HETATM    9  N2  UNL     1      17.129  11.341  28.374  1.00  0.00    -0.215 N
BRANCH   9  10
HETATM   10  C4  UNL     1      17.853  11.856  27.210  1.00  0.00     0.143 C
BRANCH  10  11
HETATM   11  C3  UNL     1      17.867  13.354  27.182  1.00  0.00     0.052 C
BRANCH  11  12
HETATM   12  C2  UNL     1      19.078  13.826  27.956  1.00  0.00     0.181 C
HETATM   13  C1  UNL     1      19.929  14.761  27.131  1.00  0.00     0.039 C
BRANCH  12  14
HETATM   14  N1  UNL     1      18.559  14.488  29.145  1.00  0.00    -0.075 N
ATOM     15  H13 UNL     1      18.521  13.852  29.941  1.00  0.00     0.274 HD
ATOM     16  H12 UNL     1      19.226  15.165  29.517  1.00  0.00     0.274 HD
ATOM     17  H11 UNL     1      17.651  14.918  28.966  1.00  0.00     0.274 HD
ENDBRANCH  12  14
ENDBRANCH  11  12
ENDBRANCH  10  11
ENDBRANCH   9  10
BRANCH   9  18
HETATM   18  C5  UNL     1      15.754  11.640  28.604  1.00  0.00     0.168 C
BRANCH  18  19
HETATM   19  C6  UNL     1      14.873  11.112  27.523  1.00  0.00     0.250 C
BRANCH  19  20
HETATM   20  N3  UNL     1      14.124   9.931  27.918  1.00  0.00    -0.078 N
ATOM     21  H33 UNL     1      13.361  10.179  28.548  1.00  0.00     0.274 HD
ATOM     22  H32 UNL     1      13.582   9.567  27.134  1.00  0.00     0.274 HD
ATOM     23  H31 UNL     1      14.708   9.201  28.325  1.00  0.00     0.274 HD
ENDBRANCH  19  20
ENDBRANCH  18  19
ENDBRANCH   9  18
ENDBRANCH   1   9
BRANCH   4  24
HETATM   24  N5  UNL     1      17.082   7.863  31.464  1.00  0.00    -0.232 N
ATOM     25  H52 UNL     1      17.282   6.863  31.461  1.00  0.00     0.174 HD
ATOM     26  H51 UNL     1      16.281   8.163  32.019  1.00  0.00     0.174 HD
ENDBRANCH   4  24
BRANCH   6  27
HETATM   27  N8  UNL     1      21.096   9.864  30.335  1.00  0.00    -0.232 N
ATOM     28  H82 UNL     1      21.502  10.788  30.484  1.00  0.00     0.174 HD
ATOM     29  H81 UNL     1      21.689   9.036  30.284  1.00  0.00     0.174 HD
ENDBRANCH   6  27
BRANCH   5  30
HETATM   30  N7  UNL     1      19.769   7.969  31.785  1.00  0.00    -0.309 N
ATOM     31  H72 UNL     1      19.445   7.852  32.745  1.00  0.00     0.178 HD
ATOM     32  H71 UNL     1      20.577   7.467  31.416  1.00  0.00     0.178 HD
ENDBRANCH   5  30
TORSDOF 11
ENDMDL