MODEL 5
REMARK VINA RESULT: -7.464644576      2.200      3.351
REMARK  9 active torsions:
REMARK  status: ('A' for Active; 'I' for Inactive)
REMARK    1  A    between atoms: C2_2  and  N2_6
REMARK    2  A    between atoms: N2_6  and  C3_8
REMARK    3  A    between atoms: C3_8  and  C4_9
REMARK    4  A    between atoms: C4_9  and  N3_10
REMARK    5  A    between atoms: N3_10  and  C5_12
REMARK    6  A    between atoms: C6_16  and  N5_17
REMARK    7  A    between atoms: C7_23  and  N9_24
REMARK    8  A    between atoms: C8_27  and  C9_28
REMARK    9  A    between atoms: C9_28  and  O1_29
ROOT
HETATM    1  C5  UNL     1      16.838  12.490  26.631  1.00  0.00     0.427 C
HETATM    2  N4  UNL     1      17.813  11.435  26.840  1.00  0.00    -0.005 N
ATOM      3  H41 UNL     1      18.792  11.722  26.836  1.00  0.00     0.285 HD
ATOM      4  H42 UNL     1      17.925  10.768  26.077  1.00  0.00     0.285 HD
HETATM    5  C6  UNL     1      17.304  10.887  28.110  1.00  0.00     0.362 C
HETATM    6  C8  UNL     1      15.818  10.915  27.835  1.00  0.00     0.202 C
HETATM    7  O2  UNL     1      15.630  11.819  26.792  1.00  0.00    -0.333 OA
ENDROOT
BRANCH   1   8
HETATM    8  N3  UNL     1      16.959  13.145  25.376  1.00  0.00    -0.373 N
ATOM      9  H3  UNL     1      17.807  13.085  24.813  1.00  0.00     0.157 HD
BRANCH   8  10
HETATM   10  C4  UNL     1      15.820  13.894  24.952  1.00  0.00     0.137 C
BRANCH  10  11
HETATM   11  C3  UNL     1      16.202  14.634  23.684  1.00  0.00     0.140 C
BRANCH  11  12
HETATM   12  N2  UNL     1      15.045  14.929  22.882  1.00  0.00    -0.379 N
ATOM     13  H2  UNL     1      14.137  15.105  23.312  1.00  0.00     0.160 HD
BRANCH  12  14
HETATM   14  C2  UNL     1      15.209  14.968  21.468  1.00  0.00     0.066 C
HETATM   15  C1  UNL     1      14.198  14.287  20.594  1.00  0.00     0.088 C
HETATM   16  N1  UNL     1      16.204  15.573  20.925  1.00  0.00    -0.389 N
ATOM     17  H12 UNL     1      16.321  15.601  19.913  1.00  0.00     0.157 HD
ATOM     18  H11 UNL     1      16.891  16.036  21.519  1.00  0.00     0.157 HD
ENDBRANCH  12  14
ENDBRANCH  11  12
ENDBRANCH  10  11
ENDBRANCH   8  10
ENDBRANCH   1   8
BRANCH   5  19
HETATM   19  N5  UNL     1      17.817   9.595  28.394  1.00  0.00    -0.075 N
HETATM   20  N6  UNL     1      17.244   8.427  28.186  1.00  0.00    -0.207 N
HETATM   21  N7  UNL     1      18.066   7.471  28.595  1.00  0.00     0.009 NA
ATOM     22  H6  UNL     1      16.320   8.282  27.777  1.00  0.00     0.206 HD
HETATM   23  N8  UNL     1      19.176   8.006  29.072  1.00  0.00    -0.114 N
HETATM   24  C7  UNL     1      19.018   9.339  28.945  1.00  0.00     0.708 A
ATOM     25  H8  UNL     1      19.983   7.514  29.456  1.00  0.00     0.203 HD
BRANCH  24  26
HETATM   26  N9  UNL     1      19.903  10.224  29.305  1.00  0.00    -0.232 N
ATOM     27  H92 UNL     1      19.952  10.649  30.232  1.00  0.00     0.174 HD
ATOM     28  H91 UNL     1      20.648  10.604  28.720  1.00  0.00     0.174 HD
ENDBRANCH  24  26
ENDBRANCH   5  19
BRANCH   6  29
HETATM   29  C9  UNL     1      15.128  11.381  29.104  1.00  0.00     0.200 C
BRANCH  29  30
HETATM   30  O1  UNL     1      14.759  10.316  29.918  1.00  0.00    -0.398 OA
ATOM     31  H1  UNL     1      14.056   9.804  29.537  1.00  0.00     0.209 HD
ENDBRANCH  29  30
ENDBRANCH   6  29
TORSDOF 9
ENDMDL