MODEL 1
REMARK VINA RESULT: -9.531881768      0.000      0.000
REMARK  9 active torsions:
REMARK  status: ('A' for Active; 'I' for Inactive)
REMARK    1  A    between atoms: C2_2  and  C3_3
REMARK    2  A    between atoms: C3_3  and  C4_4
REMARK    3  A    between atoms: C4_4  and  C5_5
REMARK    4  A    between atoms: C5_5  and  C6_6
REMARK    5  A    between atoms: C6_6  and  C7_7
REMARK    6  A    between atoms: C10_10  and  N1_11
REMARK       I    between atoms: N1_11  and  C11_13
REMARK    7  A    between atoms: C11_13  and  C12_15
REMARK    8  A    between atoms: C14_19  and  C15_20
REMARK    9  A    between atoms: C21_26  and  C22_27
ROOT
HETATM    1  C12 UNL     1      18.808  22.344  45.016  1.00  0.00     0.048 A
HETATM    2  C13 UNL     1      17.782  21.741  45.687  1.00  0.00     0.105 A
HETATM    3  N2  UNL     1      16.532  21.640  45.125  1.00  0.00    -0.364 N
ATOM      4  H2  UNL     1      15.779  21.186  45.642  1.00  0.00     0.165 HD
HETATM    5  C14 UNL     1      16.292  22.135  43.897  1.00  0.00     0.053 A
HETATM    6  C21 UNL     1      17.285  22.755  43.169  1.00  0.00     0.003 A
HETATM    7  C28 UNL     1      18.534  22.849  43.748  1.00  0.00     0.033 A
ENDROOT
BRANCH   1   8
HETATM    8  C11 UNL     1      20.133  22.437  45.611  1.00  0.00     0.257 C
HETATM    9  N1  UNL     1      20.478  21.688  46.757  1.00  0.00    -0.323 N
ATOM     10  H1  UNL     1      19.748  21.083  47.131  1.00  0.00     0.169 HD
HETATM   11  O1  UNL     1      20.988  23.199  45.095  1.00  0.00    -0.267 OA
BRANCH   9  12
HETATM   12  C10 UNL     1      21.701  21.673  47.446  1.00  0.00     0.035 A
HETATM   13  C9  UNL     1      22.341  20.577  47.958  1.00  0.00     0.030 A
HETATM   14  C8  UNL     1      23.551  20.698  48.656  1.00  0.00     0.009 A
HETATM   15  C7  UNL     1      24.146  21.911  48.858  1.00  0.00    -0.058 A
HETATM   16  C30 UNL     1      23.517  23.018  48.349  1.00  0.00     0.009 A
HETATM   17  C29 UNL     1      22.324  22.915  47.659  1.00  0.00     0.030 A
BRANCH  15  18
HETATM   18  C6  UNL     1      25.458  22.040  49.621  1.00  0.00     0.038 C
BRANCH  18  19
HETATM   19  C5  UNL     1      25.200  22.924  50.764  1.00  0.00     0.005 C
BRANCH  19  20
HETATM   20  C4  UNL     1      24.694  22.344  51.992  1.00  0.00     0.000 C
BRANCH  20  21
HETATM   21  C3  UNL     1      23.994  23.171  52.978  1.00  0.00    -0.000 C
BRANCH  21  22
HETATM   22  C2  UNL     1      23.889  24.610  52.711  1.00  0.00    -0.005 C
HETATM   23  C1  UNL     1      22.854  25.271  53.669  1.00  0.00     0.005 C
ENDBRANCH  21  22
ENDBRANCH  20  21
ENDBRANCH  19  20
ENDBRANCH  18  19
ENDBRANCH  15  18
ENDBRANCH   9  12
ENDBRANCH   1   8
BRANCH   6  24
HETATM   24  C22 UNL     1      17.003  23.286  41.840  1.00  0.00    -0.024 A
HETATM   25  C23 UNL     1      16.759  24.643  41.681  1.00  0.00     0.012 A
HETATM   26  C24 UNL     1      16.488  25.235  40.485  1.00  0.00     0.001 A
HETATM   27  C25 UNL     1      16.452  24.441  39.355  1.00  0.00     0.000 A
HETATM   28  C26 UNL     1      16.691  23.080  39.471  1.00  0.00     0.001 A
HETATM   29  C27 UNL     1      16.964  22.512  40.703  1.00  0.00     0.012 A
ENDBRANCH   6  24
BRANCH   5  30
HETATM   30  C15 UNL     1      14.933  21.972  43.396  1.00  0.00    -0.009 A
HETATM   31  C16 UNL     1      14.041  23.024  43.450  1.00  0.00     0.014 A
HETATM   32  C17 UNL     1      12.731  22.909  42.983  1.00  0.00     0.001 A
HETATM   33  C18 UNL     1      12.353  21.686  42.454  1.00  0.00     0.000 A
HETATM   34  C19 UNL     1      13.262  20.638  42.406  1.00  0.00     0.001 A
HETATM   35  C20 UNL     1      14.542  20.769  42.869  1.00  0.00     0.014 A
ENDBRANCH   5  30
TORSDOF 9
ENDMDL