MODEL 1
REMARK VINA RESULT: -7.682355798      0.000      0.000
REMARK  10 active torsions:
REMARK  status: ('A' for Active; 'I' for Inactive)
REMARK    1  A    between atoms: C2_2  and  C3_3
REMARK    2  A    between atoms: C3_3  and  C4_4
REMARK    3  A    between atoms: C4_4  and  C5_5
REMARK    4  A    between atoms: C5_5  and  C6_6
REMARK    5  A    between atoms: C6_6  and  C7_7
REMARK    6  A    between atoms: C7_7  and  C8_8
REMARK    7  A    between atoms: C8_8  and  S1_9
REMARK    8  A    between atoms: S1_9  and  C9_10
REMARK    9  A    between atoms: C14_15  and  C15_16
REMARK       I    between atoms: C15_16  and  N1_18
REMARK   10  A    between atoms: N1_18  and  C16_20
ROOT
HETATM    1  C15 UNL     1      17.352  23.003  42.405  1.00  0.00     0.253 C
HETATM    2  O1  UNL     1      17.907  24.125  42.298  1.00  0.00    -0.268 OA
HETATM    3  N1  UNL     1      16.601  22.526  41.286  1.00  0.00    -0.352 N
ATOM      4  H1  UNL     1      16.133  21.621  41.345  1.00  0.00     0.163 HD
ENDROOT
BRANCH   1   5
HETATM    5  C14 UNL     1      17.521  22.289  43.640  1.00  0.00     0.048 A
HETATM    6  C9  UNL     1      16.726  22.514  44.739  1.00  0.00     0.016 A
HETATM    7  C10 UNL     1      16.917  21.831  45.918  1.00  0.00     0.019 A
HETATM    8  C11 UNL     1      17.908  20.882  46.069  1.00  0.00     0.001 A
HETATM    9  C12 UNL     1      18.706  20.651  44.972  1.00  0.00     0.001 A
HETATM   10  C13 UNL     1      18.529  21.328  43.786  1.00  0.00     0.018 A
BRANCH   6  11
HETATM   11  S1  UNL     1      15.369  23.674  44.594  1.00  0.00    -0.129 SA
BRANCH  11  12
HETATM   12  C8  UNL     1      14.414  23.678  46.106  1.00  0.00     0.079 C
BRANCH  12  13
HETATM   13  C7  UNL     1      13.049  23.052  45.903  1.00  0.00     0.010 C
BRANCH  13  14
HETATM   14  C6  UNL     1      13.085  22.377  44.557  1.00  0.00     0.001 C
BRANCH  14  15
HETATM   15  C5  UNL     1      12.014  22.771  43.608  1.00  0.00     0.000 C
BRANCH  15  16
HETATM   16  C4  UNL     1      12.421  22.788  42.174  1.00  0.00     0.000 C
BRANCH  16  17
HETATM   17  C3  UNL     1      13.543  21.759  42.003  1.00  0.00    -0.000 C
BRANCH  17  18
HETATM   18  C2  UNL     1      13.120  20.565  41.194  1.00  0.00    -0.005 C
HETATM   19  C1  UNL     1      13.009  19.390  42.164  1.00  0.00     0.005 C
ENDBRANCH  17  18
ENDBRANCH  16  17
ENDBRANCH  15  16
ENDBRANCH  14  15
ENDBRANCH  13  14
ENDBRANCH  12  13
ENDBRANCH  11  12
ENDBRANCH   6  11
ENDBRANCH   1   5
BRANCH   3  20
HETATM   20  C16 UNL     1      16.494  23.308  40.068  1.00  0.00     0.084 C
HETATM   21  C17 UNL     1      15.990  22.394  38.986  1.00  0.00     0.025 C
HETATM   22  C18 UNL     1      17.089  21.972  38.051  1.00  0.00     0.002 C
HETATM   23  C19 UNL     1      16.578  21.717  36.653  1.00  0.00     0.000 C
HETATM   24  C20 UNL     1      17.134  22.724  35.661  1.00  0.00     0.000 C
HETATM   25  C21 UNL     1      16.125  23.806  35.466  1.00  0.00     0.000 C
HETATM   26  C22 UNL     1      16.710  25.196  35.488  1.00  0.00     0.000 C
HETATM   27  C23 UNL     1      16.948  25.714  36.877  1.00  0.00     0.000 C
HETATM   28  C24 UNL     1      15.655  26.034  37.564  1.00  0.00     0.000 C
HETATM   29  C25 UNL     1      15.829  26.692  38.900  1.00  0.00     0.000 C
HETATM   30  C26 UNL     1      16.441  25.812  39.955  1.00  0.00     0.002 C
HETATM   31  C27 UNL     1      15.650  24.555  40.220  1.00  0.00     0.025 C
ENDBRANCH   3  20
TORSDOF 10
ENDMDL