MODEL 4
REMARK VINA RESULT: -8.497897268      3.701     10.522
REMARK  12 active torsions:
REMARK  status: ('A' for Active; 'I' for Inactive)
REMARK    1  A    between atoms: C1_2  and  N1_3
REMARK    2  A    between atoms: C1_2  and  O1_21
REMARK    3  A    between atoms: N1_3  and  C2_5
REMARK    4  A    between atoms: C2_5  and  C3_6
REMARK    5  A    between atoms: C3_6  and  C4_7
REMARK    6  A    between atoms: C4_7  and  C5_8
REMARK    7  A    between atoms: C5_8  and  C6_9
REMARK    8  A    between atoms: C6_9  and  C7_10
REMARK    9  A    between atoms: C7_10  and  C8_11
REMARK   10  A    between atoms: C8_11  and  C9_12
REMARK   11  A    between atoms: C9_12  and  C10_13
REMARK   12  A    between atoms: O1_21  and  C18_22
ROOT
HETATM    1  C2  UNL     1      11.863  19.784  39.774  1.00  0.00     0.122 C
ENDROOT
BRANCH   1   2
HETATM    2  N1  UNL     1      12.100  18.690  38.854  1.00  0.00    -0.361 N
ATOM      3  H1  UNL     1      12.922  18.096  38.958  1.00  0.00     0.162 HD
BRANCH   2   4
HETATM    4  C1  UNL     1      11.179  18.458  37.813  1.00  0.00     0.215 C
HETATM    5  S1  UNL     1      11.191  19.426  36.509  1.00  0.00    -0.033 SA
BRANCH   4   6
HETATM    6  O1  UNL     1      10.277  17.429  37.885  1.00  0.00    -0.284 OA
BRANCH   6   7
HETATM    7  C18 UNL     1       8.969  17.648  38.230  1.00  0.00     0.089 A
HETATM    8  C19 UNL     1       8.559  18.903  38.618  1.00  0.00     0.038 A
HETATM    9  C20 UNL     1       7.241  19.147  38.970  1.00  0.00     0.004 A
HETATM   10  C21 UNL     1       6.354  18.097  38.919  1.00  0.00     0.012 A
HETATM   11  C22 UNL     1       6.758  16.829  38.528  1.00  0.00    -0.023 A
HETATM   12  C23 UNL     1       5.836  15.792  38.487  1.00  0.00     0.012 A
HETATM   13  C27 UNL     1       8.066  16.586  38.178  1.00  0.00     0.008 A
HETATM   14  C24 UNL     1       6.218  14.525  38.102  1.00  0.00     0.001 A
HETATM   15  C25 UNL     1       7.551  14.303  37.752  1.00  0.00     0.001 A
HETATM   16  C26 UNL     1       8.485  15.338  37.789  1.00  0.00     0.015 A
ENDBRANCH   6   7
ENDBRANCH   4   6
ENDBRANCH   2   4
ENDBRANCH   1   2
BRANCH   1  17
HETATM   17  C3  UNL     1      13.065  20.154  40.595  1.00  0.00     0.020 C
BRANCH  17  18
HETATM   18  C4  UNL     1      12.776  19.827  42.042  1.00  0.00     0.002 C
BRANCH  18  19
HETATM   19  C5  UNL     1      13.572  20.644  43.011  1.00  0.00     0.000 C
BRANCH  19  20
HETATM   20  C6  UNL     1      12.702  21.624  43.780  1.00  0.00     0.000 C
BRANCH  20  21
HETATM   21  C7  UNL     1      12.721  22.929  43.030  1.00  0.00     0.000 C
BRANCH  21  22
HETATM   22  C8  UNL     1      14.125  23.410  42.785  1.00  0.00     0.000 C
BRANCH  22  23
HETATM   23  C9  UNL     1      14.757  23.905  44.038  1.00  0.00     0.004 C
BRANCH  23  24
HETATM   24  C10 UNL     1      16.115  23.222  44.290  1.00  0.00    -0.014 C
HETATM   25  C11 UNL     1      16.587  22.668  42.995  1.00  0.00     0.004 C
HETATM   26  C12 UNL     1      18.115  22.765  42.857  1.00  0.00     0.000 C
HETATM   27  C13 UNL     1      18.805  21.542  43.364  1.00  0.00     0.000 C
HETATM   28  C14 UNL     1      18.837  21.629  44.886  1.00  0.00     0.000 C
HETATM   29  C15 UNL     1      17.934  20.626  45.518  1.00  0.00     0.000 C
HETATM   30  C16 UNL     1      16.458  20.915  45.264  1.00  0.00     0.000 C
HETATM   31  C17 UNL     1      16.084  22.329  45.454  1.00  0.00     0.004 C
ENDBRANCH  23  24
ENDBRANCH  22  23
ENDBRANCH  21  22
ENDBRANCH  20  21
ENDBRANCH  19  20
ENDBRANCH  18  19
ENDBRANCH  17  18
ENDBRANCH   1  17
TORSDOF 12
ENDMDL