MODEL 4
REMARK VINA RESULT: -8.225681790      2.877     10.387
REMARK  11 active torsions:
REMARK  status: ('A' for Active; 'I' for Inactive)
REMARK    1  A    between atoms: C8_8  and  C9_9
REMARK    2  A    between atoms: C9_9  and  C10_10
REMARK    3  A    between atoms: C10_10  and  C11_11
REMARK    4  A    between atoms: C11_11  and  C12_12
REMARK    5  A    between atoms: C12_12  and  C13_13
REMARK    6  A    between atoms: C13_13  and  C14_14
REMARK    7  A    between atoms: C14_14  and  C15_15
REMARK    8  A    between atoms: C15_15  and  C16_16
REMARK    9  A    between atoms: C16_16  and  C17_17
REMARK   10  A    between atoms: C21_24  and  S1_25
REMARK   11  A    between atoms: S1_25  and  C22_26
ROOT
HETATM    1  C17 UNL     1      15.116  21.848  44.646  1.00  0.00     0.199 C
HETATM    2  N1  UNL     1      16.427  21.608  45.115  1.00  0.00    -0.070 N
ATOM      3  H11 UNL     1      17.114  22.194  44.641  1.00  0.00     0.277 HD
ATOM      4  H12 UNL     1      16.776  20.697  44.819  1.00  0.00     0.277 HD
HETATM    5  C18 UNL     1      16.484  21.767  46.552  1.00  0.00     0.233 C
HETATM    6  C19 UNL     1      15.346  22.587  47.074  1.00  0.00     0.029 C
HETATM    7  C20 UNL     1      14.779  23.633  46.207  1.00  0.00     0.019 C
HETATM    8  C21 UNL     1      14.632  23.224  44.701  1.00  0.00     0.078 C
ENDROOT
BRANCH   1   9
HETATM    9  C16 UNL     1      14.738  21.016  43.433  1.00  0.00     0.034 C
BRANCH   9  10
HETATM   10  C15 UNL     1      13.306  21.200  43.054  1.00  0.00     0.002 C
BRANCH  10  11
HETATM   11  C14 UNL     1      13.150  21.279  41.545  1.00  0.00     0.000 C
BRANCH  11  12
HETATM   12  C13 UNL     1      13.049  19.866  40.976  1.00  0.00     0.000 C
BRANCH  12  13
HETATM   13  C12 UNL     1      11.988  19.826  39.893  1.00  0.00     0.000 C
BRANCH  13  14
HETATM   14  C11 UNL     1      12.399  19.080  38.666  1.00  0.00     0.000 C
BRANCH  14  15
HETATM   15  C10 UNL     1      11.261  18.915  37.656  1.00  0.00     0.005 C
BRANCH  15  16
HETATM   16  C9  UNL     1      10.489  17.677  37.957  1.00  0.00     0.039 C
BRANCH  16  17
HETATM   17  C8  UNL     1       9.063  17.879  38.282  1.00  0.00    -0.047 A
HETATM   18  C3  UNL     1       8.185  16.789  38.232  1.00  0.00    -0.020 A
HETATM   19  C2  UNL     1       7.958  15.385  38.009  1.00  0.00     0.013 A
HETATM   20  C4  UNL     1       6.847  16.910  38.497  1.00  0.00    -0.025 A
HETATM   21  C1  UNL     1       6.654  15.482  38.262  1.00  0.00     0.013 A
HETATM   22  C5  UNL     1       6.300  18.129  38.829  1.00  0.00     0.012 A
HETATM   23  C6  UNL     1       7.130  19.225  38.889  1.00  0.00     0.001 A
HETATM   24  C7  UNL     1       8.495  19.088  38.617  1.00  0.00     0.008 A
ENDBRANCH  16  17
ENDBRANCH  15  16
ENDBRANCH  14  15
ENDBRANCH  13  14
ENDBRANCH  12  13
ENDBRANCH  11  12
ENDBRANCH  10  11
ENDBRANCH   9  10
ENDBRANCH   1   9
BRANCH   8  25
HETATM   25  S1  UNL     1      15.337  24.456  43.678  1.00  0.00    -0.157 SA
BRANCH  25  26
HETATM   26  C22 UNL     1      15.896  24.116  42.057  1.00  0.00     0.047 C
HETATM   27  C23 UNL     1      16.402  25.243  41.267  1.00  0.00     0.015 C
HETATM   28  C24 UNL     1      16.443  24.948  39.767  1.00  0.00     0.001 C
HETATM   29  C25 UNL     1      15.654  23.744  39.371  1.00  0.00     0.000 C
HETATM   30  C26 UNL     1      16.234  22.450  39.868  1.00  0.00     0.000 C
HETATM   31  C27 UNL     1      17.413  22.622  40.767  1.00  0.00     0.001 C
HETATM   32  C28 UNL     1      17.097  23.119  42.150  1.00  0.00     0.015 C
ENDBRANCH  25  26
ENDBRANCH   8  25
TORSDOF 11
ENDMDL