MODEL 3
REMARK VINA RESULT: -7.462404581      8.056     12.864
REMARK  9 active torsions:
REMARK  status: ('A' for Active; 'I' for Inactive)
REMARK    1  A    between atoms: C2_2  and  C3_3
REMARK    2  A    between atoms: C9_9  and  S1_10
REMARK    3  A    between atoms: C9_9  and  N1_17
REMARK    4  A    between atoms: S1_10  and  C10_11
REMARK    5  A    between atoms: C10_11  and  C13_14
REMARK    6  A    between atoms: C13_14  and  C14_15
REMARK    7  A    between atoms: N1_17  and  C16_18
REMARK    8  A    between atoms: N1_17  and  C23_25
REMARK    9  A    between atoms: C16_18  and  C17_19
ROOT
HETATM    1  C3  UNL     1       7.985  15.975  34.583  1.00  0.00     0.039 C
HETATM    2  C4  UNL     1       7.493  15.708  33.129  1.00  0.00     0.013 C
HETATM    3  C5  UNL     1       5.994  15.756  33.040  1.00  0.00     0.001 C
HETATM    4  C6  UNL     1       5.520  17.079  33.609  1.00  0.00     0.004 C
HETATM    5  C7  UNL     1       6.066  17.305  34.985  1.00  0.00     0.038 C
HETATM    6  C8  UNL     1       7.637  17.310  34.987  1.00  0.00    -0.038 C
HETATM    7  C9  UNL     1       8.111  18.162  36.041  1.00  0.00     0.075 C
ENDROOT
BRANCH   7   8
HETATM    8  S1  UNL     1       7.241  19.795  35.967  1.00  0.00    -0.102 SA
BRANCH   8   9
HETATM    9  C10 UNL     1       7.940  21.025  34.912  1.00  0.00     0.007 C
HETATM   10  C11 UNL     1       8.185  20.324  33.553  1.00  0.00     0.027 C
HETATM   11  C12 UNL     1       7.137  22.221  34.560  1.00  0.00     0.027 C
BRANCH   9  12
HETATM   12  C13 UNL     1       9.290  21.366  35.470  1.00  0.00     0.019 C
BRANCH  12  13
HETATM   13  C14 UNL     1      10.479  21.264  34.629  1.00  0.00    -0.003 C
HETATM   14  C15 UNL     1      11.165  22.518  34.205  1.00  0.00     0.005 C
ENDBRANCH  12  13
ENDBRANCH   9  12
ENDBRANCH   8   9
ENDBRANCH   7   8
BRANCH   7  15
HETATM   15  N1  UNL     1       8.414  17.955  37.386  1.00  0.00    -0.350 N
BRANCH  15  16
HETATM   16  C16 UNL     1       7.430  17.683  38.337  1.00  0.00     0.069 C
BRANCH  16  17
HETATM   17  C17 UNL     1       7.049  16.235  38.589  1.00  0.00     0.024 C
HETATM   18  C18 UNL     1       5.691  15.949  38.067  1.00  0.00     0.010 C
HETATM   19  C19 UNL     1       5.299  14.500  38.101  1.00  0.00     0.001 C
HETATM   20  C20 UNL     1       6.250  13.825  37.112  1.00  0.00     0.000 C
HETATM   21  C21 UNL     1       7.581  13.899  37.770  1.00  0.00     0.001 C
HETATM   22  C22 UNL     1       8.090  15.259  38.089  1.00  0.00     0.010 C
ENDBRANCH  16  17
ENDBRANCH  15  16
BRANCH  15  23
HETATM   23  C23 UNL     1       9.747  18.220  37.822  1.00  0.00     0.093 C
HETATM   24  C24 UNL     1       9.976  19.455  38.634  1.00  0.00     0.053 C
HETATM   25  C25 UNL     1      11.360  19.497  39.246  1.00  0.00     0.234 C
HETATM   26  N2  UNL     1      12.320  18.720  38.491  1.00  0.00    -0.075 N
HETATM   27  C26 UNL     1      12.014  19.071  37.116  1.00  0.00     0.234 C
ATOM     28  H22 UNL     1      13.292  18.866  38.762  1.00  0.00     0.277 HD
ATOM     29  H21 UNL     1      12.307  17.719  38.688  1.00  0.00     0.277 HD
HETATM   30  C27 UNL     1      10.817  18.162  36.760  1.00  0.00     0.053 C
ENDBRANCH  15  23
ENDBRANCH   7  15
BRANCH   1  31
HETATM   31  C2  UNL     1       9.302  15.403  34.573  1.00  0.00    -0.028 C
HETATM   32  C1  UNL     1      10.308  15.858  33.841  1.00  0.00     0.007 C
ENDBRANCH   1  31
TORSDOF 9
ENDMDL