MODEL 5
REMARK VINA RESULT: -8.007125856      7.400     10.687
REMARK  11 active torsions:
REMARK  status: ('A' for Active; 'I' for Inactive)
REMARK    1  A    between atoms: C2_2  and  C3_3
REMARK    2  A    between atoms: C3_3  and  C4_4
REMARK    3  A    between atoms: C4_4  and  C5_5
REMARK    4  A    between atoms: C5_5  and  C6_6
REMARK    5  A    between atoms: C6_6  and  C7_7
REMARK    6  A    between atoms: C7_7  and  C8_8
REMARK    7  A    between atoms: C8_8  and  C9_9
REMARK    8  A    between atoms: C9_9  and  C10_10
REMARK    9  A    between atoms: C10_10  and  C11_11
REMARK   10  A    between atoms: C11_11  and  O1_15
REMARK   11  A    between atoms: O1_15  and  N2_16
ROOT
HETATM    1  N2  UNL     1      12.740  19.160  38.962  1.00  0.00    -0.267 N
ATOM      2  H2  UNL     1      13.693  18.798  38.974  1.00  0.00     0.194 HD
HETATM    3  C12 UNL     1      11.997  18.949  37.920  1.00  0.00     0.015 C
HETATM    4  C13 UNL     1      12.577  18.192  36.802  1.00  0.00     0.060 C
HETATM    5  C14 UNL     1      11.628  17.123  36.395  1.00  0.00    -0.004 C
HETATM    6  C15 UNL     1      12.442  16.146  35.522  1.00  0.00     0.005 C
HETATM    7  C16 UNL     1      12.298  16.690  34.103  1.00  0.00     0.001 C
HETATM    8  C17 UNL     1      11.311  17.857  34.202  1.00  0.00     0.006 C
HETATM    9  C18 UNL     1      10.565  17.498  35.460  1.00  0.00    -0.001 C
HETATM   10  C19 UNL     1       9.550  18.502  35.888  1.00  0.00    -0.032 C
HETATM   11  C20 UNL     1       8.924  18.959  34.556  1.00  0.00     0.010 C
HETATM   12  C21 UNL     1       7.768  19.866  34.739  1.00  0.00     0.001 C
HETATM   13  C22 UNL     1       7.908  20.798  35.892  1.00  0.00     0.000 C
HETATM   14  C23 UNL     1       9.273  20.952  36.437  1.00  0.00     0.006 C
HETATM   15  C24 UNL     1      10.108  19.733  36.524  1.00  0.00     0.004 C
HETATM   16  C25 UNL     1      10.600  19.499  37.942  1.00  0.00     0.038 C
HETATM   17  C26 UNL     1       9.759  18.603  38.754  1.00  0.00     0.011 C
HETATM   18  C27 UNL     1       8.507  18.118  38.154  1.00  0.00     0.002 C
HETATM   19  C28 UNL     1       8.516  17.792  36.719  1.00  0.00     0.010 C
ENDROOT
BRANCH   1  20
HETATM   20  O1  UNL     1      12.279  19.854  40.045  1.00  0.00    -0.225 OA
BRANCH  20  21
HETATM   21  C11 UNL     1      13.085  20.065  41.152  1.00  0.00     0.140 C
HETATM   22  N1  UNL     1      13.032  19.221  42.120  1.00  0.00    -0.382 N
ATOM     23  H12 UNL     1      13.626  19.376  42.935  1.00  0.00     0.158 HD
ATOM     24  H11 UNL     1      12.417  18.408  42.096  1.00  0.00     0.158 HD
BRANCH  21  25
HETATM   25  C10 UNL     1      13.981  21.248  41.187  1.00  0.00     0.086 C
BRANCH  25  26
HETATM   26  C9  UNL     1      13.756  22.119  42.384  1.00  0.00     0.008 C
BRANCH  26  27
HETATM   27  C8  UNL     1      12.473  22.915  42.296  1.00  0.00     0.000 C
BRANCH  27  28
HETATM   28  C7  UNL     1      11.833  22.849  43.687  1.00  0.00     0.000 C
BRANCH  28  29
HETATM   29  C6  UNL     1      12.798  22.265  44.669  1.00  0.00     0.000 C
BRANCH  29  30
HETATM   30  C5  UNL     1      12.671  22.899  46.016  1.00  0.00     0.000 C
BRANCH  30  31
HETATM   31  C4  UNL     1      13.989  22.996  46.702  1.00  0.00     0.000 C
BRANCH  31  32
HETATM   32  C3  UNL     1      15.118  22.955  45.687  1.00  0.00    -0.000 C
BRANCH  32  33
HETATM   33  C2  UNL     1      16.194  21.979  46.053  1.00  0.00    -0.005 C
HETATM   34  C1  UNL     1      16.410  20.935  44.964  1.00  0.00     0.005 C
ENDBRANCH  32  33
ENDBRANCH  31  32
ENDBRANCH  30  31
ENDBRANCH  29  30
ENDBRANCH  28  29
ENDBRANCH  27  28
ENDBRANCH  26  27
ENDBRANCH  25  26
ENDBRANCH  21  25
ENDBRANCH  20  21
ENDBRANCH   1  20
TORSDOF 11
ENDMDL