MODEL 5
REMARK VINA RESULT: -8.462211704      0.798      3.690
REMARK  12 active torsions:
REMARK  status: ('A' for Active; 'I' for Inactive)
REMARK    1  A    between atoms: O1_1  and  C1_3
REMARK    2  A    between atoms: C1_3  and  N1_4
REMARK    3  A    between atoms: C1_3  and  N2_20
REMARK    4  A    between atoms: N1_4  and  C2_6
REMARK    5  A    between atoms: C2_6  and  C3_7
REMARK    6  A    between atoms: C3_7  and  C4_8
REMARK    7  A    between atoms: C4_8  and  C5_9
REMARK    8  A    between atoms: C5_9  and  C6_10
REMARK    9  A    between atoms: C6_10  and  C7_11
REMARK   10  A    between atoms: C7_11  and  C8_12
REMARK   11  A    between atoms: N2_20  and  C16_21
REMARK   12  A    between atoms: N2_20  and  C23_28
ROOT
HETATM    1  C1  UNL     1      14.689  23.611  43.956  1.00  0.00     0.215 C
ENDROOT
BRANCH   1   2
HETATM    2  O1  UNL     1      14.699  24.689  44.686  1.00  0.00    -0.333 OA
ATOM      3  H1  UNL     1      15.301  25.370  44.411  1.00  0.00     0.220 HD
ENDBRANCH   1   2
BRANCH   1   4
HETATM    4  N1  UNL     1      13.434  23.158  43.558  1.00  0.00    -0.356 N
ATOM      5  H1  UNL     1      12.837  23.778  43.011  1.00  0.00     0.163 HD
BRANCH   4   6
HETATM    6  C2  UNL     1      12.948  21.834  43.893  1.00  0.00     0.123 C
BRANCH   6   7
HETATM    7  C3  UNL     1      13.302  20.799  42.885  1.00  0.00     0.020 C
BRANCH   7   8
HETATM    8  C4  UNL     1      13.046  21.392  41.491  1.00  0.00     0.002 C
BRANCH   8   9
HETATM    9  C5  UNL     1      13.266  20.262  40.516  1.00  0.00     0.000 C
BRANCH   9  10
HETATM   10  C6  UNL     1      11.997  19.608  40.057  1.00  0.00     0.000 C
BRANCH  10  11
HETATM   11  C7  UNL     1      12.185  19.197  38.622  1.00  0.00     0.004 C
BRANCH  11  12
HETATM   12  C8  UNL     1      10.908  19.338  37.819  1.00  0.00    -0.014 C
HETATM   13  C9  UNL     1      10.480  18.003  37.284  1.00  0.00     0.004 C
HETATM   14  C10 UNL     1      10.040  17.029  38.302  1.00  0.00     0.000 C
HETATM   15  C11 UNL     1       8.616  16.574  38.189  1.00  0.00     0.000 C
HETATM   16  C12 UNL     1       7.649  17.653  37.820  1.00  0.00     0.000 C
HETATM   17  C13 UNL     1       7.775  18.854  38.734  1.00  0.00     0.000 C
HETATM   18  C14 UNL     1       8.479  19.944  37.998  1.00  0.00     0.000 C
HETATM   19  C15 UNL     1       9.874  20.068  38.595  1.00  0.00     0.004 C
ENDBRANCH  11  12
ENDBRANCH  10  11
ENDBRANCH   9  10
ENDBRANCH   8   9
ENDBRANCH   7   8
ENDBRANCH   6   7
ENDBRANCH   4   6
ENDBRANCH   1   4
BRANCH   1  20
HETATM   20  N2  UNL     1      15.958  23.082  43.688  1.00  0.00    -0.338 N
BRANCH  20  21
HETATM   21  C16 UNL     1      16.605  23.497  42.427  1.00  0.00     0.088 C
HETATM   22  C17 UNL     1      16.462  22.459  41.371  1.00  0.00     0.025 C
HETATM   23  C18 UNL     1      16.855  23.012  40.042  1.00  0.00     0.002 C
HETATM   24  C19 UNL     1      15.780  23.919  39.483  1.00  0.00     0.000 C
HETATM   25  C20 UNL     1      16.184  25.376  39.614  1.00  0.00     0.000 C
HETATM   26  C21 UNL     1      16.774  25.549  40.998  1.00  0.00     0.002 C
HETATM   27  C22 UNL     1      16.008  24.837  42.063  1.00  0.00     0.025 C
ENDBRANCH  20  21
BRANCH  20  28
HETATM   28  C23 UNL     1      16.659  22.188  44.561  1.00  0.00     0.088 C
HETATM   29  C24 UNL     1      16.422  22.398  46.034  1.00  0.00     0.025 C
HETATM   30  C25 UNL     1      17.721  22.181  46.825  1.00  0.00     0.002 C
HETATM   31  C26 UNL     1      18.271  20.864  46.390  1.00  0.00     0.000 C
HETATM   32  C27 UNL     1      18.765  20.942  44.971  1.00  0.00     0.002 C
HETATM   33  C28 UNL     1      18.135  22.156  44.308  1.00  0.00     0.025 C
ENDBRANCH  20  28
ENDBRANCH   1  20
TORSDOF 12
ENDMDL