MODEL 2
REMARK VINA RESULT: -9.010696760      1.227      1.394
REMARK  11 active torsions:
REMARK  status: ('A' for Active; 'I' for Inactive)
REMARK    1  A    between atoms: N1_1  and  C1_5
REMARK    2  A    between atoms: C1_5  and  C2_6
REMARK    3  A    between atoms: C2_6  and  C3_7
REMARK    4  A    between atoms: C3_7  and  C4_8
REMARK    5  A    between atoms: C4_8  and  C5_9
REMARK    6  A    between atoms: C5_9  and  C6_10
REMARK    7  A    between atoms: C10_14  and  N2_15
REMARK    8  A    between atoms: N3_17  and  C11_19
REMARK    9  A    between atoms: C16_24  and  C17_25
REMARK   10  A    between atoms: C17_25  and  C18_26
REMARK   11  A    between atoms: C17_25  and  C24_32
ROOT
HETATM    1  C11 UNL     1      13.146  22.060  43.249  1.00  0.00     0.055 A
HETATM    2  C12 UNL     1      11.999  22.353  43.986  1.00  0.00     0.031 A
HETATM    3  C13 UNL     1      12.090  22.792  45.288  1.00  0.00     0.002 A
HETATM    4  C14 UNL     1      13.347  22.932  45.834  1.00  0.00     0.001 A
HETATM    5  C15 UNL     1      14.496  22.636  45.088  1.00  0.00     0.010 A
HETATM    6  C16 UNL     1      14.403  22.200  43.795  1.00  0.00    -0.017 A
ENDROOT
BRANCH   1   7
HETATM    7  N3  UNL     1      13.014  21.608  41.915  1.00  0.00    -0.300 N
HETATM    8  N2  UNL     1      12.502  20.460  41.705  1.00  0.00    -0.300 N
ATOM      9  H2  UNL     1      12.198  19.893  42.496  1.00  0.00     0.187 HD
ATOM     10  H3  UNL     1      13.324  22.189  41.137  1.00  0.00     0.187 HD
BRANCH   8  11
HETATM   11  C10 UNL     1      12.347  19.957  40.382  1.00  0.00     0.048 A
HETATM   12  C9  UNL     1      13.460  19.815  39.569  1.00  0.00     0.031 A
HETATM   13  C8  UNL     1      13.383  19.335  38.284  1.00  0.00     0.003 A
HETATM   14  C7  UNL     1      12.167  18.976  37.762  1.00  0.00     0.007 A
HETATM   15  C6  UNL     1      11.028  19.108  38.560  1.00  0.00    -0.056 A
HETATM   16  C30 UNL     1      11.133  19.593  39.846  1.00  0.00     0.038 A
BRANCH  15  17
HETATM   17  C5  UNL     1       9.732  18.709  37.956  1.00  0.00     0.038 C
BRANCH  17  18
HETATM   18  C4  UNL     1       8.626  19.384  38.746  1.00  0.00     0.005 C
BRANCH  18  19
HETATM   19  C3  UNL     1       8.033  20.545  37.952  1.00  0.00     0.002 C
BRANCH  19  20
HETATM   20  C2  UNL     1       7.280  19.937  36.781  1.00  0.00     0.027 C
BRANCH  20  21
HETATM   21  C1  UNL     1       7.149  20.931  35.646  1.00  0.00     0.229 C
BRANCH  21  22
HETATM   22  N1  UNL     1       8.337  21.763  35.606  1.00  0.00    -0.079 N
ATOM     23  H13 UNL     1       8.302  22.524  36.285  1.00  0.00     0.274 HD
ATOM     24  H12 UNL     1       9.160  21.284  35.971  1.00  0.00     0.274 HD
ATOM     25  H11 UNL     1       8.476  22.101  34.653  1.00  0.00     0.274 HD
ENDBRANCH  21  22
ENDBRANCH  20  21
ENDBRANCH  19  20
ENDBRANCH  18  19
ENDBRANCH  17  18
ENDBRANCH  15  17
ENDBRANCH   8  11
ENDBRANCH   1   7
BRANCH   6  26
HETATM   26  C17 UNL     1      15.594  21.882  42.973  1.00  0.00     0.087 C
BRANCH  26  27
HETATM   27  C18 UNL     1      15.956  22.906  41.994  1.00  0.00    -0.045 A
HETATM   28  C19 UNL     1      16.030  24.256  42.295  1.00  0.00     0.008 A
HETATM   29  C20 UNL     1      16.365  25.154  41.311  1.00  0.00     0.001 A
HETATM   30  C21 UNL     1      16.639  24.767  40.012  1.00  0.00     0.000 A
HETATM   31  C22 UNL     1      16.571  23.440  39.696  1.00  0.00     0.001 A
HETATM   32  C23 UNL     1      16.228  22.527  40.699  1.00  0.00     0.008 A
ENDBRANCH  26  27
BRANCH  26  33
HETATM   33  C24 UNL     1      16.757  21.579  43.838  1.00  0.00    -0.045 A
HETATM   34  C25 UNL     1      17.896  22.334  43.780  1.00  0.00     0.008 A
HETATM   35  C26 UNL     1      18.992  22.050  44.602  1.00  0.00     0.001 A
HETATM   36  C27 UNL     1      18.924  21.003  45.472  1.00  0.00     0.000 A
HETATM   37  C28 UNL     1      17.779  20.263  45.513  1.00  0.00     0.001 A
HETATM   38  C29 UNL     1      16.699  20.534  44.712  1.00  0.00     0.008 A
ENDBRANCH  26  33
ENDBRANCH   6  26
TORSDOF 11
ENDMDL