MODEL 2
REMARK VINA RESULT: -7.882103146      5.177      9.569
REMARK  9 active torsions:
REMARK  status: ('A' for Active; 'I' for Inactive)
REMARK    1  A    between atoms: C1_2  and  C2_4
REMARK    2  A    between atoms: C2_4  and  C3_5
REMARK    3  A    between atoms: C3_5  and  C4_6
REMARK    4  A    between atoms: C4_6  and  C5_7
REMARK    5  A    between atoms: C5_7  and  C6_8
REMARK    6  A    between atoms: C9_11  and  C10_12
REMARK    7  A    between atoms: C14_16  and  O3_17
REMARK    8  A    between atoms: O3_17  and  C15_18
REMARK    9  A    between atoms: C15_18  and  C16_19
ROOT
HETATM    1  C6  UNL     1      17.367  21.848  44.553  1.00  0.00    -0.056 A
HETATM    2  C7  UNL     1      16.462  20.848  44.582  1.00  0.00     0.008 A
HETATM    3  C8  UNL     1      15.307  20.932  43.796  1.00  0.00     0.011 A
HETATM    4  C9  UNL     1      15.100  22.013  43.011  1.00  0.00    -0.021 A
HETATM    5  C14 UNL     1      16.046  23.075  42.972  1.00  0.00     0.075 A
HETATM    6  C28 UNL     1      17.166  22.966  43.751  1.00  0.00     0.044 A
ENDROOT
BRANCH   5   7
HETATM    7  O3  UNL     1      15.802  24.132  42.180  1.00  0.00    -0.350 OA
BRANCH   7   8
HETATM    8  C15 UNL     1      16.458  24.835  41.222  1.00  0.00     0.180 C
BRANCH   8   9
HETATM    9  C16 UNL     1      15.759  25.112  39.926  1.00  0.00     0.010 C
HETATM   10  C17 UNL     1      15.603  23.787  39.215  1.00  0.00     0.007 C
HETATM   11  C18 UNL     1      16.874  23.179  38.732  1.00  0.00     0.000 C
HETATM   12  C19 UNL     1      16.542  21.975  37.846  1.00  0.00     0.000 C
HETATM   13  C20 UNL     1      16.955  22.200  36.427  1.00  0.00     0.000 C
HETATM   14  C21 UNL     1      15.773  22.447  35.513  1.00  0.00     0.000 C
HETATM   15  C22 UNL     1      15.855  23.792  34.839  1.00  0.00     0.000 C
HETATM   16  C23 UNL     1      14.885  24.784  35.446  1.00  0.00     0.000 C
HETATM   17  C24 UNL     1      15.645  25.919  36.142  1.00  0.00     0.000 C
HETATM   18  C25 UNL     1      14.751  26.475  37.207  1.00  0.00     0.000 C
HETATM   19  C26 UNL     1      15.455  27.073  38.376  1.00  0.00     0.000 C
HETATM   20  C27 UNL     1      16.412  26.180  39.089  1.00  0.00     0.007 C
ENDBRANCH   8   9
ENDBRANCH   7   8
ENDBRANCH   5   7
BRANCH   4  21
HETATM   21  C10 UNL     1      13.915  22.166  42.174  1.00  0.00     0.021 C
HETATM   22  C11 UNL     1      12.622  21.582  42.632  1.00  0.00     0.009 C
HETATM   23  C12 UNL     1      12.796  20.358  41.745  1.00  0.00     0.001 C
HETATM   24  C13 UNL     1      13.881  21.143  41.021  1.00  0.00     0.009 C
ENDBRANCH   4  21
BRANCH   1  25
HETATM   25  C5  UNL     1      18.630  21.823  45.360  1.00  0.00     0.038 C
BRANCH  25  26
HETATM   26  C4  UNL     1      18.286  21.859  46.845  1.00  0.00     0.005 C
BRANCH  26  27
HETATM   27  C3  UNL     1      17.695  23.195  47.169  1.00  0.00     0.011 C
BRANCH  27  28
HETATM   28  C2  UNL     1      16.627  23.121  48.219  1.00  0.00     0.113 C
BRANCH  28  29
HETATM   29  C1  UNL     1      15.280  22.895  47.683  1.00  0.00     0.172 C
HETATM   30  O1  UNL     1      14.864  23.377  46.602  1.00  0.00    -0.648 OA
HETATM   31  O2  UNL     1      14.434  22.078  48.467  1.00  0.00    -0.648 OA
ENDBRANCH  28  29
ENDBRANCH  27  28
ENDBRANCH  26  27
ENDBRANCH  25  26
ENDBRANCH   1  25
TORSDOF 9
ENDMDL