MODEL 4
REMARK VINA RESULT: -9.065286026      0.630      1.416
REMARK  10 active torsions:
REMARK  status: ('A' for Active; 'I' for Inactive)
REMARK    1  A    between atoms: C1_2  and  C2_3
REMARK       I    between atoms: C1_2  and  N1_16
REMARK    2  A    between atoms: C2_3  and  C3_4
REMARK    3  A    between atoms: C3_4  and  C4_5
REMARK    4  A    between atoms: C4_5  and  C5_6
REMARK    5  A    between atoms: C5_6  and  C6_7
REMARK    6  A    between atoms: C6_7  and  C7_8
REMARK    7  A    between atoms: C7_8  and  C8_9
REMARK    8  A    between atoms: C8_9  and  C9_10
REMARK    9  A    between atoms: N1_16  and  C15_18
REMARK   10  A    between atoms: C20_23  and  C21_24
ROOT
HETATM    1  O1  UNL     1      13.939  22.846  44.343  1.00  0.00    -0.273 OA
HETATM    2  C1  UNL     1      14.046  21.802  43.680  1.00  0.00     0.222 C
HETATM    3  N1  UNL     1      15.266  21.129  43.555  1.00  0.00    -0.326 N
ATOM      4  H1  UNL     1      15.241  20.287  42.981  1.00  0.00     0.169 HD
ENDROOT
BRANCH   3   5
HETATM    5  C15 UNL     1      16.532  21.447  44.109  1.00  0.00     0.046 A
HETATM    6  C16 UNL     1      16.949  20.856  45.292  1.00  0.00     0.030 A
HETATM    7  C17 UNL     1      18.231  21.055  45.735  1.00  0.00     0.002 A
HETATM    8  C18 UNL     1      19.147  21.823  45.058  1.00  0.00     0.001 A
HETATM    9  C19 UNL     1      18.701  22.391  43.899  1.00  0.00     0.015 A
HETATM   10  C20 UNL     1      17.400  22.218  43.409  1.00  0.00     0.008 A
BRANCH  10  11
HETATM   11  C21 UNL     1      17.063  23.031  42.227  1.00  0.00     0.019 A
HETATM   12  C22 UNL     1      16.864  24.366  42.055  1.00  0.00     0.032 A
HETATM   13  C23 UNL     1      16.640  24.810  40.788  1.00  0.00    -0.018 A
HETATM   14  C24 UNL     1      16.410  26.139  40.370  1.00  0.00     0.013 A
HETATM   15  C28 UNL     1      16.635  23.874  39.793  1.00  0.00     0.015 A
HETATM   16  C25 UNL     1      16.197  26.446  39.052  1.00  0.00     0.001 A
HETATM   17  C26 UNL     1      16.193  25.493  38.057  1.00  0.00     0.001 A
HETATM   18  C27 UNL     1      16.415  24.189  38.438  1.00  0.00     0.019 A
HETATM   19  S1  UNL     1      16.936  22.423  40.638  1.00  0.00    -0.089 SA
ENDBRANCH  10  11
ENDBRANCH   3   5
BRANCH   2  20
HETATM   20  C2  UNL     1      12.801  21.308  43.023  1.00  0.00     0.103 C
BRANCH  20  21
HETATM   21  C3  UNL     1      13.045  19.996  42.330  1.00  0.00     0.009 C
BRANCH  21  22
HETATM   22  C4  UNL     1      13.138  20.159  40.853  1.00  0.00     0.000 C
BRANCH  22  23
HETATM   23  C5  UNL     1      11.860  19.831  40.118  1.00  0.00     0.000 C
BRANCH  23  24
HETATM   24  C6  UNL     1      12.237  19.254  38.792  1.00  0.00     0.000 C
BRANCH  24  25
HETATM   25  C7  UNL     1      11.104  19.214  37.791  1.00  0.00     0.005 C
BRANCH  25  26
HETATM   26  C8  UNL     1       9.878  19.828  38.377  1.00  0.00     0.038 C
BRANCH  26  27
HETATM   27  C9  UNL     1       8.738  18.926  38.481  1.00  0.00    -0.058 A
HETATM   28  C10 UNL     1       7.511  19.393  38.872  1.00  0.00     0.007 A
HETATM   29  C11 UNL     1       6.411  18.553  38.979  1.00  0.00     0.001 A
HETATM   30  C12 UNL     1       6.571  17.205  38.679  1.00  0.00     0.000 A
HETATM   31  C13 UNL     1       7.796  16.711  38.284  1.00  0.00     0.001 A
HETATM   32  C14 UNL     1       8.884  17.588  38.188  1.00  0.00     0.007 A
ENDBRANCH  26  27
ENDBRANCH  25  26
ENDBRANCH  24  25
ENDBRANCH  23  24
ENDBRANCH  22  23
ENDBRANCH  21  22
ENDBRANCH  20  21
ENDBRANCH   2  20
TORSDOF 10
ENDMDL