MODEL 5
REMARK VINA RESULT: -4.598270829      4.992      6.086
REMARK  1 active torsions:
REMARK  status: ('A' for Active; 'I' for Inactive)
REMARK    1  A    between atoms: C4_4  and  C5_5
ROOT
HETATM    1  C1  UNL     1       5.587  -6.638  29.249  1.00  0.00     0.044 C
HETATM    2  C2  UNL     1       4.306  -5.904  28.899  1.00  0.00     0.007 C
HETATM    3  C3  UNL     1       4.721  -4.870  27.854  1.00  0.00     0.026 C
HETATM    4  C4  UNL     1       5.658  -3.860  28.493  1.00  0.00     0.084 C
HETATM    5  N1  UNL     1       6.720  -4.455  29.196  1.00  0.00    -0.397 N
ATOM      6  H1  UNL     1       7.637  -4.009  29.201  1.00  0.00     0.159 HD
HETATM    7  C8  UNL     1       6.527  -5.649  29.884  1.00  0.00     0.056 C
ENDROOT
BRANCH   4   8
HETATM    8  C5  UNL     1       6.134  -2.967  27.368  1.00  0.00     0.008 A
HETATM    9  C6  UNL     1       7.324  -2.103  27.546  1.00  0.00     0.007 A
HETATM   10  C7  UNL     1       5.981  -1.450  27.592  1.00  0.00     0.007 A
ENDBRANCH   4   8
TORSDOF 1
ENDMDL