MODEL 5
REMARK VINA RESULT: -4.150085361      0.972      2.788
REMARK  0 active torsions:
REMARK  status: ('A' for Active; 'I' for Inactive)
ROOT
HETATM    1  C1  UNL     1       8.873  -2.701  32.075  1.00  0.00     0.002 C
HETATM    2  C2  UNL     1      10.344  -2.828  32.313  1.00  0.00     0.007 C
HETATM    3  C3  UNL     1      10.666  -1.770  33.329  1.00  0.00     0.018 C
HETATM    4  C4  UNL     1      11.653  -2.240  34.372  1.00  0.00     0.034 C
HETATM    5  C5  UNL     1      10.819  -3.175  35.236  1.00  0.00     0.233 C
HETATM    6  N1  UNL     1       9.441  -2.965  34.858  1.00  0.00    -0.070 N
ATOM      7  H11 UNL     1       8.800  -3.004  35.651  1.00  0.00     0.277 HD
ATOM      8  H12 UNL     1       9.049  -3.746  34.332  1.00  0.00     0.277 HD
HETATM    9  C6  UNL     1       9.377  -1.723  34.148  1.00  0.00     0.190 C
HETATM   10  C7  UNL     1       8.340  -1.688  33.066  1.00  0.00     0.033 C
ENDROOT
TORSDOF 0
ENDMDL