MODEL 3
REMARK VINA RESULT: -4.511739813      2.132      3.468
REMARK  1 active torsions:
REMARK  status: ('A' for Active; 'I' for Inactive)
REMARK    1  A    between atoms: C2_2  and  C4_4
ROOT
HETATM    1  C4  UNL     1       6.152  -4.326  28.812  1.00  0.00     0.021 C
HETATM    2  C5  UNL     1       5.184  -3.252  29.340  1.00  0.00     0.040 C
HETATM    3  C6  UNL     1       5.891  -2.043  28.776  1.00  0.00     0.189 C
HETATM    4  C7  UNL     1       6.157  -2.437  27.348  1.00  0.00     0.066 C
HETATM    5  C8  UNL     1       7.070  -3.435  28.043  1.00  0.00     0.192 C
HETATM    6  N1  UNL     1       7.310  -2.357  29.018  1.00  0.00    -0.066 N
ATOM      7  H11 UNL     1       7.687  -2.528  29.950  1.00  0.00     0.278 HD
ATOM      8  H12 UNL     1       8.054  -1.669  28.908  1.00  0.00     0.278 HD
ENDROOT
BRANCH   1   9
HETATM    9  C2  UNL     1       5.444  -5.343  27.971  1.00  0.00    -0.017 C
HETATM   10  C1  UNL     1       3.962  -5.254  28.028  1.00  0.00     0.010 C
HETATM   11  C3  UNL     1       5.838  -6.711  28.536  1.00  0.00     0.010 C
ENDBRANCH   1   9
TORSDOF 1
ENDMDL