MODEL 4
REMARK VINA RESULT: -4.780396598      1.342      1.629
REMARK  1 active torsions:
REMARK  status: ('A' for Active; 'I' for Inactive)
REMARK    1  A    between atoms: C2_2  and  C3_3
ROOT
HETATM    1  C3  UNL     1       6.182  -6.073  28.977  1.00  0.00     0.015 C
HETATM    2  C4  UNL     1       5.514  -6.257  27.631  1.00  0.00     0.042 C
HETATM    3  C5  UNL     1       4.389  -5.357  28.156  1.00  0.00     0.191 C
HETATM    4  N1  UNL     1       4.700  -3.994  27.814  1.00  0.00    -0.070 N
ATOM      5  H11 UNL     1       4.133  -3.632  27.048  1.00  0.00     0.277 HD
ATOM      6  H12 UNL     1       5.609  -3.890  27.362  1.00  0.00     0.277 HD
HETATM    7  C6  UNL     1       4.577  -3.222  29.031  1.00  0.00     0.233 C
HETATM    8  C7  UNL     1       4.929  -4.183  30.146  1.00  0.00     0.034 C
HETATM    9  C8  UNL     1       4.908  -5.563  29.565  1.00  0.00     0.025 C
ENDROOT
BRANCH   1  10
HETATM   10  C2  UNL     1       6.566  -7.400  29.523  1.00  0.00    -0.032 C
HETATM   11  C1  UNL     1       6.160  -7.853  30.689  1.00  0.00     0.007 C
ENDBRANCH   1  10
TORSDOF 1
ENDMDL