MODEL 4
REMARK VINA RESULT: -4.961471612      0.989      3.010
REMARK  2 active torsions:
REMARK  status: ('A' for Active; 'I' for Inactive)
REMARK    1  A    between atoms: C2_2  and  C3_3
REMARK    2  A    between atoms: C5_5  and  N1_6
ROOT
HETATM    1  C3  UNL     1       6.020  -6.184  28.897  1.00  0.00    -0.008 C
HETATM    2  C4  UNL     1       6.561  -5.165  29.925  1.00  0.00     0.038 C
HETATM    3  C5  UNL     1       5.335  -4.300  30.293  1.00  0.00     0.188 C
HETATM    4  C6  UNL     1       4.579  -4.476  29.038  1.00  0.00     0.021 A
HETATM    5  C7  UNL     1       3.525  -5.303  28.621  1.00  0.00     0.012 A
HETATM    6  C8  UNL     1       4.572  -6.057  29.162  1.00  0.00    -0.004 A
ENDROOT
BRANCH   3   7
HETATM    7  N1  UNL     1       5.747  -2.971  30.594  1.00  0.00    -0.075 N
ATOM      8  H13 UNL     1       6.761  -2.891  30.660  1.00  0.00     0.274 HD
ATOM      9  H12 UNL     1       5.598  -2.338  29.809  1.00  0.00     0.274 HD
ATOM     10  H11 UNL     1       5.282  -2.643  31.441  1.00  0.00     0.274 HD
ENDBRANCH   3   7
BRANCH   1  11
HETATM   11  C2  UNL     1       6.585  -7.524  29.312  1.00  0.00     0.000 C
HETATM   12  C1  UNL     1       6.229  -7.920  30.703  1.00  0.00     0.005 C
ENDBRANCH   1  11
TORSDOF 2
ENDMDL