MODEL 4
REMARK VINA RESULT: -4.688780725      1.302      1.622
REMARK  1 active torsions:
REMARK  status: ('A' for Active; 'I' for Inactive)
REMARK    1  A    between atoms: C2_2  and  C3_3
ROOT
HETATM    1  C3  UNL     1       5.648  -5.530  29.182  1.00  0.00     0.152 C
HETATM    2  C4  UNL     1       4.191  -5.332  28.739  1.00  0.00     0.035 C
HETATM    3  C5  UNL     1       3.717  -4.130  29.567  1.00  0.00     0.008 C
HETATM    4  C6  UNL     1       4.711  -3.022  29.437  1.00  0.00     0.046 C
HETATM    5  C7  UNL     1       5.849  -3.056  30.366  1.00  0.00     0.087 C
HETATM    6  N1  UNL     1       6.161  -4.269  31.005  1.00  0.00    -0.281 N
ATOM      7  H1  UNL     1       6.784  -4.286  31.813  1.00  0.00     0.193 HD
HETATM    8  O1  UNL     1       5.635  -5.376  30.544  1.00  0.00    -0.276 OA
ENDROOT
BRANCH   1   9
HETATM    9  C2  UNL     1       6.045  -6.930  28.850  1.00  0.00     0.030 C
HETATM   10  C1  UNL     1       6.630  -7.695  29.999  1.00  0.00     0.007 C
ENDBRANCH   1   9
TORSDOF 1
ENDMDL