MODEL 1
REMARK VINA RESULT: -4.453248311      0.000      0.000
REMARK  2 active torsions:
REMARK  status: ('A' for Active; 'I' for Inactive)
REMARK    1  A    between atoms: C2_2  and  C5_5
REMARK    2  A    between atoms: C7_7  and  N1_8
ROOT
HETATM    1  C5  UNL     1       5.067  -6.442  29.467  1.00  0.00     0.025 A
HETATM    2  C6  UNL     1       6.182  -7.111  28.777  1.00  0.00     0.040 A
HETATM    3  C7  UNL     1       6.326  -6.618  30.209  1.00  0.00     0.188 A
ENDROOT
BRANCH   1   4
HETATM    4  C2  UNL     1       4.593  -5.139  28.942  1.00  0.00    -0.046 C
HETATM    5  C1  UNL     1       4.698  -4.001  29.934  1.00  0.00     0.015 C
HETATM    6  C3  UNL     1       5.448  -4.732  27.736  1.00  0.00     0.015 C
HETATM    7  C4  UNL     1       3.161  -5.160  28.461  1.00  0.00     0.015 C
ENDBRANCH   1   4
BRANCH   3   8
HETATM    8  N1  UNL     1       6.410  -7.677  31.208  1.00  0.00    -0.075 N
ATOM      9  H13 UNL     1       5.483  -8.081  31.338  1.00  0.00     0.274 HD
ATOM     10  H12 UNL     1       6.916  -8.467  30.809  1.00  0.00     0.274 HD
ATOM     11  H11 UNL     1       6.807  -7.458  32.122  1.00  0.00     0.274 HD
ENDBRANCH   3   8
TORSDOF 2
ENDMDL