MODEL 3
REMARK VINA RESULT: -4.512981725      1.341      2.746
REMARK  1 active torsions:
REMARK  status: ('A' for Active; 'I' for Inactive)
REMARK    1  A    between atoms: C2_2  and  C3_3
ROOT
HETATM    1  C3  UNL     1       5.522  -4.257  29.205  1.00  0.00     0.215 C
HETATM    2  N1  UNL     1       4.507  -3.779  30.157  1.00  0.00    -0.067 N
ATOM      3  H11 UNL     1       4.641  -2.834  30.517  1.00  0.00     0.277 HD
ATOM      4  H12 UNL     1       4.517  -4.216  31.079  1.00  0.00     0.277 HD
HETATM    5  C4  UNL     1       3.309  -3.995  29.362  1.00  0.00     0.234 C
HETATM    6  C5  UNL     1       3.513  -5.318  28.652  1.00  0.00     0.038 C
HETATM    7  C6  UNL     1       4.998  -5.592  28.834  1.00  0.00    -0.014 C
HETATM    8  C7  UNL     1       5.140  -6.632  29.912  1.00  0.00     0.017 C
HETATM    9  C8  UNL     1       5.605  -6.161  27.567  1.00  0.00     0.017 C
ENDROOT
BRANCH   1  10
HETATM   10  C2  UNL     1       6.869  -4.254  29.795  1.00  0.00    -0.004 C
HETATM   11  C1  UNL     1       7.220  -3.583  30.870  1.00  0.00     0.009 C
ENDBRANCH   1  10
TORSDOF 1
ENDMDL