MODEL 1
REMARK VINA RESULT: -4.186463888      0.000      0.000
REMARK  1 active torsions:
REMARK  status: ('A' for Active; 'I' for Inactive)
REMARK    1  A    between atoms: C2_2  and  N1_3
ROOT
HETATM    1  N1  UNL     1       2.045   2.036  33.358  1.00  0.00     0.095 N
HETATM    2  C3  UNL     1       2.470   2.655  34.589  1.00  0.00     0.292 C
HETATM    3  C4  UNL     1       3.951   2.709  34.769  1.00  0.00     0.144 C
HETATM    4  N2  UNL     1       4.685   1.639  34.184  1.00  0.00    -0.417 N
ATOM      5  H2  UNL     1       5.513   1.245  34.630  1.00  0.00     0.153 HD
HETATM    6  C5  UNL     1       4.197   1.149  32.944  1.00  0.00     0.149 C
HETATM    7  C6  UNL     1       3.135   2.124  32.426  1.00  0.00     0.236 C
HETATM    8  C7  UNL     1       2.766   1.851  31.009  1.00  0.00     0.044 C
ENDROOT
BRANCH   1   9
HETATM    9  C2  UNL     1       0.807   2.580  32.860  1.00  0.00     0.268 C
HETATM   10  C1  UNL     1       0.251   3.461  33.991  1.00  0.00     0.037 C
ENDBRANCH   1   9
TORSDOF 1
ENDMDL