MODEL 3
REMARK VINA RESULT: -4.676381171      1.298      2.935
REMARK  2 active torsions:
REMARK  status: ('A' for Active; 'I' for Inactive)
REMARK    1  A    between atoms: C2_2  and  C3_3
REMARK    2  A    between atoms: C8_8  and  N1_9
ROOT
HETATM    1  C3  UNL     1       4.497  -4.787  29.340  1.00  0.00     0.009 A
HETATM    2  C4  UNL     1       3.341  -5.292  28.529  1.00  0.00     0.021 A
HETATM    3  C5  UNL     1       4.653  -5.004  27.899  1.00  0.00     0.001 A
HETATM    4  C6  UNL     1       5.540  -6.180  27.654  1.00  0.00     0.008 C
HETATM    5  C7  UNL     1       5.828  -6.760  29.000  1.00  0.00     0.034 C
HETATM    6  C8  UNL     1       5.369  -5.764  30.022  1.00  0.00     0.196 C
ENDROOT
BRANCH   6   7
HETATM    7  N1  UNL     1       6.564  -5.056  30.492  1.00  0.00    -0.074 N
ATOM      8  H13 UNL     1       7.218  -4.843  29.738  1.00  0.00     0.274 HD
ATOM      9  H12 UNL     1       6.367  -4.097  30.778  1.00  0.00     0.274 HD
ATOM     10  H11 UNL     1       6.989  -5.611  31.236  1.00  0.00     0.274 HD
ENDBRANCH   6   7
BRANCH   1  11
HETATM   11  C2  UNL     1       4.270  -3.437  29.912  1.00  0.00    -0.025 C
HETATM   12  C1  UNL     1       4.773  -2.360  29.335  1.00  0.00     0.008 C
ENDBRANCH   1  11
TORSDOF 2
ENDMDL