MODEL 1
REMARK VINA RESULT: -8.030556534      0.000      0.000
REMARK  3 active torsions:
REMARK  status: ('A' for Active; 'I' for Inactive)
REMARK    1  A    between atoms: N5_15  and  C6_16
REMARK    2  A    between atoms: C8_18  and  N6_19
REMARK    3  A    between atoms: C9_23  and  N7_24
ROOT
HETATM    1  C6  UNL     1      -8.726 -25.884  16.153  1.00  0.00     0.096 C
HETATM    2  C7  UNL     1      -7.605 -26.708  16.751  1.00  0.00     0.060 C
HETATM    3  C8  UNL     1      -7.958 -28.103  16.250  1.00  0.00     0.208 C
HETATM    4  C9  UNL     1      -9.444 -28.111  16.451  1.00  0.00     0.123 C
HETATM    5  C17 UNL     1      -9.959 -26.745  16.188  1.00  0.00     0.053 C
ENDROOT
BRANCH   1   6
HETATM    6  N5  UNL     1      -8.888 -24.608  16.770  1.00  0.00    -0.322 N
HETATM    7  C3  UNL     1      -8.143 -23.487  16.534  1.00  0.00     0.140 A
HETATM    8  N3  UNL     1      -7.109 -23.258  15.710  1.00  0.00    -0.336 N
HETATM    9  C4  UNL     1      -8.606 -22.458  17.322  1.00  0.00     0.122 A
HETATM   10  C2  UNL     1      -6.531 -22.048  15.651  1.00  0.00     0.183 A
ATOM     11  H3  UNL     1      -6.758 -24.013  15.121  1.00  0.00     0.168 HD
HETATM   12  N2  UNL     1      -6.980 -21.040  16.421  1.00  0.00    -0.337 N
HETATM   13  C1  UNL     1      -8.008 -21.212  17.261  1.00  0.00     0.131 A
ATOM     14  H2  UNL     1      -6.529 -20.128  16.364  1.00  0.00     0.168 HD
HETATM   15  N1  UNL     1      -8.487 -20.295  18.022  1.00  0.00    -0.383 N
ATOM     16  H12 UNL     1      -8.047 -19.376  17.977  1.00  0.00     0.157 HD
ATOM     17  H11 UNL     1      -9.270 -20.425  18.662  1.00  0.00     0.157 HD
HETATM   18  N4  UNL     1      -9.618 -22.960  18.026  1.00  0.00    -0.346 N
HETATM   19  C5  UNL     1      -9.784 -24.235  17.696  1.00  0.00     0.185 A
ATOM     20  H4  UNL     1     -10.176 -22.447  18.709  1.00  0.00     0.167 HD
ENDBRANCH   1   6
BRANCH   3  21
HETATM   21  N6  UNL     1      -7.361 -29.075  17.176  1.00  0.00    -0.073 N
ATOM     22  H63 UNL     1      -6.342 -29.028  17.197  1.00  0.00     0.274 HD
ATOM     23  H62 UNL     1      -7.527 -28.844  18.155  1.00  0.00     0.274 HD
ATOM     24  H61 UNL     1      -7.710 -30.000  16.923  1.00  0.00     0.274 HD
ENDBRANCH   3  21
BRANCH   4  25
HETATM   25  N7  UNL     1     -10.127 -29.169  15.755  1.00  0.00    -0.334 N
HETATM   26  C10 UNL     1      -9.803 -29.698  14.565  1.00  0.00     0.184 A
HETATM   27  N8  UNL     1     -10.687 -30.663  14.260  1.00  0.00    -0.350 N
HETATM   28  C11 UNL     1     -11.597 -30.765  15.259  1.00  0.00     0.060 A
ATOM     29  H8  UNL     1     -10.675 -31.229  13.412  1.00  0.00     0.166 HD
HETATM   30  C12 UNL     1     -12.706 -31.599  15.431  1.00  0.00     0.032 A
HETATM   31  C16 UNL     1     -11.235 -29.822  16.191  1.00  0.00     0.062 A
HETATM   32  C13 UNL     1     -13.445 -31.443  16.596  1.00  0.00     0.002 A
HETATM   33  C14 UNL     1     -13.098 -30.500  17.544  1.00  0.00     0.002 A
HETATM   34  C15 UNL     1     -12.000 -29.702  17.334  1.00  0.00     0.032 A
ENDBRANCH   4  25
TORSDOF 3
ENDMDL