MODEL 3
REMARK VINA RESULT: -6.909785808      2.709      4.883
REMARK  5 active torsions:
REMARK  status: ('A' for Active; 'I' for Inactive)
REMARK    1  A    between atoms: C2_2  and  C3_3
REMARK    2  A    between atoms: C5_6  and  N1_7
REMARK    3  A    between atoms: N1_7  and  C6_9
REMARK    4  A    between atoms: C10_17  and  N4_18
REMARK    5  A    between atoms: N4_18  and  C11_20
ROOT
HETATM    1  C6  UNL     1      -8.240 -25.992  19.028  1.00  0.00     0.696 A
HETATM    2  N2  UNL     1      -9.092 -26.131  18.064  1.00  0.00    -0.199 N
ATOM      3  H2  UNL     1      -9.472 -27.062  17.900  1.00  0.00     0.180 HD
HETATM    4  C7  UNL     1      -9.540 -25.074  17.214  1.00  0.00     0.129 A
HETATM    5  C8  UNL     1      -9.249 -25.436  15.756  1.00  0.00     0.064 C
HETATM    6  C9  UNL     1     -11.062 -24.910  17.307  1.00  0.00     0.064 C
HETATM    7  N3  UNL     1      -8.965 -23.804  17.524  1.00  0.00    -0.199 N
ATOM      8  H3  UNL     1      -9.262 -23.016  16.950  1.00  0.00     0.180 HD
HETATM    9  C10 UNL     1      -8.109 -23.551  18.455  1.00  0.00     0.709 A
HETATM   10  N7  UNL     1      -7.716 -24.689  19.257  1.00  0.00    -0.022 N
ATOM     11  H7  UNL     1      -7.043 -24.552  20.011  1.00  0.00     0.203 HD
ENDROOT
BRANCH   1  12
HETATM   12  N1  UNL     1      -7.859 -27.111  19.818  1.00  0.00    -0.170 N
ATOM     13  H1  UNL     1      -7.423 -26.963  20.729  1.00  0.00     0.186 HD
BRANCH  12  14
HETATM   14  C5  UNL     1      -8.063 -28.337  19.384  1.00  0.00     0.164 A
HETATM   15  S1  UNL     1      -7.231 -29.199  18.175  1.00  0.00    -0.063 SA
HETATM   16  C4  UNL     1      -8.118 -30.657  18.253  1.00  0.00     0.078 A
HETATM   17  C3  UNL     1      -9.030 -30.382  19.239  1.00  0.00     0.017 A
HETATM   18  N8  UNL     1      -8.987 -29.208  19.795  1.00  0.00    -0.339 N
ATOM     19  H8  UNL     1      -9.646 -28.957  20.532  1.00  0.00     0.168 HD
BRANCH  17  20
HETATM   20  C2  UNL     1     -10.039 -31.451  19.630  1.00  0.00     0.053 C
HETATM   21  C1  UNL     1      -9.895 -31.856  21.059  1.00  0.00     0.011 C
ENDBRANCH  17  20
ENDBRANCH  12  14
ENDBRANCH   1  12
BRANCH   9  22
HETATM   22  N4  UNL     1      -7.573 -22.267  18.716  1.00  0.00    -0.021 N
ATOM     23  H4  UNL     1      -7.059 -22.161  19.591  1.00  0.00     0.203 HD
BRANCH  22  24
HETATM   24  C11 UNL     1      -7.667 -21.127  17.913  1.00  0.00     0.698 A
HETATM   25  N5  UNL     1      -8.811 -20.396  17.752  1.00  0.00    -0.200 N
HETATM   26  C12 UNL     1      -8.602 -19.372  16.933  1.00  0.00     0.124 A
ATOM     27  H5  UNL     1      -9.703 -20.609  18.199  1.00  0.00     0.183 HD
HETATM   28  C13 UNL     1      -7.288 -19.427  16.544  1.00  0.00     0.126 A
HETATM   29  N6  UNL     1      -6.761 -20.525  17.175  1.00  0.00    -0.196 N
HETATM   30  C14 UNL     1      -5.363 -20.909  17.000  1.00  0.00     0.175 C
ENDBRANCH  22  24
ENDBRANCH   9  22
TORSDOF 5
ENDMDL