MODEL 2
REMARK VINA RESULT: -6.381286725      1.810      2.238
REMARK  2 active torsions:
REMARK  status: ('A' for Active; 'I' for Inactive)
REMARK    1  A    between atoms: C2_2  and  N1_4
REMARK    2  A    between atoms: N1_4  and  C5_6
ROOT
HETATM    1  C5  UNL     1      -9.119 -27.220  18.062  1.00  0.00     0.148 A
HETATM    2  N2  UNL     1      -8.543 -28.294  18.542  1.00  0.00    -0.321 N
ATOM      3  H2  UNL     1      -7.659 -28.209  19.045  1.00  0.00     0.169 HD
HETATM    4  C6  UNL     1      -9.089 -29.484  18.386  1.00  0.00     0.134 A
HETATM    5  C7  UNL     1     -10.277 -29.521  17.699  1.00  0.00     0.057 A
HETATM    6  S1  UNL     1     -10.520 -27.867  17.333  1.00  0.00    -0.053 SA
HETATM    7  C8  UNL     1     -11.072 -30.742  17.397  1.00  0.00     0.282 C
HETATM    8  N3  UNL     1     -10.515 -31.330  16.208  1.00  0.00    -0.070 N
ATOM      9  H31 UNL     1      -9.544 -31.044  16.088  1.00  0.00     0.277 HD
ATOM     10  H32 UNL     1     -10.924 -30.908  15.374  1.00  0.00     0.277 HD
HETATM   11  C9  UNL     1     -10.629 -32.758  16.155  1.00  0.00     0.242 C
HETATM   12  C10 UNL     1      -9.386 -33.321  15.500  1.00  0.00     0.101 C
HETATM   13  S2  UNL     1      -8.845 -34.874  16.218  1.00  0.00    -0.167 SA
HETATM   14  C11 UNL     1      -8.388 -34.724  17.943  1.00  0.00     0.075 C
HETATM   15  C12 UNL     1      -8.023 -33.309  18.357  1.00  0.00     0.028 C
HETATM   16  C13 UNL     1      -8.832 -32.960  19.556  1.00  0.00     0.136 C
HETATM   17  N4  UNL     1      -9.176 -31.599  19.731  1.00  0.00    -0.140 NA
HETATM   18  N5  UNL     1      -8.492 -30.715  18.894  1.00  0.00    -0.288 N
ATOM     19  H5  UNL     1      -7.534 -30.938  18.626  1.00  0.00     0.184 HD
ENDROOT
BRANCH   1  20
HETATM   20  N1  UNL     1      -8.723 -25.845  18.113  1.00  0.00    -0.362 N
HETATM   21  C4  UNL     1      -7.816 -25.416  19.141  1.00  0.00     0.152 C
BRANCH  20  22
HETATM   22  C2  UNL     1      -9.229 -24.915  17.157  1.00  0.00     0.077 C
HETATM   23  C1  UNL     1      -9.878 -23.718  17.859  1.00  0.00     0.032 C
HETATM   24  C3  UNL     1      -8.153 -24.332  16.271  1.00  0.00     0.032 C
ENDBRANCH  20  22
ENDBRANCH   1  20
TORSDOF 2
ENDMDL