MODEL 5
REMARK VINA RESULT: -7.632081492      2.822      7.046
REMARK  3 active torsions:
REMARK  status: ('A' for Active; 'I' for Inactive)
REMARK    1  A    between atoms: C3_3  and  C4_4
REMARK    2  A    between atoms: C6_10  and  N3_11
REMARK    3  A    between atoms: C7_16  and  C8_17
ROOT
HETATM    1  C1  UNL     1      -9.571 -29.218  14.847  1.00  0.00     0.012 C
HETATM    2  C2  UNL     1      -9.762 -28.160  15.389  1.00  0.00    -0.113 C
HETATM    3  C3  UNL     1     -10.019 -26.867  16.066  1.00  0.00     0.138 C
ENDROOT
BRANCH   3   4
HETATM    4  C4  UNL     1      -9.223 -26.771  17.297  1.00  0.00     0.039 A
HETATM    5  C5  UNL     1      -8.477 -25.684  17.693  1.00  0.00     0.127 A
HETATM    6  S1  UNL     1      -8.309 -24.274  16.899  1.00  0.00    -0.058 SA
HETATM    7  N1  UNL     1      -7.885 -25.978  18.886  1.00  0.00    -0.267 N
HETATM    8  N2  UNL     1      -8.232 -27.204  19.247  1.00  0.00    -0.068 N
ATOM      9  H1  UNL     1      -7.274 -25.356  19.414  1.00  0.00     0.189 HD
HETATM   10  C6  UNL     1      -7.933 -27.967  20.309  1.00  0.00     0.700 A
HETATM   11  C14 UNL     1      -9.054 -27.708  18.284  1.00  0.00     0.157 A
HETATM   12  N4  UNL     1      -8.444 -29.203  20.400  1.00  0.00    -0.171 N
HETATM   13  C7  UNL     1      -9.269 -29.743  19.455  1.00  0.00     0.169 A
ATOM     14  H4  UNL     1      -8.205 -29.768  21.215  1.00  0.00     0.186 HD
HETATM   15  N8  UNL     1      -9.542 -28.948  18.415  1.00  0.00    -0.323 N
ATOM     16  H8  UNL     1     -10.155 -29.306  17.682  1.00  0.00     0.169 HD
BRANCH  10  17
HETATM   17  N3  UNL     1      -7.155 -27.494  21.226  1.00  0.00    -0.233 N
ATOM     18  H32 UNL     1      -7.459 -27.432  22.198  1.00  0.00     0.174 HD
ATOM     19  H31 UNL     1      -6.219 -27.178  20.972  1.00  0.00     0.174 HD
ENDBRANCH  10  17
BRANCH  13  20
HETATM   20  C8  UNL     1      -9.785 -31.092  19.606  1.00  0.00     0.173 A
HETATM   21  N5  UNL     1     -10.031 -31.671  20.818  1.00  0.00    -0.280 N
HETATM   22  N6  UNL     1     -10.477 -32.892  20.651  1.00  0.00    -0.283 N
ATOM     23  H5  UNL     1      -9.888 -31.219  21.721  1.00  0.00     0.188 HD
HETATM   24  C9  UNL     1     -10.533 -33.138  19.334  1.00  0.00     0.127 A
ATOM     25  H6  UNL     1     -10.735 -33.542  21.393  1.00  0.00     0.188 HD
HETATM   26  C10 UNL     1     -10.929 -34.268  18.676  1.00  0.00     0.050 A
HETATM   27  N7  UNL     1     -10.102 -32.013  18.700  1.00  0.00    -0.289 N
HETATM   28  C11 UNL     1     -10.877 -34.235  17.284  1.00  0.00     0.005 A
HETATM   29  C12 UNL     1     -10.438 -33.088  16.656  1.00  0.00     0.018 A
HETATM   30  C13 UNL     1     -10.045 -31.965  17.344  1.00  0.00     0.100 A
ENDBRANCH  13  20
ENDBRANCH   3   4
TORSDOF 3
ENDMDL