MODEL 3
REMARK VINA RESULT: -8.267268830      1.602      2.062
REMARK  3 active torsions:
REMARK  status: ('A' for Active; 'I' for Inactive)
REMARK    1  A    between atoms: C2_3  and  N2_4
REMARK    2  A    between atoms: C4_6  and  C5_7
REMARK    3  A    between atoms: C6_10  and  N4_11
ROOT
HETATM    1  N1  UNL     1      -5.146 -28.312  20.409  1.00  0.00    -0.196 NA
HETATM    2  C1  UNL     1      -6.203 -27.902  20.386  1.00  0.00     0.079 C
HETATM    3  C2  UNL     1      -7.519 -27.347  20.361  1.00  0.00     0.252 C
ENDROOT
BRANCH   3   4
HETATM    4  N2  UNL     1      -8.343 -27.827  19.241  1.00  0.00    -0.343 N
HETATM    5  C3  UNL     1      -8.893 -29.076  19.118  1.00  0.00     0.102 A
HETATM    6  C4  UNL     1      -9.578 -29.171  17.935  1.00  0.00    -0.005 A
HETATM    7  C11 UNL     1      -9.435 -27.938  17.337  1.00  0.00     0.001 A
HETATM    8  C12 UNL     1      -9.974 -27.468  16.154  1.00  0.00     0.014 A
HETATM    9  C16 UNL     1      -8.664 -27.102  18.152  1.00  0.00     0.046 A
HETATM   10  C13 UNL     1      -9.784 -26.172  15.734  1.00  0.00     0.001 A
HETATM   11  C14 UNL     1      -9.009 -25.339  16.562  1.00  0.00     0.002 A
HETATM   12  C15 UNL     1      -8.473 -25.804  17.726  1.00  0.00     0.030 A
BRANCH   6  13
HETATM   13  C5  UNL     1     -10.147 -30.442  17.320  1.00  0.00     0.160 C
HETATM   14  N3  UNL     1      -9.123 -31.449  17.731  1.00  0.00    -0.215 N
HETATM   15  C6  UNL     1      -9.241 -32.476  18.380  1.00  0.00     0.689 C
ATOM     16  H3  UNL     1      -8.173 -31.246  17.419  1.00  0.00     0.178 HD
HETATM   17  N6  UNL     1     -10.533 -32.915  18.866  1.00  0.00    -0.179 N
HETATM   18  C8  UNL     1     -11.629 -32.095  18.544  1.00  0.00     0.111 C
ATOM     19  H6  UNL     1     -10.641 -33.770  19.412  1.00  0.00     0.185 HD
HETATM   20  N7  UNL     1     -12.825 -32.522  18.751  1.00  0.00    -0.387 N
HETATM   21  C9  UNL     1     -11.444 -30.777  17.996  1.00  0.00     0.188 C
ATOM     22  H72 UNL     1     -12.956 -33.455  19.139  1.00  0.00     0.157 HD
ATOM     23  H71 UNL     1     -13.620 -31.927  18.517  1.00  0.00     0.157 HD
HETATM   24  C10 UNL     1     -12.509 -30.645  16.907  1.00  0.00     0.074 C
HETATM   25  N8  UNL     1     -13.324 -30.528  16.060  1.00  0.00    -0.196 NA
BRANCH  15  26
HETATM   26  N4  UNL     1      -8.095 -33.320  18.673  1.00  0.00    -0.126 N
HETATM   27  C7  UNL     1      -8.105 -34.653  18.285  1.00  0.00     0.196 C
HETATM   28  N5  UNL     1      -8.108 -35.775  17.927  1.00  0.00    -0.171 NA
ATOM     29  H4  UNL     1      -7.287 -32.934  19.162  1.00  0.00     0.197 HD
ENDBRANCH  15  26
ENDBRANCH   6  13
ENDBRANCH   3   4
TORSDOF 3
ENDMDL