MODEL 5
REMARK VINA RESULT: -7.054216920      3.107      8.576
REMARK  4 active torsions:
REMARK  status: ('A' for Active; 'I' for Inactive)
REMARK    1  A    between atoms: N4_9  and  C4_11
REMARK    2  A    between atoms: C4_11  and  C5_12
REMARK    3  A    between atoms: C10_20  and  C11_21
REMARK    4  A    between atoms: C13_25  and  N7_26
ROOT
HETATM    1  N1  UNL     1      -7.054 -23.153  19.845  1.00  0.00    -0.190 NA
HETATM    2  C1  UNL     1      -7.664 -23.892  19.211  1.00  0.00     0.116 C
HETATM    3  C2  UNL     1      -8.434 -24.859  18.418  1.00  0.00     0.125 C
HETATM    4  N2  UNL     1      -8.424 -26.071  18.701  1.00  0.00    -0.291 N
ATOM      5  H2  UNL     1      -7.846 -26.299  19.509  1.00  0.00     0.187 HD
HETATM    6  N3  UNL     1      -9.038 -27.160  18.139  1.00  0.00    -0.279 N
ATOM      7  H3  UNL     1      -8.897 -28.092  18.531  1.00  0.00     0.189 HD
HETATM    8  C3  UNL     1      -9.873 -26.977  17.007  1.00  0.00     0.156 C
HETATM    9  N4  UNL     1     -10.808 -27.783  16.715  1.00  0.00    -0.364 N
ATOM     10  H4  UNL     1     -11.389 -27.620  15.894  1.00  0.00     0.162 HD
HETATM   11  S1  UNL     1      -9.481 -25.518  16.047  1.00  0.00    -0.076 SA
HETATM   12  C10 UNL     1      -9.183 -24.245  17.301  1.00  0.00     0.159 C
ENDROOT
BRANCH  12  13
HETATM   13  C11 UNL     1      -8.337 -23.168  16.670  1.00  0.00     0.022 A
HETATM   14  C12 UNL     1      -7.243 -23.327  15.866  1.00  0.00     0.106 A
HETATM   15  N6  UNL     1      -6.660 -22.253  15.426  1.00  0.00    -0.346 N
HETATM   16  C13 UNL     1      -7.150 -21.063  15.774  1.00  0.00     0.142 A
ATOM     17  H6  UNL     1      -5.840 -22.318  14.823  1.00  0.00     0.167 HD
HETATM   18  S2  UNL     1      -8.481 -21.471  16.758  1.00  0.00    -0.056 SA
BRANCH  16  19
HETATM   19  N7  UNL     1      -6.693 -19.874  15.427  1.00  0.00    -0.380 N
ATOM     20  H72 UNL     1      -7.009 -19.247  14.687  1.00  0.00     0.158 HD
ATOM     21  H71 UNL     1      -5.922 -19.358  15.850  1.00  0.00     0.158 HD
ENDBRANCH  16  19
ENDBRANCH  12  13
BRANCH   9  22
HETATM   22  C4  UNL     1     -11.043 -28.937  17.559  1.00  0.00     0.178 C
BRANCH  22  23
HETATM   23  C5  UNL     1     -11.811 -29.981  16.863  1.00  0.00     0.026 A
HETATM   24  C6  UNL     1     -12.929 -30.553  17.438  1.00  0.00     0.027 A
HETATM   25  C7  UNL     1     -13.645 -31.544  16.762  1.00  0.00     0.003 A
HETATM   26  C8  UNL     1     -13.231 -31.947  15.512  1.00  0.00     0.017 A
HETATM   27  C9  UNL     1     -12.116 -31.356  14.972  1.00  0.00     0.088 A
HETATM   28  N5  UNL     1     -11.438 -30.399  15.647  1.00  0.00    -0.368 N
ATOM     29  H5  UNL     1     -10.615 -29.980  15.215  1.00  0.00     0.165 HD
ENDBRANCH  22  23
ENDBRANCH   9  22
TORSDOF 4
ENDMDL