MODEL 3
REMARK VINA RESULT: -6.842028227      5.047      7.315
REMARK  5 active torsions:
REMARK  status: ('A' for Active; 'I' for Inactive)
REMARK    1  A    between atoms: O1_1  and  C1_3
REMARK    2  A    between atoms: C3_6  and  N1_7
REMARK    3  A    between atoms: N1_7  and  N2_9
REMARK    4  A    between atoms: N2_9  and  C4_11
REMARK    5  A    between atoms: N6_21  and  C7_22
ROOT
HETATM    1  N1  UNL     1      -9.525 -25.859  17.704  1.00  0.00    -0.278 N
ATOM      2  H1  UNL     1     -10.512 -25.835  17.956  1.00  0.00     0.189 HD
ENDROOT
BRANCH   1   3
HETATM    3  C3  UNL     1      -8.673 -26.636  18.355  1.00  0.00     0.172 A
HETATM    4  S1  UNL     1      -7.552 -26.208  19.569  1.00  0.00    -0.060 SA
HETATM    5  C2  UNL     1      -6.892 -27.756  19.839  1.00  0.00     0.109 A
HETATM    6  C1  UNL     1      -7.590 -28.533  18.958  1.00  0.00     0.155 A
HETATM    7  N6  UNL     1      -8.497 -27.949  18.206  1.00  0.00    -0.271 N
BRANCH   6   8
HETATM    8  O1  UNL     1      -7.286 -29.939  18.911  1.00  0.00    -0.345 OA
ATOM      9  H1  UNL     1      -7.520 -30.470  19.663  1.00  0.00     0.219 HD
ENDBRANCH   6   8
BRANCH   7  10
HETATM   10  C7  UNL     1      -9.309 -28.672  17.225  1.00  0.00     0.043 A
HETATM   11  C8  UNL     1      -8.844 -28.792  15.928  1.00  0.00     0.030 A
HETATM   12  C9  UNL     1      -9.570 -29.466  14.958  1.00  0.00     0.002 A
HETATM   13  C10 UNL     1     -10.776 -30.010  15.352  1.00  0.00     0.000 A
HETATM   14  C11 UNL     1     -11.250 -29.894  16.657  1.00  0.00     0.002 A
HETATM   15  C12 UNL     1     -10.507 -29.217  17.604  1.00  0.00     0.030 A
ENDBRANCH   7  10
ENDBRANCH   1   3
BRANCH   1  16
HETATM   16  N2  UNL     1      -9.028 -25.078  16.666  1.00  0.00    -0.282 N
ATOM     17  H2  UNL     1      -9.041 -25.481  15.729  1.00  0.00     0.188 HD
BRANCH  16  18
HETATM   18  C4  UNL     1      -8.559 -23.906  16.788  1.00  0.00     0.139 A
HETATM   19  C5  UNL     1      -9.036 -22.958  17.669  1.00  0.00     0.157 A
HETATM   20  N3  UNL     1      -8.448 -21.752  17.698  1.00  0.00    -0.306 N
HETATM   21  N4  UNL     1      -7.433 -21.418  16.928  1.00  0.00    -0.276 N
ATOM     22  H3  UNL     1      -8.807 -21.056  18.352  1.00  0.00     0.186 HD
HETATM   23  C6  UNL     1      -6.953 -22.327  16.063  1.00  0.00     0.192 A
ATOM     24  H4  UNL     1      -7.019 -20.487  16.988  1.00  0.00     0.189 HD
HETATM   25  S2  UNL     1      -5.697 -21.940  15.097  1.00  0.00    -0.039 SA
HETATM   26  N5  UNL     1      -7.523 -23.549  16.009  1.00  0.00    -0.316 N
ATOM     27  H5  UNL     1      -7.152 -24.232  15.348  1.00  0.00     0.170 HD
ENDBRANCH  16  18
ENDBRANCH   1  16
TORSDOF 5
ENDMDL