MODEL 3
REMARK VINA RESULT: -7.461587096      4.367      8.544
REMARK  3 active torsions:
REMARK  status: ('A' for Active; 'I' for Inactive)
REMARK    1  A    between atoms: C3_4  and  N2_5
REMARK    2  A    between atoms: C7_9  and  N3_10
REMARK    3  A    between atoms: N3_10  and  C8_12
ROOT
HETATM    1  N1  UNL     1     -11.106 -29.546  15.959  1.00  0.00    -0.191 NA
HETATM    2  C1  UNL     1     -10.415 -29.024  16.758  1.00  0.00     0.105 C
HETATM    3  C2  UNL     1      -9.574 -28.394  17.762  1.00  0.00     0.114 A
HETATM    4  C3  UNL     1      -8.882 -29.172  18.680  1.00  0.00     0.160 A
HETATM    5  N5  UNL     1      -8.142 -28.503  19.562  1.00  0.00    -0.174 N
ATOM      6  H5  UNL     1      -7.619 -29.042  20.253  1.00  0.00     0.186 HD
HETATM    7  C9  UNL     1      -8.036 -27.125  19.602  1.00  0.00     0.680 A
HETATM    8  N6  UNL     1      -7.294 -26.615  20.488  1.00  0.00    -0.234 N
ATOM      9  H61 UNL     1      -7.216 -25.599  20.517  1.00  0.00     0.174 HD
ATOM     10  H62 UNL     1      -6.787 -27.188  21.162  1.00  0.00     0.174 HD
HETATM   11  N7  UNL     1      -8.700 -26.375  18.721  1.00  0.00    -0.186 N
HETATM   12  C10 UNL     1      -9.468 -27.031  17.802  1.00  0.00     0.053 A
HETATM   13  C11 UNL     1     -10.271 -26.340  16.737  1.00  0.00     0.059 C
HETATM   14  C12 UNL     1      -9.276 -25.660  15.785  1.00  0.00     0.006 C
HETATM   15  C13 UNL     1      -8.804 -24.375  16.377  1.00  0.00     0.002 C
HETATM   16  C14 UNL     1      -7.821 -24.538  17.517  1.00  0.00     0.021 C
HETATM   17  C15 UNL     1      -8.566 -24.952  18.800  1.00  0.00     0.147 C
ENDROOT
BRANCH   4  18
HETATM   18  N2  UNL     1      -8.972 -30.593  18.657  1.00  0.00    -0.277 N
HETATM   19  C4  UNL     1      -7.934 -31.474  18.157  1.00  0.00     0.150 C
HETATM   20  C5  UNL     1      -8.685 -32.662  17.537  1.00  0.00     0.026 C
HETATM   21  C6  UNL     1      -9.220 -33.469  18.700  1.00  0.00     0.050 C
HETATM   22  C7  UNL     1      -9.983 -32.517  19.598  1.00  0.00     0.197 C
HETATM   23  N4  UNL     1     -10.087 -31.203  19.124  1.00  0.00    -0.309 N
ATOM     24  H4  UNL     1     -10.983 -30.716  19.131  1.00  0.00     0.182 HD
BRANCH  22  25
HETATM   25  N3  UNL     1     -11.322 -33.028  19.881  1.00  0.00    -0.368 N
ATOM     26  H3  UNL     1     -11.473 -33.784  20.549  1.00  0.00     0.161 HD
BRANCH  25  27
HETATM   27  C8  UNL     1     -12.289 -32.490  19.259  1.00  0.00     0.167 C
HETATM   28  S1  UNL     1     -13.689 -32.040  18.641  1.00  0.00    -0.075 SA
ENDBRANCH  25  27
ENDBRANCH  22  25
ENDBRANCH   4  18
TORSDOF 3
ENDMDL