MODEL 4
REMARK VINA RESULT: -7.894472219      4.409     10.413
REMARK  2 active torsions:
REMARK  status: ('A' for Active; 'I' for Inactive)
REMARK    1  A    between atoms: C3_8  and  C4_9
REMARK    2  A    between atoms: C11_21  and  C12_22
ROOT
HETATM    1  N1  UNL     1     -11.134 -29.805  16.495  1.00  0.00    -0.385 N
ATOM      2  H11 UNL     1     -11.527 -30.744  16.434  1.00  0.00     0.157 HD
ATOM      3  H12 UNL     1     -11.371 -29.122  15.776  1.00  0.00     0.157 HD
HETATM    4  C1  UNL     1     -10.375 -29.550  17.468  1.00  0.00     0.114 A
HETATM    5  N2  UNL     1      -9.845 -28.282  17.550  1.00  0.00    -0.326 N
ATOM      6  H2  UNL     1     -10.069 -27.584  16.841  1.00  0.00     0.169 HD
HETATM    7  C2  UNL     1      -9.032 -27.972  18.570  1.00  0.00     0.142 A
HETATM    8  C3  UNL     1      -8.406 -26.761  18.824  1.00  0.00     0.053 A
HETATM    9  C9  UNL     1      -7.687 -26.995  20.005  1.00  0.00     0.125 A
HETATM   10  N4  UNL     1      -7.912 -28.259  20.366  1.00  0.00    -0.303 N
ATOM     11  H4  UNL     1      -7.511 -28.700  21.194  1.00  0.00     0.186 HD
HETATM   12  N5  UNL     1      -8.724 -28.872  19.512  1.00  0.00    -0.249 N
HETATM   13  C10 UNL     1      -9.214 -30.141  19.487  1.00  0.00     0.136 A
HETATM   14  C11 UNL     1     -10.057 -30.465  18.432  1.00  0.00     0.054 A
ENDROOT
BRANCH  14  15
HETATM   15  C12 UNL     1     -10.594 -31.835  18.394  1.00  0.00     0.074 A
HETATM   16  C13 UNL     1      -9.949 -33.000  18.068  1.00  0.00     0.036 A
HETATM   17  C14 UNL     1     -10.863 -34.030  18.177  1.00  0.00     0.053 A
HETATM   18  C15 UNL     1     -12.045 -33.506  18.563  1.00  0.00     0.128 A
HETATM   19  N6  UNL     1     -13.303 -33.871  18.850  1.00  0.00    -0.336 N
HETATM   20  N8  UNL     1     -11.885 -32.180  18.694  1.00  0.00    -0.238 N
HETATM   21  C16 UNL     1     -13.941 -32.732  19.171  1.00  0.00     0.199 A
ATOM     22  H6  UNL     1     -13.694 -34.812  18.830  1.00  0.00     0.168 HD
HETATM   23  N7  UNL     1     -13.062 -31.729  19.068  1.00  0.00    -0.287 N
ATOM     24  H7  UNL     1     -13.275 -30.749  19.256  1.00  0.00     0.188 HD
ENDBRANCH  14  15
BRANCH   8  25
HETATM   25  C4  UNL     1      -8.449 -25.513  18.082  1.00  0.00     0.047 A
HETATM   26  C5  UNL     1      -7.824 -25.464  16.833  1.00  0.00     0.030 A
HETATM   27  C6  UNL     1      -7.831 -24.306  16.080  1.00  0.00     0.004 A
HETATM   28  C7  UNL     1      -8.455 -23.165  16.540  1.00  0.00     0.017 A
HETATM   29  C8  UNL     1      -9.063 -23.239  17.776  1.00  0.00     0.088 A
HETATM   30  N3  UNL     1      -9.036 -24.384  18.481  1.00  0.00    -0.365 N
ATOM     31  H3  UNL     1      -9.500 -24.389  19.389  1.00  0.00     0.165 HD
ENDBRANCH   8  25
TORSDOF 2
ENDMDL