MODEL 3
REMARK VINA RESULT: -7.182354880      1.324      1.554
REMARK  3 active torsions:
REMARK  status: ('A' for Active; 'I' for Inactive)
REMARK    1  A    between atoms: C3_4  and  N2_5
REMARK    2  A    between atoms: C8_13  and  C9_14
REMARK    3  A    between atoms: C14_25  and  N7_26
ROOT
HETATM    1  N1  UNL     1      -7.591 -28.426  21.029  1.00  0.00    -0.191 NA
HETATM    2  C1  UNL     1      -8.078 -28.356  19.958  1.00  0.00     0.104 C
HETATM    3  C2  UNL     1      -8.677 -28.304  18.644  1.00  0.00     0.106 A
HETATM    4  C3  UNL     1      -9.086 -29.436  17.905  1.00  0.00     0.084 A
HETATM    5  C8  UNL     1      -9.583 -28.915  16.753  1.00  0.00     0.102 A
HETATM    6  N4  UNL     1      -9.515 -27.576  16.719  1.00  0.00    -0.247 N
HETATM    7  N5  UNL     1      -9.856 -26.644  15.848  1.00  0.00    -0.289 N
ATOM      8  H5  UNL     1     -10.278 -26.953  14.971  1.00  0.00     0.188 HD
HETATM    9  C13 UNL     1      -9.695 -25.331  16.020  1.00  0.00     0.199 A
HETATM   10  N6  UNL     1      -9.149 -24.906  17.154  1.00  0.00    -0.336 N
ATOM     11  H6  UNL     1      -9.012 -23.908  17.317  1.00  0.00     0.168 HD
HETATM   12  C14 UNL     1      -8.769 -25.823  18.107  1.00  0.00     0.130 A
HETATM   13  C15 UNL     1      -8.949 -27.182  17.900  1.00  0.00     0.123 A
ENDROOT
BRANCH   4  14
HETATM   14  N2  UNL     1      -8.930 -30.740  18.422  1.00  0.00    -0.374 N
HETATM   15  C4  UNL     1      -7.698 -31.467  18.187  1.00  0.00     0.150 C
HETATM   16  C5  UNL     1      -7.971 -32.915  18.418  1.00  0.00     0.252 C
HETATM   17  N3  UNL     1      -8.363 -33.114  19.786  1.00  0.00    -0.072 N
HETATM   18  C6  UNL     1      -9.524 -32.368  20.170  1.00  0.00     0.252 C
ATOM     19  H32 UNL     1      -8.494 -34.107  19.981  1.00  0.00     0.277 HD
ATOM     20  H31 UNL     1      -7.585 -32.917  20.415  1.00  0.00     0.277 HD
HETATM   21  C7  UNL     1      -9.956 -31.321  19.202  1.00  0.00     0.150 C
ENDBRANCH   4  14
BRANCH   5  22
HETATM   22  C9  UNL     1     -10.129 -29.722  15.647  1.00  0.00     0.035 A
HETATM   23  C10 UNL     1      -9.687 -29.859  14.359  1.00  0.00     0.022 A
HETATM   24  C11 UNL     1     -10.381 -30.670  13.543  1.00  0.00     0.008 A
HETATM   25  C12 UNL     1     -11.479 -31.297  14.063  1.00  0.00     0.050 A
HETATM   26  S1  UNL     1     -11.504 -30.737  15.666  1.00  0.00    -0.100 SA
ENDBRANCH   5  22
BRANCH  12  27
HETATM   27  N7  UNL     1      -8.262 -25.348  19.148  1.00  0.00    -0.383 N
ATOM     28  H72 UNL     1      -8.007 -24.365  19.248  1.00  0.00     0.157 HD
ATOM     29  H71 UNL     1      -8.113 -26.009  19.910  1.00  0.00     0.157 HD
ENDBRANCH  12  27
TORSDOF 3
ENDMDL