MODEL 5
REMARK VINA RESULT: -7.251098959      6.082      9.298
REMARK  8 active torsions:
REMARK  status: ('A' for Active; 'I' for Inactive)
REMARK       I    between atoms: C2_2  and  N1_4
REMARK    1  A    between atoms: C8_10  and  C9_11
REMARK    2  A    between atoms: C9_11  and  C10_12
REMARK       I    between atoms: C10_12  and  N2_14
REMARK    3  A    between atoms: N2_14  and  C11_16
REMARK    4  A    between atoms: C11_16  and  C12_17
REMARK    5  A    between atoms: C12_17  and  N3_18
REMARK       I    between atoms: N3_18  and  C13_20
REMARK    6  A    between atoms: C13_20  and  C14_22
REMARK       I    between atoms: C14_22  and  N4_24
REMARK    7  A    between atoms: N4_24  and  C15_26
REMARK    8  A    between atoms: C15_26  and  C16_27
ROOT
HETATM    1  N3  UNL     1       4.700  10.082  17.586  1.00  0.00    -0.351 N
ATOM      2  H3  UNL     1       4.455  10.641  18.404  1.00  0.00     0.162 HD
HETATM    3  C13 UNL     1       5.879   9.299  17.600  1.00  0.00     0.309 C
HETATM    4  O3  UNL     1       6.204   8.601  16.605  1.00  0.00    -0.262 OA
ENDROOT
BRANCH   1   5
HETATM    5  C12 UNL     1       3.830  10.099  16.414  1.00  0.00     0.143 C
BRANCH   5   6
HETATM    6  C11 UNL     1       4.160  11.347  15.626  1.00  0.00     0.142 C
BRANCH   6   7
HETATM    7  N2  UNL     1       5.363  11.192  14.848  1.00  0.00    -0.359 N
HETATM    8  C10 UNL     1       5.356  10.834  13.474  1.00  0.00     0.219 C
HETATM    9  O2  UNL     1       4.234  10.648  12.931  1.00  0.00    -0.274 OA
ATOM     10  H2  UNL     1       6.262  11.347  15.305  1.00  0.00     0.162 HD
BRANCH   8  11
HETATM   11  C9  UNL     1       6.632  10.687  12.709  1.00  0.00     0.128 C
BRANCH  11  12
HETATM   12  C8  UNL     1       7.288   9.395  13.011  1.00  0.00     0.096 C
HETATM   13  N1  UNL     1       6.868   8.239  12.274  1.00  0.00    -0.347 N
HETATM   14  C2  UNL     1       6.407   8.323  10.942  1.00  0.00     0.216 C
HETATM   15  C3  UNL     1       6.883   6.870  12.838  1.00  0.00     0.126 C
HETATM   16  C1  UNL     1       5.976   7.071  10.240  1.00  0.00     0.117 C
HETATM   17  O1  UNL     1       6.355   9.410  10.347  1.00  0.00    -0.274 OA
HETATM   18  C4  UNL     1       7.715   6.799  14.063  1.00  0.00     0.020 C
HETATM   19  C5  UNL     1       9.089   7.353  13.987  1.00  0.00     0.002 C
HETATM   20  C6  UNL     1       9.432   8.141  12.773  1.00  0.00     0.002 C
HETATM   21  C7  UNL     1       8.788   9.512  12.753  1.00  0.00     0.026 C
ENDBRANCH  11  12
ENDBRANCH   8  11
ENDBRANCH   6   7
ENDBRANCH   5   6
ENDBRANCH   1   5
BRANCH   3  22
HETATM   22  C14 UNL     1       6.725   9.297  18.768  1.00  0.00     0.309 C
HETATM   23  O4  UNL     1       7.933   8.922  18.683  1.00  0.00    -0.262 OA
HETATM   24  N4  UNL     1       6.243   9.709  20.027  1.00  0.00    -0.351 N
ATOM     25  H4  UNL     1       5.276  10.017  20.128  1.00  0.00     0.162 HD
BRANCH  24  26
HETATM   26  C15 UNL     1       7.118   9.693  21.170  1.00  0.00     0.156 C
BRANCH  26  27
HETATM   27  C16 UNL     1       6.494   9.083  22.389  1.00  0.00     0.208 C
HETATM   28  C17 UNL     1       5.695   7.832  22.087  1.00  0.00     0.037 C
HETATM   29  C18 UNL     1       6.771   6.822  21.802  1.00  0.00     0.030 C
HETATM   30  C19 UNL     1       7.951   7.310  22.599  1.00  0.00     0.238 C
HETATM   31  N5  UNL     1       7.555   8.543  23.216  1.00  0.00    -0.061 N
HETATM   32  C20 UNL     1       8.692   9.428  23.299  1.00  0.00     0.238 C
HETATM   33  C23 UNL     1       7.121   8.409  24.579  1.00  0.00     0.238 C
HETATM   34  C21 UNL     1       9.500   8.781  24.415  1.00  0.00     0.029 C
HETATM   35  C22 UNL     1       8.417   8.218  25.332  1.00  0.00     0.029 C
ENDBRANCH  26  27
ENDBRANCH  24  26
ENDBRANCH   3  22
TORSDOF 8
ENDMDL