MODEL 1
REMARK VINA RESULT: -7.850633290      0.000      0.000
REMARK  13 active torsions:
REMARK  status: ('A' for Active; 'I' for Inactive)
REMARK    1  A    between atoms: C2_2  and  N1_3
REMARK    2  A    between atoms: N1_3  and  C3_5
REMARK    3  A    between atoms: C3_5  and  N2_7
REMARK    4  A    between atoms: N2_7  and  C4_9
REMARK    5  A    between atoms: C4_9  and  C5_10
REMARK    6  A    between atoms: C5_10  and  C6_11
REMARK    7  A    between atoms: C6_11  and  N3_12
REMARK    8  A    between atoms: N4_15  and  C9_16
REMARK    9  A    between atoms: C9_16  and  O1_17
REMARK   10  A    between atoms: C9_16  and  N5_19
REMARK   11  A    between atoms: C14_24  and  C15_25
REMARK       I    between atoms: C15_25  and  N6_27
REMARK   12  A    between atoms: N6_27  and  C16_29
REMARK   13  A    between atoms: C16_29  and  C17_30
ROOT
HETATM    1  C9  UNL     1       4.228   5.170  21.691  1.00  0.00     0.219 C
ENDROOT
BRANCH   1   2
HETATM    2  N4  UNL     1       4.661   6.340  22.314  1.00  0.00    -0.330 N
HETATM    3  C8  UNL     1       4.462   6.611  23.756  1.00  0.00     0.148 C
HETATM    4  C7  UNL     1       5.730   7.399  24.139  1.00  0.00     0.143 C
HETATM    5  N3  UNL     1       6.335   7.762  22.963  1.00  0.00    -0.372 N
HETATM    6  C22 UNL     1       5.378   7.483  21.879  1.00  0.00     0.252 C
BRANCH   5   7
HETATM    7  C6  UNL     1       7.656   7.503  22.671  1.00  0.00     0.088 C
BRANCH   7   8
HETATM    8  C5  UNL     1       8.703   8.533  22.527  1.00  0.00     0.034 C
BRANCH   8   9
HETATM    9  C4  UNL     1       8.965   9.566  23.516  1.00  0.00     0.092 C
BRANCH   9  10
HETATM   10  N2  UNL     1       9.918   9.434  24.543  1.00  0.00    -0.343 N
ATOM     11  H2  UNL     1      10.384  10.321  24.732  1.00  0.00     0.167 HD
BRANCH  10  12
HETATM   12  C3  UNL     1      10.396   8.435  25.362  1.00  0.00     0.171 C
HETATM   13  S1  UNL     1       9.158   7.593  26.202  1.00  0.00    -0.041 SA
BRANCH  12  14
HETATM   14  N1  UNL     1      11.651   7.959  25.657  1.00  0.00    -0.367 N
ATOM     15  H1  UNL     1      12.312   8.019  24.884  1.00  0.00     0.161 HD
BRANCH  14  16
HETATM   16  C2  UNL     1      12.197   7.394  26.852  1.00  0.00     0.117 C
HETATM   17  C1  UNL     1      13.675   7.264  26.777  1.00  0.00     0.026 C
ENDBRANCH  14  16
ENDBRANCH  12  14
ENDBRANCH  10  12
ENDBRANCH   9  10
ENDBRANCH   8   9
ENDBRANCH   7   8
ENDBRANCH   5   7
ENDBRANCH   1   2
BRANCH   1  18
HETATM   18  O1  UNL     1       3.821   5.361  20.464  1.00  0.00    -0.332 OA
ATOM     19  H1  UNL     1       3.486   4.573  20.054  1.00  0.00     0.220 HD
ENDBRANCH   1  18
BRANCH   1  20
HETATM   20  N5  UNL     1       4.163   3.854  22.173  1.00  0.00    -0.333 N
HETATM   21  C10 UNL     1       3.090   3.254  22.992  1.00  0.00     0.132 C
HETATM   22  C11 UNL     1       2.706   2.106  22.118  1.00  0.00     0.011 A
HETATM   23  C12 UNL     1       3.360   0.783  22.260  1.00  0.00     0.014 A
HETATM   24  C13 UNL     1       4.034   1.733  21.379  1.00  0.00     0.024 A
HETATM   25  C14 UNL     1       5.030   2.708  22.031  1.00  0.00     0.184 C
BRANCH  25  26
HETATM   26  C15 UNL     1       6.239   2.810  21.268  1.00  0.00     0.241 C
HETATM   27  O2  UNL     1       6.996   3.801  21.309  1.00  0.00    -0.271 OA
HETATM   28  N6  UNL     1       6.629   1.738  20.404  1.00  0.00    -0.359 N
ATOM     29  H6  UNL     1       6.028   0.916  20.343  1.00  0.00     0.162 HD
BRANCH  28  30
HETATM   30  C16 UNL     1       7.829   1.772  19.623  1.00  0.00     0.127 C
BRANCH  30  31
HETATM   31  C17 UNL     1       8.116   0.425  19.003  1.00  0.00     0.003 C
HETATM   32  C18 UNL     1       9.525   0.289  18.522  1.00  0.00     0.006 C
HETATM   33  C19 UNL     1       9.488  -0.752  17.443  1.00  0.00     0.000 C
HETATM   34  C20 UNL     1       8.043  -0.888  17.033  1.00  0.00     0.000 C
HETATM   35  C21 UNL     1       7.276   0.158  17.791  1.00  0.00     0.006 C
ENDBRANCH  30  31
ENDBRANCH  28  30
ENDBRANCH  25  26
ENDBRANCH   1  20
TORSDOF 13
ENDMDL