MODEL 3
REMARK VINA RESULT: -6.527122523      3.208      7.127
REMARK  7 active torsions:
REMARK  status: ('A' for Active; 'I' for Inactive)
REMARK    1  A    between atoms: C2_2  and  C4_4
REMARK    2  A    between atoms: C4_4  and  C5_5
REMARK    3  A    between atoms: C10_16  and  C11_17
REMARK    4  A    between atoms: C11_17  and  C12_18
REMARK    5  A    between atoms: C12_18  and  C13_19
REMARK    6  A    between atoms: C13_19  and  C14_20
REMARK    7  A    between atoms: C14_20  and  N3_21
ROOT
HETATM    1  C5  UNL     1       7.363   8.499  21.242  1.00  0.00     0.173 C
HETATM    2  C6  UNL     1       7.081   7.072  21.202  1.00  0.00     0.231 C
HETATM    3  O1  UNL     1       7.758   6.388  22.075  1.00  0.00    -0.273 OA
HETATM    4  N1  UNL     1       6.210   6.332  20.388  1.00  0.00    -0.347 N
ATOM      5  H1  UNL     1       6.656   5.634  19.794  1.00  0.00     0.163 HD
HETATM    6  C7  UNL     1       4.767   6.416  20.271  1.00  0.00     0.172 C
HETATM    7  C8  UNL     1       4.220   7.808  20.312  1.00  0.00     0.042 C
HETATM    8  C9  UNL     1       4.104   5.440  21.170  1.00  0.00     0.240 C
HETATM    9  O2  UNL     1       4.051   4.271  20.607  1.00  0.00    -0.271 OA
HETATM   10  N2  UNL     1       3.559   5.519  22.428  1.00  0.00    -0.354 N
ATOM     11  H2  UNL     1       4.152   5.040  23.106  1.00  0.00     0.162 HD
HETATM   12  C10 UNL     1       2.425   6.064  23.064  1.00  0.00     0.093 C
HETATM   13  C18 UNL     1       2.837   6.707  24.373  1.00  0.00     0.128 C
HETATM   14  C19 UNL     1       3.226   8.121  24.281  1.00  0.00     0.219 C
HETATM   15  O3  UNL     1       2.315   8.977  24.227  1.00  0.00    -0.274 OA
HETATM   16  N4  UNL     1       4.557   8.612  24.249  1.00  0.00    -0.359 N
ATOM     17  H4  UNL     1       4.720   9.557  23.898  1.00  0.00     0.162 HD
HETATM   18  C20 UNL     1       5.697   7.832  24.692  1.00  0.00     0.149 C
HETATM   19  C21 UNL     1       6.949   8.606  24.702  1.00  0.00     0.123 A
HETATM   20  C22 UNL     1       8.173   7.720  24.984  1.00  0.00     0.153 A
HETATM   21  N5  UNL     1       7.942   8.439  23.752  1.00  0.00    -0.342 N
HETATM   22  C23 UNL     1       8.164   8.921  22.443  1.00  0.00     0.233 C
HETATM   23  O4  UNL     1       9.062   9.762  22.144  1.00  0.00    -0.272 OA
ENDROOT
BRANCH  12  24
HETATM   24  C11 UNL     1       1.446   6.901  22.366  1.00  0.00     0.026 C
BRANCH  24  25
HETATM   25  C12 UNL     1       0.058   6.331  22.273  1.00  0.00     0.004 C
BRANCH  25  26
HETATM   26  C13 UNL     1      -0.809   6.534  23.457  1.00  0.00     0.028 C
BRANCH  26  27
HETATM   27  C14 UNL     1      -0.970   7.916  23.968  1.00  0.00     0.236 C
BRANCH  27  28
HETATM   28  N3  UNL     1      -1.074   8.100  25.373  1.00  0.00    -0.079 N
HETATM   29  C15 UNL     1      -2.468   7.722  25.732  1.00  0.00     0.271 C
HETATM   30  C16 UNL     1      -0.978   9.486  25.792  1.00  0.00     0.271 C
HETATM   31  C17 UNL     1      -0.239   7.308  26.210  1.00  0.00     0.271 C
ENDBRANCH  27  28
ENDBRANCH  26  27
ENDBRANCH  25  26
ENDBRANCH  24  25
ENDBRANCH  12  24
BRANCH   1  32
HETATM   32  C4  UNL     1       7.886   9.072  19.958  1.00  0.00     0.056 C
BRANCH  32  33
HETATM   33  C2  UNL     1       6.973   9.833  19.120  1.00  0.00    -0.092 C
HETATM   34  C1  UNL     1       6.361  10.910  19.598  1.00  0.00     0.014 C
HETATM   35  C3  UNL     1       6.664   9.435  17.728  1.00  0.00     0.042 C
ENDBRANCH  32  33
ENDBRANCH   1  32
TORSDOF 7
ENDMDL