MODEL 3
REMARK VINA RESULT: -8.720993419      1.241      1.662
REMARK  9 active torsions:
REMARK  status: ('A' for Active; 'I' for Inactive)
REMARK    1  A    between atoms: N1_2  and  C2_3
REMARK    2  A    between atoms: C2_3  and  C3_4
REMARK       I    between atoms: C3_4  and  N2_6
REMARK    3  A    between atoms: N2_6  and  C4_8
REMARK    4  A    between atoms: C6_12  and  O2_13
REMARK    5  A    between atoms: N5_19  and  S1_20
REMARK    6  A    between atoms: S1_20  and  C9_23
REMARK    7  A    between atoms: C10_24  and  C11_25
REMARK    8  A    between atoms: C11_25  and  C12_26
REMARK    9  A    between atoms: C12_26  and  C13_27
ROOT
HETATM    1  C1  UNL     1       5.518   8.582  23.656  1.00  0.00     0.286 C
HETATM    2  N1  UNL     1       5.882   7.568  22.688  1.00  0.00     0.021 N
HETATM    3  C7  UNL     1       5.541   8.056  21.363  1.00  0.00     0.271 C
HETATM    4  C8  UNL     1       5.553   6.750  20.570  1.00  0.00     0.175 C
HETATM    5  N5  UNL     1       5.036   5.810  21.522  1.00  0.00    -0.216 N
HETATM    6  C20 UNL     1       5.070   6.410  22.805  1.00  0.00     0.431 C
HETATM    7  O5  UNL     1       4.489   6.001  23.867  1.00  0.00    -0.238 OA
ENDROOT
BRANCH   2   8
HETATM    8  C2  UNL     1       7.257   7.173  22.769  1.00  0.00     0.352 C
BRANCH   8   9
HETATM    9  C3  UNL     1       8.198   8.250  23.031  1.00  0.00     0.262 C
HETATM   10  O1  UNL     1       8.888   8.734  22.103  1.00  0.00    -0.271 OA
HETATM   11  N2  UNL     1       8.370   8.793  24.338  1.00  0.00    -0.158 N
ATOM     12  H2  UNL     1       7.714   9.502  24.664  1.00  0.00     0.187 HD
BRANCH  11  13
HETATM   13  C4  UNL     1       9.316   8.422  25.121  1.00  0.00     0.686 A
HETATM   14  N3  UNL     1      10.607   8.757  24.965  1.00  0.00    -0.197 N
HETATM   15  C5  UNL     1      11.345   8.206  25.959  1.00  0.00     0.162 A
ATOM     16  H3  UNL     1      10.976   9.337  24.211  1.00  0.00     0.183 HD
HETATM   17  C6  UNL     1      10.471   7.505  26.759  1.00  0.00     0.171 A
HETATM   18  N4  UNL     1       9.233   7.665  26.206  1.00  0.00    -0.169 N
ATOM     19  H4  UNL     1       8.372   7.261  26.573  1.00  0.00     0.186 HD
BRANCH  17  20
HETATM   20  O2  UNL     1      10.830   6.795  27.890  1.00  0.00    -0.345 OA
ATOM     21  H2  UNL     1      10.384   6.847  28.727  1.00  0.00     0.219 HD
ENDBRANCH  17  20
ENDBRANCH  11  13
ENDBRANCH   8   9
ENDBRANCH   2   8
BRANCH   5  22
HETATM   22  S1  UNL     1       4.431   4.179  21.250  1.00  0.00     0.258 S
HETATM   23  O3  UNL     1       4.481   4.076  19.721  1.00  0.00    -0.201 OA
HETATM   24  O4  UNL     1       3.038   4.130  21.677  1.00  0.00    -0.201 OA
BRANCH  22  25
HETATM   25  C9  UNL     1       5.528   3.010  21.899  1.00  0.00     0.128 C
HETATM   26  C10 UNL     1       6.283   2.067  21.110  1.00  0.00    -0.013 C
BRANCH  26  27
HETATM   27  C11 UNL     1       7.203   2.407  20.009  1.00  0.00     0.028 C
BRANCH  27  28
HETATM   28  C12 UNL     1       7.824   1.300  19.246  1.00  0.00     0.009 C
BRANCH  28  29
HETATM   29  C13 UNL     1       6.756   0.407  18.613  1.00  0.00    -0.010 C
HETATM   30  C14 UNL     1       7.303  -0.410  17.462  1.00  0.00     0.009 C
HETATM   31  C15 UNL     1       6.325  -0.079  16.356  1.00  0.00    -0.014 C
HETATM   32  C16 UNL     1       4.932  -0.526  16.716  1.00  0.00     0.005 C
HETATM   33  C19 UNL     1       6.166   1.432  16.609  1.00  0.00     0.009 C
HETATM   34  C17 UNL     1       4.458   0.400  17.821  1.00  0.00     0.005 C
HETATM   35  C18 UNL     1       5.656   1.273  18.051  1.00  0.00    -0.010 C
ENDBRANCH  28  29
ENDBRANCH  27  28
ENDBRANCH  26  27
ENDBRANCH  22  25
ENDBRANCH   5  22
TORSDOF 9
ENDMDL