MODEL 5
REMARK VINA RESULT: -6.312616205      8.854     10.060
REMARK  7 active torsions:
REMARK  status: ('A' for Active; 'I' for Inactive)
REMARK    1  A    between atoms: C2_2  and  N1_4
REMARK    2  A    between atoms: N1_4  and  C5_6
REMARK    3  A    between atoms: C5_6  and  C6_7
REMARK    4  A    between atoms: C8_10  and  C9_11
REMARK       I    between atoms: C9_11  and  N2_13
REMARK    5  A    between atoms: N3_16  and  C12_17
REMARK    6  A    between atoms: C12_17  and  C13_18
REMARK    7  A    between atoms: C13_18  and  N4_19
ROOT
HETATM    1  C9  UNL     1       6.766   9.465  18.990  1.00  0.00     0.249 C
HETATM    2  O2  UNL     1       7.872   8.871  18.755  1.00  0.00    -0.272 OA
HETATM    3  N2  UNL     1       5.990   9.910  17.911  1.00  0.00    -0.149 N
HETATM    4  C10 UNL     1       4.682  10.568  18.023  1.00  0.00     0.171 C
HETATM    5  C11 UNL     1       3.963  10.032  16.787  1.00  0.00     0.162 C
HETATM    6  N3  UNL     1       5.027   9.886  15.771  1.00  0.00    -0.215 N
HETATM    7  C21 UNL     1       6.240   9.857  16.503  1.00  0.00     0.678 C
HETATM    8  N5  UNL     1       7.419   9.799  16.000  1.00  0.00    -0.234 N
ATOM      9  H51 UNL     1       7.597   9.762  14.997  1.00  0.00     0.174 HD
ATOM     10  H52 UNL     1       8.292   9.778  16.527  1.00  0.00     0.174 HD
ENDROOT
BRANCH   1  11
HETATM   11  C8  UNL     1       6.416   9.625  20.416  1.00  0.00     0.150 C
HETATM   12  C7  UNL     1       7.606   9.339  21.313  1.00  0.00     0.150 C
HETATM   13  C6  UNL     1       7.373   7.991  21.811  1.00  0.00     0.109 C
HETATM   14  O1  UNL     1       8.464  10.173  21.460  1.00  0.00    -0.296 OA
HETATM   15  C23 UNL     1       5.875   7.988  22.081  1.00  0.00     0.076 C
HETATM   16  C22 UNL     1       5.342   8.645  20.831  1.00  0.00     0.039 C
HETATM   17  S1  UNL     1       5.225   6.317  22.183  1.00  0.00    -0.091 SA
BRANCH  13  18
HETATM   18  C5  UNL     1       8.158   7.497  22.955  1.00  0.00     0.077 C
BRANCH  18  19
HETATM   19  N1  UNL     1       8.122   8.188  24.183  1.00  0.00    -0.368 N
HETATM   20  C4  UNL     1       6.901   8.609  24.806  1.00  0.00     0.155 C
BRANCH  19  21
HETATM   21  C2  UNL     1       9.341   8.486  24.845  1.00  0.00    -0.003 C
HETATM   22  C1  UNL     1      10.181   9.318  24.289  1.00  0.00     0.037 C
HETATM   23  C3  UNL     1       9.637   7.858  26.141  1.00  0.00     0.067 C
ENDBRANCH  19  21
ENDBRANCH  18  19
ENDBRANCH  13  18
ENDBRANCH   1  11
BRANCH   6  24
HETATM   24  C12 UNL     1       4.767   9.802  14.344  1.00  0.00     0.169 C
BRANCH  24  25
HETATM   25  C13 UNL     1       5.023   8.442  13.830  1.00  0.00     0.258 C
BRANCH  25  26
HETATM   26  N4  UNL     1       5.567   8.483  12.507  1.00  0.00    -0.061 N
HETATM   27  C14 UNL     1       5.330   7.263  11.758  1.00  0.00     0.238 C
HETATM   28  C15 UNL     1       6.400   7.207  10.672  1.00  0.00     0.034 C
HETATM   29  C16 UNL     1       7.139   8.503  10.926  1.00  0.00     0.019 C
HETATM   30  C17 UNL     1       6.215   9.618  10.553  1.00  0.00     0.034 C
HETATM   31  C19 UNL     1       7.021   8.554  12.462  1.00  0.00     0.190 C
HETATM   32  C18 UNL     1       5.190   9.586  11.693  1.00  0.00     0.238 C
HETATM   33  C20 UNL     1       7.695   7.368  13.066  1.00  0.00     0.041 C
ENDBRANCH  25  26
ENDBRANCH  24  25
ENDBRANCH   6  24
TORSDOF 7
ENDMDL