MODEL 3
REMARK VINA RESULT: -6.888407737      3.259      5.487
REMARK  9 active torsions:
REMARK  status: ('A' for Active; 'I' for Inactive)
REMARK    1  A    between atoms: N3_15  and  C11_16
REMARK    2  A    between atoms: C11_16  and  C12_17
REMARK    3  A    between atoms: C12_17  and  C13_18
REMARK    4  A    between atoms: C19_28  and  C20_29
REMARK    5  A    between atoms: C20_29  and  C21_30
REMARK    6  A    between atoms: C21_30  and  C22_31
REMARK    7  A    between atoms: C22_31  and  C23_32
REMARK    8  A    between atoms: C23_32  and  C24_33
REMARK    9  A    between atoms: C24_33  and  N5_34
ROOT
HETATM    1  C1  UNL     1       4.530   3.999  17.243  1.00  0.00     0.153 C
HETATM    2  N1  UNL     1       4.615   3.318  18.520  1.00  0.00    -0.341 N
HETATM    3  C2  UNL     1       3.323   3.152  19.144  1.00  0.00     0.245 C
HETATM    4  O1  UNL     1       2.386   3.202  18.340  1.00  0.00    -0.271 OA
HETATM    5  C3  UNL     1       3.044   2.946  20.538  1.00  0.00     0.201 C
HETATM    6  C4  UNL     1       3.886   3.668  21.560  1.00  0.00     0.119 C
HETATM    7  C5  UNL     1       4.153   2.638  22.634  1.00  0.00     0.028 C
HETATM    8  C6  UNL     1       3.004   2.624  23.625  1.00  0.00     0.002 C
HETATM    9  C7  UNL     1       2.136   1.425  23.560  1.00  0.00     0.009 C
HETATM   10  C8  UNL     1       0.844   1.550  22.834  1.00  0.00     0.103 C
HETATM   11  C9  UNL     1       0.779   2.667  21.859  1.00  0.00     0.220 C
HETATM   12  O2  UNL     1      -0.321   3.273  21.880  1.00  0.00    -0.273 OA
HETATM   13  N2  UNL     1       1.682   3.238  20.880  1.00  0.00    -0.341 N
HETATM   14  C10 UNL     1       1.042   4.304  20.168  1.00  0.00     0.153 C
HETATM   15  N3  UNL     1       5.033   4.342  21.133  1.00  0.00    -0.343 N
HETATM   16  C18 UNL     1       6.086   3.889  20.243  1.00  0.00     0.243 C
HETATM   17  O3  UNL     1       7.246   4.305  20.442  1.00  0.00    -0.271 OA
HETATM   18  C19 UNL     1       5.856   2.940  19.088  1.00  0.00     0.179 C
ENDROOT
BRANCH  15  19
HETATM   19  C11 UNL     1       5.203   5.712  21.524  1.00  0.00     0.127 C
BRANCH  19  20
HETATM   20  C12 UNL     1       4.130   6.417  22.208  1.00  0.00     0.024 C
BRANCH  20  21
HETATM   21  C13 UNL     1       4.083   6.617  23.659  1.00  0.00    -0.010 C
HETATM   22  C14 UNL     1       5.505   7.116  24.065  1.00  0.00     0.032 C
HETATM   23  C15 UNL     1       5.473   8.615  23.924  1.00  0.00     0.232 C
HETATM   24  N4  UNL     1       4.815   9.159  25.098  1.00  0.00    -0.075 N
HETATM   25  C16 UNL     1       3.680   8.309  25.394  1.00  0.00     0.232 C
ATOM     26  H42 UNL     1       5.446   9.270  25.891  1.00  0.00     0.277 HD
ATOM     27  H41 UNL     1       4.559  10.140  24.991  1.00  0.00     0.277 HD
HETATM   28  C17 UNL     1       3.133   7.703  24.106  1.00  0.00     0.032 C
ENDBRANCH  20  21
ENDBRANCH  19  20
ENDBRANCH  15  19
BRANCH  18  29
HETATM   29  C20 UNL     1       6.165   1.560  19.438  1.00  0.00     0.035 C
BRANCH  29  30
HETATM   30  C21 UNL     1       7.565   1.094  19.606  1.00  0.00     0.002 C
BRANCH  30  31
HETATM   31  C22 UNL     1       8.102   0.346  18.449  1.00  0.00     0.002 C
BRANCH  31  32
HETATM   32  C23 UNL     1       9.634   0.267  18.483  1.00  0.00     0.027 C
BRANCH  32  33
HETATM   33  C24 UNL     1       9.979  -0.975  17.676  1.00  0.00     0.229 C
BRANCH  33  34
HETATM   34  N5  UNL     1      11.305  -1.464  17.959  1.00  0.00    -0.079 N
ATOM     35  H53 UNL     1      11.875  -1.492  17.113  1.00  0.00     0.274 HD
ATOM     36  H52 UNL     1      11.842  -0.782  18.495  1.00  0.00     0.274 HD
ATOM     37  H51 UNL     1      11.295  -2.372  18.424  1.00  0.00     0.274 HD
ENDBRANCH  33  34
ENDBRANCH  32  33
ENDBRANCH  31  32
ENDBRANCH  30  31
ENDBRANCH  29  30
ENDBRANCH  18  29
TORSDOF 9
ENDMDL