MODEL 2
REMARK VINA RESULT: -8.564304131      1.733      1.950
REMARK  9 active torsions:
REMARK  status: ('A' for Active; 'I' for Inactive)
REMARK    1  A    between atoms: C2_2  and  C3_3
REMARK    2  A    between atoms: C3_3  and  C4_4
REMARK    3  A    between atoms: C4_4  and  N1_5
REMARK       I    between atoms: N1_5  and  C5_7
REMARK    4  A    between atoms: C5_7  and  C6_9
REMARK    5  A    between atoms: C6_9  and  N2_10
REMARK    6  A    between atoms: N3_13  and  C9_14
REMARK    7  A    between atoms: C9_14  and  N4_16
REMARK    8  A    between atoms: N4_16  and  C10_18
REMARK    9  A    between atoms: N5_21  and  C13_23
ROOT
HETATM    1  N2  UNL     1       4.966   5.595  20.653  1.00  0.00    -0.401 N
HETATM    2  C7  UNL     1       4.201   5.595  21.849  1.00  0.00     0.137 C
HETATM    3  C8  UNL     1       4.261   6.947  22.548  1.00  0.00     0.144 C
HETATM    4  N3  UNL     1       5.629   7.314  22.815  1.00  0.00    -0.355 N
HETATM    5  C15 UNL     1       6.670   6.615  22.089  1.00  0.00     0.144 C
HETATM    6  C16 UNL     1       6.221   6.262  20.688  1.00  0.00     0.137 C
ENDROOT
BRANCH   4   7
HETATM    7  C9  UNL     1       5.908   8.334  23.762  1.00  0.00     0.170 C
HETATM    8  S1  UNL     1       4.726   8.694  24.826  1.00  0.00    -0.041 SA
BRANCH   7   9
HETATM    9  N4  UNL     1       7.129   9.014  23.818  1.00  0.00    -0.353 N
ATOM     10  H4  UNL     1       7.313   9.669  23.059  1.00  0.00     0.162 HD
BRANCH   9  11
HETATM   11  C10 UNL     1       8.150   8.902  24.810  1.00  0.00     0.183 C
HETATM   12  C11 UNL     1       8.280   7.567  25.460  1.00  0.00     0.111 C
HETATM   13  C12 UNL     1       9.665   7.616  26.017  1.00  0.00     0.088 C
HETATM   14  N5  UNL     1      10.100   7.101  27.106  1.00  0.00    -0.324 N
HETATM   15  N6  UNL     1      10.402   8.366  25.061  1.00  0.00    -0.315 N
ATOM     16  H5  UNL     1       9.435   6.588  27.685  1.00  0.00     0.169 HD
HETATM   17  C14 UNL     1       9.519   9.107  24.231  1.00  0.00     0.246 C
ATOM     18  H6  UNL     1      11.418   8.371  24.983  1.00  0.00     0.170 HD
HETATM   19  O3  UNL     1       9.815   9.794  23.221  1.00  0.00    -0.271 OA
BRANCH  14  20
HETATM   20  C13 UNL     1      11.424   7.193  27.562  1.00  0.00     0.354 C
HETATM   21  O2  UNL     1      12.446   7.191  26.833  1.00  0.00    -0.283 OA
ENDBRANCH  14  20
ENDBRANCH   9  11
ENDBRANCH   7   9
ENDBRANCH   4   7
BRANCH   1  22
HETATM   22  C6  UNL     1       4.215   5.710  19.448  1.00  0.00     0.219 C
BRANCH  22  23
HETATM   23  C5  UNL     1       4.162   4.434  18.699  1.00  0.00     0.235 C
HETATM   24  N1  UNL     1       4.971   4.223  17.517  1.00  0.00    -0.360 N
ATOM     25  H1  UNL     1       5.596   4.958  17.184  1.00  0.00     0.162 HD
HETATM   26  O1  UNL     1       3.415   3.503  19.066  1.00  0.00    -0.272 OA
BRANCH  24  27
HETATM   27  C4  UNL     1       4.888   2.971  16.819  1.00  0.00     0.123 C
BRANCH  27  28
HETATM   28  C3  UNL     1       6.001   2.027  16.905  1.00  0.00     0.029 C
BRANCH  28  29
HETATM   29  C2  UNL     1       6.027   0.947  17.903  1.00  0.00    -0.043 C
HETATM   30  C1  UNL     1       4.639   0.425  18.250  1.00  0.00     0.015 C
HETATM   31  C17 UNL     1       6.892  -0.207  17.608  1.00  0.00     0.009 C
HETATM   32  C18 UNL     1       8.383   0.146  17.529  1.00  0.00     0.001 C
HETATM   33  C19 UNL     1       8.813   0.692  18.855  1.00  0.00     0.000 C
HETATM   34  C20 UNL     1       7.636   0.813  19.824  1.00  0.00     0.001 C
HETATM   35  C21 UNL     1       6.510   1.595  19.228  1.00  0.00     0.009 C
ENDBRANCH  28  29
ENDBRANCH  27  28
ENDBRANCH  24  27
ENDBRANCH  22  23
ENDBRANCH   1  22
TORSDOF 9
ENDMDL