MODEL 2
REMARK VINA RESULT: -8.158343228      2.193      4.053
REMARK  8 active torsions:
REMARK  status: ('A' for Active; 'I' for Inactive)
REMARK    1  A    between atoms: N3_4  and  N4_6
REMARK    2  A    between atoms: C5_11  and  N5_12
REMARK    3  A    between atoms: N5_12  and  S1_14
REMARK    4  A    between atoms: S1_14  and  N6_17
REMARK    5  A    between atoms: N6_17  and  C6_18
REMARK    6  A    between atoms: N6_17  and  C12_26
REMARK    7  A    between atoms: C6_18  and  C7_19
REMARK       I    between atoms: C7_19  and  N7_21
REMARK    8  A    between atoms: C12_26  and  C13_27
ROOT
HETATM    1  S1  UNL     1       4.139   7.025  20.630  1.00  0.00     0.299 S
HETATM    2  O1  UNL     1       2.911   7.900  20.358  1.00  0.00    -0.188 OA
HETATM    3  O2  UNL     1       4.594   6.622  19.224  1.00  0.00    -0.188 OA
ENDROOT
BRANCH   1   4
HETATM    4  N5  UNL     1       5.386   7.923  21.344  1.00  0.00    -0.302 N
ATOM      5  H5  UNL     1       5.369   8.186  22.330  1.00  0.00     0.173 HD
BRANCH   4   6
HETATM    6  C5  UNL     1       6.469   8.292  20.474  1.00  0.00     0.094 C
HETATM    7  C4  UNL     1       6.821   9.773  20.661  1.00  0.00     0.031 C
HETATM    8  C3  UNL     1       7.956   9.952  21.636  1.00  0.00     0.056 C
HETATM    9  C2  UNL     1       8.092   8.888  22.625  1.00  0.00     0.004 C
HETATM   10  N4  UNL     1       8.258   9.187  23.862  1.00  0.00    -0.307 N
HETATM   11  C20 UNL     1       8.044   7.474  22.227  1.00  0.00     0.056 C
ATOM     12  H4  UNL     1       8.292  10.169  24.137  1.00  0.00     0.186 HD
HETATM   13  C19 UNL     1       7.676   7.461  20.743  1.00  0.00     0.031 C
BRANCH  10  14
HETATM   14  N3  UNL     1       8.393   8.201  24.837  1.00  0.00    -0.276 N
HETATM   15  C1  UNL     1       9.418   8.093  25.604  1.00  0.00     0.215 C
HETATM   16  N1  UNL     1      10.545   8.956  25.563  1.00  0.00    -0.065 NA
HETATM   17  N2  UNL     1       9.428   7.038  26.557  1.00  0.00    -0.065 NA
ATOM     18  H3  UNL     1       7.635   7.527  24.947  1.00  0.00     0.189 HD
ENDBRANCH  10  14
ENDBRANCH   4   6
ENDBRANCH   1   4
BRANCH   1  19
HETATM   19  N6  UNL     1       3.694   5.581  21.414  1.00  0.00    -0.184 NA
BRANCH  19  20
HETATM   20  C6  UNL     1       4.171   5.597  22.775  1.00  0.00     0.211 C
BRANCH  20  21
HETATM   21  C7  UNL     1       3.122   6.147  23.645  1.00  0.00     0.233 C
HETATM   22  O3  UNL     1       1.934   5.711  23.649  1.00  0.00    -0.272 OA
HETATM   23  N7  UNL     1       3.461   7.225  24.525  1.00  0.00    -0.351 N
HETATM   24  C8  UNL     1       2.534   7.848  25.420  1.00  0.00     0.126 C
HETATM   25  C11 UNL     1       4.782   7.827  24.626  1.00  0.00     0.126 C
HETATM   26  C9  UNL     1       3.262   8.981  26.035  1.00  0.00     0.021 C
HETATM   27  C10 UNL     1       4.472   9.209  25.165  1.00  0.00     0.021 C
ENDBRANCH  20  21
ENDBRANCH  19  20
BRANCH  19  28
HETATM   28  C12 UNL     1       4.123   4.395  20.728  1.00  0.00     0.114 C
BRANCH  28  29
HETATM   29  C13 UNL     1       5.440   3.862  21.291  1.00  0.00    -0.000 C
HETATM   30  C14 UNL     1       5.281   2.389  21.583  1.00  0.00     0.006 C
HETATM   31  C15 UNL     1       5.445   1.544  20.316  1.00  0.00     0.000 C
HETATM   32  C16 UNL     1       6.897   1.553  19.926  1.00  0.00     0.000 C
HETATM   33  C17 UNL     1       7.505   2.850  20.415  1.00  0.00     0.000 C
HETATM   34  C18 UNL     1       6.552   4.002  20.280  1.00  0.00     0.006 C
ENDBRANCH  28  29
ENDBRANCH  19  28
ENDBRANCH   1  19
TORSDOF 8
ENDMDL