MODEL 1
REMARK VINA RESULT: -7.187770800      0.000      0.000
REMARK  8 active torsions:
REMARK  status: ('A' for Active; 'I' for Inactive)
REMARK    1  A    between atoms: N1_2  and  C2_3
REMARK    2  A    between atoms: C2_3  and  C3_4
REMARK    3  A    between atoms: C3_4  and  C4_5
REMARK    4  A    between atoms: C3_4  and  C17_23
REMARK    5  A    between atoms: C4_5  and  C5_6
REMARK    6  A    between atoms: C5_6  and  C6_7
REMARK    7  A    between atoms: N2_12  and  C10_13
REMARK    8  A    between atoms: C13_16  and  C14_17
REMARK       I    between atoms: N3_28  and  C22_29
ROOT
HETATM    1  C4  UNL     1       4.477   5.418  21.825  1.00  0.00     0.009 C
ENDROOT
BRANCH   1   2
HETATM    2  C3  UNL     1       5.223   6.616  22.398  1.00  0.00     0.016 C
BRANCH   2   3
HETATM    3  C2  UNL     1       6.055   7.307  21.401  1.00  0.00     0.244 C
BRANCH   3   4
HETATM    4  N1  UNL     1       7.301   7.869  21.778  1.00  0.00    -0.053 N
HETATM    5  C1  UNL     1       8.358   7.831  20.826  1.00  0.00     0.274 C
HETATM    6  C20 UNL     1       7.110   9.309  22.120  1.00  0.00     0.259 C
HETATM    7  C21 UNL     1       8.204   9.627  23.081  1.00  0.00     0.155 C
HETATM    8  N3  UNL     1       8.444   8.385  23.740  1.00  0.00    -0.330 N
HETATM    9  C22 UNL     1       9.200   8.219  24.919  1.00  0.00     0.185 C
HETATM   10  C23 UNL     1       7.800   7.300  23.025  1.00  0.00     0.364 C
HETATM   11  N4  UNL     1       8.659   7.751  25.976  1.00  0.00    -0.374 N
HETATM   12  N5  UNL     1      10.569   8.578  24.917  1.00  0.00    -0.064 NA
ATOM     13  H42 UNL     1       7.673   7.493  25.978  1.00  0.00     0.158 HD
ATOM     14  H41 UNL     1       9.205   7.632  26.829  1.00  0.00     0.158 HD
ENDBRANCH   3   4
ENDBRANCH   2   3
BRANCH   2  15
HETATM   15  C17 UNL     1       4.156   7.544  22.937  1.00  0.00    -0.009 A
HETATM   16  C18 UNL     1       3.299   7.131  24.080  1.00  0.00     0.005 A
HETATM   17  C19 UNL     1       4.360   8.119  24.343  1.00  0.00     0.005 A
ENDBRANCH   2  15
ENDBRANCH   1   2
BRANCH   1  18
HETATM   18  C5  UNL     1       4.589   4.194  22.666  1.00  0.00     0.032 C
BRANCH  18  19
HETATM   19  C6  UNL     1       4.928   2.959  21.912  1.00  0.00     0.122 C
HETATM   20  C7  UNL     1       6.216   3.096  21.087  1.00  0.00     0.048 C
HETATM   21  C8  UNL     1       6.157   1.732  20.428  1.00  0.00     0.109 C
HETATM   22  C9  UNL     1       7.008   1.551  19.276  1.00  0.00     0.227 C
HETATM   23  C16 UNL     1       4.688   1.560  20.264  1.00  0.00     0.137 C
HETATM   24  O1  UNL     1       8.243   1.514  19.436  1.00  0.00    -0.273 OA
HETATM   25  N2  UNL     1       6.403   1.418  17.961  1.00  0.00    -0.332 N
HETATM   26  C13 UNL     1       5.164   2.138  17.875  1.00  0.00     0.191 C
HETATM   27  C15 UNL     1       4.199   1.506  18.854  1.00  0.00     0.069 C
HETATM   28  O4  UNL     1       4.037   2.590  20.944  1.00  0.00    -0.380 OA
BRANCH  25  29
HETATM   29  C10 UNL     1       7.031   0.623  16.947  1.00  0.00     0.088 A
HETATM   30  C11 UNL     1       6.448  -0.745  16.593  1.00  0.00     0.027 A
HETATM   31  C12 UNL     1       7.726  -0.704  17.330  1.00  0.00     0.027 A
ENDBRANCH  25  29
BRANCH  26  32
HETATM   32  C14 UNL     1       4.526   2.311  16.575  1.00  0.00     0.197 C
HETATM   33  O2  UNL     1       4.840   3.340  15.842  1.00  0.00    -0.646 OA
HETATM   34  O3  UNL     1       3.598   1.496  15.995  1.00  0.00    -0.646 OA
ENDBRANCH  26  32
ENDBRANCH  18  19
ENDBRANCH   1  18
TORSDOF 8
ENDMDL