MODEL 1
REMARK VINA RESULT: -7.766313224      0.000      0.000
REMARK  14 active torsions:
REMARK  status: ('A' for Active; 'I' for Inactive)
REMARK    1  A    between atoms: C2_2  and  C3_3
REMARK    2  A    between atoms: C2_2  and  N6_32
REMARK    3  A    between atoms: C3_3  and  C4_4
REMARK    4  A    between atoms: C4_4  and  N1_5
REMARK    5  A    between atoms: N2_8  and  C7_9
REMARK    6  A    between atoms: C7_9  and  O1_10
REMARK    7  A    between atoms: C7_9  and  C8_12
REMARK    8  A    between atoms: C8_12  and  C9_13
REMARK    9  A    between atoms: C9_13  and  N3_14
REMARK   10  A    between atoms: N3_14  and  C10_16
REMARK   11  A    between atoms: C10_16  and  O2_17
REMARK   12  A    between atoms: C10_16  and  N4_19
REMARK   13  A    between atoms: N4_19  and  C11_21
REMARK       I    between atoms: N5_24  and  C14_25
REMARK       I    between atoms: N6_32  and  C20_33
REMARK   14  A    between atoms: C20_33  and  C21_35
ROOT
HETATM    1  C7  UNL     1       5.339   5.007  21.844  1.00  0.00     0.115 C
ENDROOT
BRANCH   1   2
HETATM    2  N2  UNL     1       5.540   4.170  20.767  1.00  0.00    -0.356 N
HETATM    3  C6  UNL     1       4.629   3.930  19.705  1.00  0.00     0.169 C
HETATM    4  C5  UNL     1       4.741   2.502  19.125  1.00  0.00     0.083 C
HETATM    5  N1  UNL     1       5.785   1.728  19.588  1.00  0.00    -0.370 N
HETATM    6  C19 UNL     1       6.463   2.027  20.786  1.00  0.00     0.083 C
HETATM    7  C18 UNL     1       6.862   3.495  20.700  1.00  0.00     0.169 C
BRANCH   5   8
HETATM    8  C4  UNL     1       6.573   0.896  18.755  1.00  0.00     0.134 C
BRANCH   8   9
HETATM    9  C3  UNL     1       8.012   0.735  19.086  1.00  0.00     0.092 C
BRANCH   9  10
HETATM   10  C2  UNL     1       8.724  -0.164  18.123  1.00  0.00     0.080 C
HETATM   11  C1  UNL     1      10.070  -0.164  18.304  1.00  0.00     0.054 C
BRANCH  10  12
HETATM   12  N6  UNL     1       8.244  -0.981  17.152  1.00  0.00    -0.376 NA
HETATM   13  C20 UNL     1       7.759  -1.800  16.181  1.00  0.00     0.291 C
HETATM   14  O4  UNL     1       6.523  -1.987  15.939  1.00  0.00    -0.257 OA
BRANCH  13  15
HETATM   15  C21 UNL     1       8.682  -2.587  15.270  1.00  0.00     0.115 C
HETATM   16  C22 UNL     1       9.750  -3.200  16.189  1.00  0.00     0.016 C
ENDBRANCH  13  15
ENDBRANCH  10  12
ENDBRANCH   9  10
ENDBRANCH   8   9
ENDBRANCH   5   8
ENDBRANCH   1   2
BRANCH   1  17
HETATM   17  O1  UNL     1       4.845   4.514  22.959  1.00  0.00    -0.349 OA
ATOM     18  H1  UNL     1       4.892   5.029  23.756  1.00  0.00     0.219 HD
ENDBRANCH   1  17
BRANCH   1  19
HETATM   19  C8  UNL     1       5.608   6.467  22.013  1.00  0.00     0.103 C
BRANCH  19  20
HETATM   20  C9  UNL     1       6.093   7.035  20.720  1.00  0.00     0.131 C
BRANCH  20  21
HETATM   21  N3  UNL     1       7.544   6.950  20.659  1.00  0.00    -0.356 N
ATOM     22  H3  UNL     1       8.005   6.104  20.326  1.00  0.00     0.163 HD
BRANCH  21  23
HETATM   23  C10 UNL     1       8.294   8.070  21.072  1.00  0.00     0.212 C
BRANCH  23  24
HETATM   24  O2  UNL     1       9.179   8.510  20.215  1.00  0.00    -0.333 OA
ATOM     25  H2  UNL     1       9.818   9.124  20.559  1.00  0.00     0.220 HD
ENDBRANCH  23  24
BRANCH  23  26
HETATM   26  N4  UNL     1       8.209   8.757  22.269  1.00  0.00    -0.352 N
ATOM     27  H4  UNL     1       7.611   9.581  22.327  1.00  0.00     0.163 HD
BRANCH  26  28
HETATM   28  C11 UNL     1       8.958   8.333  23.458  1.00  0.00     0.088 C
HETATM   29  C12 UNL     1       7.969   8.409  24.595  1.00  0.00     0.045 C
HETATM   30  C13 UNL     1       8.566   8.254  25.944  1.00  0.00     0.127 C
HETATM   31  N5  UNL     1      10.028   8.399  25.884  1.00  0.00    -0.352 N
HETATM   32  C14 UNL     1      10.892   7.533  26.568  1.00  0.00     0.215 C
HETATM   33  C16 UNL     1      10.476   9.516  25.045  1.00  0.00     0.127 C
HETATM   34  C15 UNL     1      10.411   6.432  27.371  1.00  0.00     0.117 C
HETATM   35  O3  UNL     1      12.129   7.711  26.484  1.00  0.00    -0.274 OA
HETATM   36  C17 UNL     1      10.157   9.191  23.623  1.00  0.00     0.045 C
ENDBRANCH  26  28
ENDBRANCH  23  26
ENDBRANCH  21  23
ENDBRANCH  20  21
ENDBRANCH  19  20
ENDBRANCH   1  19
TORSDOF 14
ENDMDL