MODEL 3
REMARK VINA RESULT: -6.137779263      1.806      1.982
REMARK  2 active torsions:
REMARK  status: ('A' for Active; 'I' for Inactive)
REMARK    1  A    between atoms: C2_5  and  C3_6
REMARK    2  A    between atoms: C7_12  and  C8_13
ROOT
HETATM    1  S1  UNL     1      31.784  28.095  13.418  1.00  0.00    -0.041 SA
HETATM    2  C1  UNL     1      31.464  29.674  13.204  1.00  0.00     0.176 A
HETATM    3  N1  UNL     1      30.398  30.119  12.515  1.00  0.00    -0.330 N
ATOM      4  H1  UNL     1      29.697  29.540  12.054  1.00  0.00     0.168 HD
HETATM    5  C2  UNL     1      30.419  31.449  12.539  1.00  0.00     0.074 A
HETATM    6  C7  UNL     1      31.491  31.910  13.225  1.00  0.00     0.044 A
HETATM    7  N2  UNL     1      32.147  30.763  13.651  1.00  0.00    -0.334 N
ATOM      8  H2  UNL     1      33.002  30.740  14.208  1.00  0.00     0.168 HD
ENDROOT
BRANCH   5   9
HETATM    9  C3  UNL     1      29.369  32.332  12.006  1.00  0.00     0.035 A
HETATM   10  C4  UNL     1      29.320  33.376  11.162  1.00  0.00     0.040 A
HETATM   11  C5  UNL     1      28.078  33.812  10.756  1.00  0.00     0.018 A
HETATM   12 BR1  UNL     1      27.840  35.331   9.573  1.00  0.00    -0.051 Br
HETATM   13  C6  UNL     1      27.002  33.148  11.246  1.00  0.00     0.069 A
HETATM   14  S2  UNL     1      27.661  31.964  12.240  1.00  0.00    -0.098 SA
ENDBRANCH   5   9
BRANCH   6  15
HETATM   15  C8  UNL     1      32.106  33.186  13.246  1.00  0.00     0.038 A
HETATM   16  C9  UNL     1      33.060  33.500  14.412  1.00  0.00     0.011 A
HETATM   17  C10 UNL     1      31.919  34.455  13.865  1.00  0.00     0.011 A
ENDBRANCH   6  15
TORSDOF 2
ENDMDL