MODEL 1
REMARK VINA RESULT: -8.483867007      0.000      0.000
REMARK  4 active torsions:
REMARK  status: ('A' for Active; 'I' for Inactive)
REMARK    1  A    between atoms: O1_1  and  C1_3
REMARK    2  A    between atoms: C5_8  and  O2_9
REMARK    3  A    between atoms: C6_11  and  C7_12
REMARK    4  A    between atoms: N1_13  and  C8_15
ROOT
HETATM    1  C7  UNL     1      30.607  31.610  12.370  1.00  0.00     0.101 C
HETATM    2  N1  UNL     1      29.417  32.093  12.270  1.00  0.00    -0.389 N
ATOM      3  H1  UNL     1      28.630  31.458  12.401  1.00  0.00     0.159 HD
ENDROOT
BRANCH   1   4
HETATM    4  C6  UNL     1      30.869  30.213  12.658  1.00  0.00     0.047 A
HETATM    5  C1  UNL     1      30.155  29.230  11.969  1.00  0.00     0.080 A
HETATM    6  C2  UNL     1      30.358  27.890  12.197  1.00  0.00     0.039 A
HETATM    7  C3  UNL     1      31.271  27.466  13.110  1.00  0.00     0.029 A
HETATM    8  C4  UNL     1      31.984  28.399  13.799  1.00  0.00     0.068 A
HETATM    9 CL1  UNL     1      33.180  27.919  14.993  1.00  0.00    -0.081 Cl
HETATM   10  C5  UNL     1      31.788  29.765  13.577  1.00  0.00     0.101 A
BRANCH   5  11
HETATM   11  O1  UNL     1      29.208  29.589  11.024  1.00  0.00    -0.360 OA
ATOM     12  H1  UNL     1      28.687  30.366  11.191  1.00  0.00     0.217 HD
ENDBRANCH   5  11
BRANCH  10  13
HETATM   13  O2  UNL     1      32.546  30.655  14.311  1.00  0.00    -0.358 OA
ATOM     14  H2  UNL     1      32.891  31.421  13.865  1.00  0.00     0.217 HD
ENDBRANCH  10  13
ENDBRANCH   1   4
BRANCH   2  15
HETATM   15  C8  UNL     1      29.133  33.465  11.987  1.00  0.00     0.030 C
HETATM   16  C9  UNL     1      29.560  33.929  10.636  1.00  0.00     0.035 C
HETATM   17  C10 UNL     1      29.225  35.391  10.490  1.00  0.00    -0.012 C
HETATM   18  C11 UNL     1      27.742  35.619  10.546  1.00  0.00     0.009 C
HETATM   19  C15 UNL     1      29.875  36.248  11.535  1.00  0.00     0.009 C
HETATM   20  C12 UNL     1      27.242  35.102  11.877  1.00  0.00    -0.012 C
HETATM   21  C13 UNL     1      27.860  35.911  12.992  1.00  0.00     0.009 C
HETATM   22  C17 UNL     1      27.630  33.657  12.101  1.00  0.00     0.035 C
HETATM   23  C14 UNL     1      29.365  35.780  12.889  1.00  0.00    -0.012 C
HETATM   24  C16 UNL     1      29.767  34.345  13.044  1.00  0.00     0.035 C
ENDBRANCH   2  15
TORSDOF 4
ENDMDL