MODEL 5
REMARK VINA RESULT: -6.142664582      1.436      1.524
REMARK  3 active torsions:
REMARK  status: ('A' for Active; 'I' for Inactive)
REMARK    1  A    between atoms: C10_16  and  C11_17
REMARK    2  A    between atoms: C11_17  and  C12_18
REMARK    3  A    between atoms: C12_18  and  N3_19
ROOT
HETATM    1  C1  UNL     1      30.587  33.363  12.499  1.00  0.00     0.015 C
HETATM    2  C2  UNL     1      29.559  32.587  11.756  1.00  0.00     0.040 C
HETATM    3  C3  UNL     1      28.148  33.013  12.174  1.00  0.00     0.193 C
HETATM    4  F1  UNL     1      28.118  33.570  13.414  1.00  0.00    -0.247 F
HETATM    5  C4  UNL     1      27.321  31.718  12.119  1.00  0.00     0.163 C
HETATM    6  N1  UNL     1      28.248  30.767  11.580  1.00  0.00    -0.354 N
HETATM    7  C5  UNL     1      28.049  29.711  10.691  1.00  0.00     0.137 C
HETATM    8  N2  UNL     1      26.985  29.668   9.971  1.00  0.00    -0.380 N
ATOM      9  H21 UNL     1      26.839  28.897   9.321  1.00  0.00     0.158 HD
ATOM     10  H22 UNL     1      26.302  30.420  10.069  1.00  0.00     0.158 HD
HETATM   11  S1  UNL     1      29.247  28.393  10.519  1.00  0.00    -0.084 SA
HETATM   12  C6  UNL     1      30.531  28.849  11.750  1.00  0.00     0.018 C
HETATM   13  C7  UNL     1      31.859  28.274  11.330  1.00  0.00     0.021 C
HETATM   14  C8  UNL     1      32.250  27.197  12.282  1.00  0.00     0.002 C
HETATM   15  C9  UNL     1      31.118  26.216  12.526  1.00  0.00     0.005 C
HETATM   16  C10 UNL     1      30.007  26.884  13.261  1.00  0.00    -0.012 C
HETATM   17  C13 UNL     1      30.044  28.357  13.076  1.00  0.00     0.025 C
HETATM   18  C14 UNL     1      30.683  30.339  11.841  1.00  0.00     0.046 C
HETATM   19  C15 UNL     1      29.500  31.122  12.157  1.00  0.00     0.094 C
ENDROOT
BRANCH  16  20
HETATM   20  C11 UNL     1      28.643  26.281  13.020  1.00  0.00     0.032 C
BRANCH  20  21
HETATM   21  C12 UNL     1      27.615  26.775  14.001  1.00  0.00     0.230 C
BRANCH  21  22
HETATM   22  N3  UNL     1      26.642  27.669  13.459  1.00  0.00    -0.079 N
ATOM     23  H33 UNL     1      27.103  28.463  13.014  1.00  0.00     0.274 HD
ATOM     24  H32 UNL     1      26.191  27.248  12.648  1.00  0.00     0.274 HD
ATOM     25  H31 UNL     1      25.940  27.997  14.123  1.00  0.00     0.274 HD
ENDBRANCH  21  22
ENDBRANCH  20  21
ENDBRANCH  16  20
TORSDOF 3
ENDMDL