MODEL 3
REMARK VINA RESULT: -7.613465231      2.885      6.679
REMARK  2 active torsions:
REMARK  status: ('A' for Active; 'I' for Inactive)
REMARK    1  A    between atoms: C3_3  and  C4_4
REMARK    2  A    between atoms: C9_9  and  C10_10
ROOT
HETATM    1  C10 UNL     1      28.628  30.988  12.039  1.00  0.00     0.210 C
HETATM    2  C11 UNL     1      27.264  31.679  12.166  1.00  0.00     0.044 C
HETATM    3  C12 UNL     1      27.215  32.973  11.407  1.00  0.00     0.044 C
HETATM    4  C13 UNL     1      28.379  33.880  11.733  1.00  0.00     0.099 C
HETATM    5  C14 UNL     1      27.941  35.046  12.578  1.00  0.00     0.069 C
HETATM    6  C15 UNL     1      29.045  36.039  12.769  1.00  0.00     0.235 C
HETATM    7  N1  UNL     1      29.703  36.390  11.531  1.00  0.00    -0.075 N
ATOM      8  H11 UNL     1      30.383  37.141  11.645  1.00  0.00     0.277 HD
ATOM      9  H12 UNL     1      29.083  36.866  10.875  1.00  0.00     0.277 HD
HETATM   10  C16 UNL     1      30.282  35.195  10.980  1.00  0.00     0.235 C
HETATM   11  C17 UNL     1      29.135  34.329  10.501  1.00  0.00     0.069 C
HETATM   12  O1  UNL     1      29.291  33.082  12.445  1.00  0.00    -0.229 OA
HETATM   13  O2  UNL     1      29.507  32.016  11.684  1.00  0.00    -0.229 OA
ENDROOT
BRANCH   1  14
HETATM   14  C9  UNL     1      28.588  29.947  10.998  1.00  0.00     0.048 A
HETATM   15  C3  UNL     1      29.486  28.898  10.822  1.00  0.00    -0.027 A
HETATM   16  C2  UNL     1      29.060  28.185   9.696  1.00  0.00     0.026 A
HETATM   17  C1  UNL     1      27.941  28.797   9.220  1.00  0.00     0.089 A
HETATM   18  N2  UNL     1      27.671  29.866  10.027  1.00  0.00    -0.367 N
ATOM     19  H2  UNL     1      26.886  30.507   9.907  1.00  0.00     0.165 HD
BRANCH  15  20
HETATM   20  C4  UNL     1      30.619  28.502  11.634  1.00  0.00     0.021 C
HETATM   21  C5  UNL     1      30.755  26.986  11.546  1.00  0.00     0.009 C
HETATM   22  C6  UNL     1      32.224  26.685  11.704  1.00  0.00     0.001 C
HETATM   23  C7  UNL     1      32.850  28.005  12.066  1.00  0.00     0.001 C
HETATM   24  C8  UNL     1      31.963  28.972  11.257  1.00  0.00     0.009 C
ENDBRANCH  15  20
ENDBRANCH   1  14
TORSDOF 2
ENDMDL