MODEL 5
REMARK VINA RESULT: -8.536688749      2.938      3.664
REMARK  4 active torsions:
REMARK  status: ('A' for Active; 'I' for Inactive)
REMARK    1  A    between atoms: O1_1  and  N1_3
REMARK    2  A    between atoms: C1_5  and  O2_6
REMARK    3  A    between atoms: C1_5  and  C2_8
REMARK    4  A    between atoms: N2_10  and  C4_11
ROOT
HETATM    1  C2  UNL     1      27.723  29.871  11.176  1.00  0.00     0.055 A
HETATM    2  C3  UNL     1      27.371  31.230  11.093  1.00  0.00     0.109 A
HETATM    3  N2  UNL     1      28.360  32.012  11.549  1.00  0.00    -0.354 N
HETATM    4  C15 UNL     1      29.331  31.195  11.922  1.00  0.00     0.116 A
HETATM    5  C16 UNL     1      28.990  29.863  11.714  1.00  0.00     0.065 A
HETATM    6 CL1  UNL     1      30.022  28.487  12.086  1.00  0.00    -0.082 Cl
ENDROOT
BRANCH   3   7
HETATM    7  C4  UNL     1      28.353  33.475  11.615  1.00  0.00     0.037 C
HETATM    8  C5  UNL     1      26.923  33.906  11.523  1.00  0.00     0.032 C
HETATM    9  C6  UNL     1      26.612  35.198  12.188  1.00  0.00     0.007 C
HETATM   10  C7  UNL     1      27.539  36.320  11.852  1.00  0.00    -0.014 C
HETATM   11  C8  UNL     1      28.563  36.405  12.962  1.00  0.00     0.009 C
HETATM   12  C12 UNL     1      28.131  36.251  10.491  1.00  0.00     0.009 C
HETATM   13  C9  UNL     1      29.585  35.335  12.780  1.00  0.00    -0.012 C
HETATM   14  C10 UNL     1      30.338  35.622  11.499  1.00  0.00     0.009 C
HETATM   15  C14 UNL     1      29.067  33.946  12.834  1.00  0.00     0.036 C
HETATM   16  C11 UNL     1      29.354  35.413  10.368  1.00  0.00    -0.012 C
HETATM   17  C13 UNL     1      29.038  33.935  10.325  1.00  0.00     0.036 C
ENDBRANCH   3   7
BRANCH   1  18
HETATM   18  C1  UNL     1      26.880  28.773  10.768  1.00  0.00     0.173 C
HETATM   19  N1  UNL     1      26.438  27.837  11.420  1.00  0.00    -0.247 N
ATOM     20  H1  UNL     1      25.881  27.256  10.793  1.00  0.00     0.196 HD
BRANCH  19  21
HETATM   21  O1  UNL     1      26.403  27.295  12.601  1.00  0.00    -0.288 OA
ATOM     22  H1  UNL     1      25.925  26.695  13.162  1.00  0.00     0.244 HD
ENDBRANCH  19  21
BRANCH  18  23
HETATM   23  O2  UNL     1      26.501  28.769   9.389  1.00  0.00    -0.344 OA
ATOM     24  H2  UNL     1      25.985  29.519   9.119  1.00  0.00     0.219 HD
ENDBRANCH  18  23
ENDBRANCH   1  18
TORSDOF 4
ENDMDL