MODEL 4
REMARK VINA RESULT: -6.172022730      1.343      1.457
REMARK  3 active torsions:
REMARK  status: ('A' for Active; 'I' for Inactive)
REMARK    1  A    between atoms: O1_2  and  C2_3
REMARK    2  A    between atoms: C3_4  and  O2_5
REMARK    3  A    between atoms: C7_12  and  C8_13
ROOT
HETATM    1  C2  UNL     1      29.604  31.188  11.895  1.00  0.00     0.111 A
HETATM    2  C3  UNL     1      29.895  29.861  12.089  1.00  0.00     0.117 A
HETATM    3  C4  UNL     1      31.000  29.523  12.820  1.00  0.00     0.048 A
HETATM    4 BR1  UNL     1      31.424  27.667  13.119  1.00  0.00    -0.048 Br
HETATM    5  C5  UNL     1      31.786  30.518  13.338  1.00  0.00     0.049 A
HETATM    6  C6  UNL     1      31.465  31.878  13.123  1.00  0.00     0.057 A
HETATM    7  N1  UNL     1      32.311  32.867  13.656  1.00  0.00    -0.102 NA
HETATM    8  C7  UNL     1      30.367  32.230  12.397  1.00  0.00     0.006 A
ENDROOT
BRANCH   8   9
HETATM    9  C8  UNL     1      29.974  33.588  12.099  1.00  0.00     0.023 C
HETATM   10  C9  UNL     1      29.675  34.511  13.232  1.00  0.00     0.009 C
HETATM   11  C10 UNL     1      28.852  35.657  12.594  1.00  0.00     0.001 C
HETATM   12  C11 UNL     1      29.668  36.392  11.576  1.00  0.00     0.000 C
HETATM   13  C12 UNL     1      30.363  35.469  10.605  1.00  0.00     0.001 C
HETATM   14  C13 UNL     1      31.066  34.323  11.282  1.00  0.00     0.009 C
ENDBRANCH   8   9
BRANCH   1  15
HETATM   15  O1  UNL     1      28.464  31.531  11.142  1.00  0.00    -0.352 OA
HETATM   16  C1  UNL     1      27.257  31.583  11.920  1.00  0.00     0.210 C
ENDBRANCH   1  15
BRANCH   2  17
HETATM   17  O2  UNL     1      29.052  28.876  11.532  1.00  0.00    -0.357 OA
ATOM     18  H2  UNL     1      28.386  28.469  12.074  1.00  0.00     0.218 HD
ENDBRANCH   2  17
TORSDOF 3
ENDMDL