MODEL 2
REMARK VINA RESULT: -7.983496551     10.433     11.658
REMARK  4 active torsions:
REMARK  status: ('A' for Active; 'I' for Inactive)
REMARK    1  A    between atoms: C5_6  and  N1_7
REMARK    2  A    between atoms: C6_8  and  O1_9
REMARK    3  A    between atoms: C8_12  and  C9_13
REMARK    4  A    between atoms: C14_18  and  O2_19
ROOT
HETATM    1  C1  UNL     1      33.412  34.422  16.136  1.00  0.00     0.100 C
HETATM    2  C2  UNL     1      34.386  34.377  16.880  1.00  0.00    -0.144 C
HETATM    3  C3  UNL     1      35.549  34.326  17.757  1.00  0.00     0.160 C
HETATM    4  F1  UNL     1      35.601  33.022  18.265  1.00  0.00    -0.229 F
HETATM    5  C4  UNL     1      35.307  35.214  18.948  1.00  0.00     0.082 C
HETATM    6  C5  UNL     1      36.027  36.507  18.865  1.00  0.00     0.098 C
HETATM    7  C15 UNL     1      37.508  36.199  18.729  1.00  0.00     0.031 C
HETATM    8  C16 UNL     1      37.774  35.520  17.431  1.00  0.00    -0.004 A
HETATM    9  C17 UNL     1      37.030  35.816  16.188  1.00  0.00     0.014 A
HETATM   10  C18 UNL     1      36.764  34.566  16.978  1.00  0.00     0.042 A
ENDROOT
BRANCH   6  11
HETATM   11  N1  UNL     1      35.785  37.326  20.026  1.00  0.00    -0.303 N
HETATM   12  C6  UNL     1      35.100  38.507  19.974  1.00  0.00     0.145 A
HETATM   13  C7  UNL     1      35.125  39.099  21.236  1.00  0.00     0.068 A
HETATM   14  C8  UNL     1      35.821  38.280  22.074  1.00  0.00     0.001 A
HETATM   15  C14 UNL     1      36.215  37.197  21.305  1.00  0.00     0.151 A
BRANCH  12  16
HETATM   16  O1  UNL     1      34.453  39.083  18.887  1.00  0.00    -0.346 OA
ATOM     17  H1  UNL     1      34.348  38.734  18.009  1.00  0.00     0.219 HD
ENDBRANCH  12  16
BRANCH  14  18
HETATM   18  C9  UNL     1      36.024  38.367  23.527  1.00  0.00     0.023 C
HETATM   19  C10 UNL     1      35.427  39.670  24.125  1.00  0.00     0.009 C
HETATM   20  C11 UNL     1      35.591  39.272  25.611  1.00  0.00     0.001 C
HETATM   21  C12 UNL     1      34.750  37.982  25.578  1.00  0.00     0.001 C
HETATM   22  C13 UNL     1      34.933  37.431  24.186  1.00  0.00     0.009 C
ENDBRANCH  14  18
BRANCH  15  23
HETATM   23  O2  UNL     1      36.945  36.141  21.778  1.00  0.00    -0.345 OA
ATOM     24  H2  UNL     1      37.882  36.037  21.660  1.00  0.00     0.219 HD
ENDBRANCH  15  23
ENDBRANCH   6  11
TORSDOF 4
ENDMDL