MODEL 5
REMARK VINA RESULT: -7.207841720      4.634      5.360
REMARK  2 active torsions:
REMARK  status: ('A' for Active; 'I' for Inactive)
REMARK    1  A    between atoms: C5_7  and  C6_8
REMARK    2  A    between atoms: N1_11  and  C9_13
ROOT
HETATM    1  C6  UNL     1      30.407  32.627  11.633  1.00  0.00     0.147 C
HETATM    2  C7  UNL     1      29.599  31.428  11.984  1.00  0.00     0.105 C
HETATM    3  C8  UNL     1      30.662  30.501  12.544  1.00  0.00     0.090 C
HETATM    4  N1  UNL     1      30.522  29.282  12.843  1.00  0.00    -0.374 N
ATOM      5  H1  UNL     1      29.597  28.879  12.690  1.00  0.00     0.161 HD
HETATM    6  N2  UNL     1      31.816  31.307  12.649  1.00  0.00    -0.292 N
ATOM      7  H2  UNL     1      32.781  30.977  12.666  1.00  0.00     0.183 HD
HETATM    8  N3  UNL     1      31.390  32.665  12.728  1.00  0.00    -0.129 NA
ENDROOT
BRANCH   4   9
HETATM    9  C9  UNL     1      31.511  28.414  13.366  1.00  0.00     0.082 C
HETATM   10  C10 UNL     1      32.176  29.047  14.578  1.00  0.00     0.025 C
HETATM   11  C11 UNL     1      33.022  27.991  15.273  1.00  0.00     0.002 C
HETATM   12  C12 UNL     1      34.015  27.437  14.313  1.00  0.00     0.000 C
HETATM   13  C13 UNL     1      33.923  28.005  12.937  1.00  0.00     0.002 C
HETATM   14  C14 UNL     1      32.537  27.958  12.361  1.00  0.00     0.025 C
ENDBRANCH   4   9
BRANCH   1  15
HETATM   15  C5  UNL     1      29.540  33.852  11.676  1.00  0.00     0.011 A
HETATM   16  C2  UNL     1      29.859  35.119  11.266  1.00  0.00    -0.045 A
HETATM   17  C1  UNL     1      31.243  35.382  10.690  1.00  0.00     0.049 C
HETATM   18  C3  UNL     1      28.920  36.064  11.400  1.00  0.00     0.039 A
HETATM   19  C4  UNL     1      27.720  35.690  11.935  1.00  0.00     0.075 A
HETATM   20 CL1  UNL     1      26.303  36.717  12.229  1.00  0.00    -0.076 Cl
HETATM   21  S1  UNL     1      27.935  34.028  12.235  1.00  0.00    -0.080 SA
ENDBRANCH   1  15
TORSDOF 2
ENDMDL