MODEL 2
REMARK VINA RESULT: -6.954526151     11.893     14.380
REMARK  4 active torsions:
REMARK  status: ('A' for Active; 'I' for Inactive)
REMARK    1  A    between atoms: O1_1  and  C1_3
REMARK    2  A    between atoms: C3_5  and  O2_6
REMARK    3  A    between atoms: C10_14  and  C11_15
REMARK    4  A    between atoms: C11_15  and  N1_16
ROOT
HETATM    1  C1  UNL     1      36.106  27.729  14.290  1.00  0.00     0.068 A
HETATM    2  C2  UNL     1      35.495  28.305  15.397  1.00  0.00     0.073 A
HETATM    3  C3  UNL     1      34.194  28.736  15.368  1.00  0.00     0.075 A
HETATM    4  C4  UNL     1      33.470  28.588  14.187  1.00  0.00    -0.018 A
HETATM    5  C5  UNL     1      34.028  28.027  13.076  1.00  0.00    -0.046 A
HETATM    6  C6  UNL     1      35.361  27.601  13.154  1.00  0.00     0.044 A
HETATM    7  C7  UNL     1      33.608  27.709  11.666  1.00  0.00     0.039 C
HETATM    8  C8  UNL     1      32.361  26.867  11.603  1.00  0.00     0.005 C
HETATM    9  C9  UNL     1      31.878  26.345  12.906  1.00  0.00     0.006 C
HETATM   10  C10 UNL     1      30.850  27.209  13.582  1.00  0.00     0.014 C
HETATM   11  C16 UNL     1      31.133  28.664  13.530  1.00  0.00     0.011 C
HETATM   12  C17 UNL     1      32.141  29.152  14.506  1.00  0.00     0.042 C
ENDROOT
BRANCH  10  13
HETATM   13  C11 UNL     1      30.553  26.662  14.938  1.00  0.00     0.279 C
BRANCH  13  14
HETATM   14  N1  UNL     1      29.459  25.700  14.933  1.00  0.00     0.107 N
HETATM   15  C12 UNL     1      29.686  24.674  15.956  1.00  0.00     0.274 C
HETATM   16  C13 UNL     1      28.457  24.685  16.845  1.00  0.00     0.033 C
HETATM   17  C14 UNL     1      27.412  25.167  15.829  1.00  0.00     0.053 C
HETATM   18  C15 UNL     1      28.195  26.311  15.204  1.00  0.00     0.318 C
HETATM   19 CL1  UNL     1      27.314  26.853  13.785  1.00  0.00    -0.092 Cl
ENDBRANCH  13  14
ENDBRANCH  10  13
BRANCH   3  20
HETATM   20  O2  UNL     1      33.592  29.314  16.489  1.00  0.00    -0.360 OA
ATOM     21  H2  UNL     1      33.603  28.882  17.335  1.00  0.00     0.217 HD
ENDBRANCH   3  20
BRANCH   1  22
HETATM   22  O1  UNL     1      37.437  27.309  14.385  1.00  0.00    -0.361 OA
ATOM     23  H1  UNL     1      38.112  27.947  14.583  1.00  0.00     0.217 HD
ENDBRANCH   1  22
TORSDOF 4
ENDMDL