MODEL 1
REMARK VINA RESULT: -7.047624723      0.000      0.000
REMARK  3 active torsions:
REMARK  status: ('A' for Active; 'I' for Inactive)
REMARK    1  A    between atoms: C2_2  and  C3_3
REMARK    2  A    between atoms: C11_12  and  C12_13
REMARK    3  A    between atoms: C14_17  and  N2_18
ROOT
HETATM    1  C3  UNL     1      30.229  32.246  12.273  1.00  0.00    -0.012 A
HETATM    2  C4  UNL     1      28.935  32.659  11.945  1.00  0.00     0.129 A
HETATM    3  F1  UNL     1      28.669  33.961  12.053  1.00  0.00    -0.205 F
HETATM    4  C5  UNL     1      27.958  31.792  11.528  1.00  0.00    -0.022 A
HETATM    5  C6  UNL     1      26.591  32.256  11.185  1.00  0.00     0.051 C
HETATM    6  C7  UNL     1      28.280  30.438  11.430  1.00  0.00     0.018 A
HETATM    7  C8  UNL     1      29.541  30.003  11.744  1.00  0.00    -0.041 A
HETATM    8  C9  UNL     1      30.513  30.911  12.165  1.00  0.00    -0.040 A
HETATM    9  C10 UNL     1      31.831  30.293  12.462  1.00  0.00     0.060 C
HETATM   10  C11 UNL     1      31.657  29.420  13.697  1.00  0.00     0.093 C
HETATM   11  S2  UNL     1      30.758  27.944  13.055  1.00  0.00    -0.154 SA
HETATM   12  C15 UNL     1      29.810  28.550  11.633  1.00  0.00     0.113 C
ENDROOT
BRANCH  10  13
HETATM   13  C12 UNL     1      32.997  28.896  14.149  1.00  0.00     0.015 A
HETATM   14  C13 UNL     1      33.623  29.090  15.347  1.00  0.00     0.106 A
HETATM   15  N1  UNL     1      34.802  28.529  15.519  1.00  0.00    -0.346 N
HETATM   16  C14 UNL     1      35.307  27.811  14.516  1.00  0.00     0.142 A
ATOM     17  H1  UNL     1      35.314  28.641  16.394  1.00  0.00     0.167 HD
HETATM   18  S1  UNL     1      34.110  27.923  13.310  1.00  0.00    -0.057 SA
BRANCH  16  19
HETATM   19  N2  UNL     1      36.464  27.177  14.497  1.00  0.00    -0.380 N
ATOM     20  H22 UNL     1      37.290  27.313  15.080  1.00  0.00     0.158 HD
ATOM     21  H21 UNL     1      36.739  26.419  13.872  1.00  0.00     0.158 HD
ENDBRANCH  16  19
ENDBRANCH  10  13
BRANCH   1  22
HETATM   22  C2  UNL     1      31.215  33.208  12.716  1.00  0.00     0.038 C
HETATM   23  C1  UNL     1      31.900  33.961  11.599  1.00  0.00     0.010 C
ENDBRANCH   1  22
TORSDOF 3
ENDMDL