MODEL 5
REMARK VINA RESULT: -3.839581695      1.086      1.135
REMARK  4 active torsions:
REMARK  status: ('A' for Active; 'I' for Inactive)
REMARK    1  A    between atoms: N1_1  and  N2_4
REMARK    2  A    between atoms: C1_6  and  N3_7
REMARK    3  A    between atoms: N3_7  and  C2_9
REMARK    4  A    between atoms: C2_9  and  C3_10
ROOT
HETATM    1  C2  UNL     1     -12.577  -6.233  51.213  1.00  0.00     0.130 C
ENDROOT
BRANCH   1   2
HETATM    2  N3  UNL     1     -12.093  -6.081  49.855  1.00  0.00    -0.384 N
ATOM      3  H3  UNL     1     -12.562  -5.435  49.221  1.00  0.00     0.160 HD
BRANCH   2   4
HETATM    4  C1  UNL     1     -10.989  -6.815  49.406  1.00  0.00     0.192 C
HETATM    5  N2  UNL     1     -10.703  -6.928  48.164  1.00  0.00    -0.303 N
ATOM      6  H2  UNL     1     -11.288  -6.473  47.463  1.00  0.00     0.187 HD
BRANCH   5   7
HETATM    7  N1  UNL     1      -9.593  -7.673  47.767  1.00  0.00    -0.344 N
ATOM      8  H12 UNL     1      -8.797  -7.749  48.400  1.00  0.00     0.176 HD
ATOM      9  H11 UNL     1      -9.584  -8.132  46.856  1.00  0.00     0.176 HD
ENDBRANCH   5   7
ENDBRANCH   2   4
ENDBRANCH   1   2
BRANCH   1  10
HETATM   10  C3  UNL     1     -13.761  -5.361  51.541  1.00  0.00     0.045 C
HETATM   11  C4  UNL     1     -13.473  -4.650  52.810  1.00  0.00     0.086 C
HETATM   12  N4  UNL     1     -13.852  -5.143  53.916  1.00  0.00    -0.320 N
HETATM   13  N5  UNL     1     -14.552  -6.356  54.022  1.00  0.00    -0.337 N
ATOM     14  H4  UNL     1     -13.636  -4.633  54.773  1.00  0.00     0.185 HD
HETATM   15  C5  UNL     1     -15.206  -6.952  52.874  1.00  0.00     0.140 C
ATOM     16  H5  UNL     1     -14.602  -6.828  54.925  1.00  0.00     0.180 HD
HETATM   17  C6  UNL     1     -15.068  -6.052  51.688  1.00  0.00     0.032 C
ENDBRANCH   1  10
TORSDOF 4
ENDMDL