MODEL 4
REMARK VINA RESULT: -4.180932683      2.334      5.465
REMARK  5 active torsions:
REMARK  status: ('A' for Active; 'I' for Inactive)
REMARK    1  A    between atoms: N4_10  and  C3_11
REMARK    2  A    between atoms: C3_11  and  C4_12
REMARK    3  A    between atoms: C4_12  and  C5_13
REMARK    4  A    between atoms: C5_13  and  N5_14
REMARK    5  A    between atoms: C5_13  and  N6_18
ROOT
HETATM    1  C3  UNL     1     -13.422  -5.522  51.920  1.00  0.00     0.172 C
ENDROOT
BRANCH   1   2
HETATM    2  N4  UNL     1     -12.495  -5.993  50.905  1.00  0.00    -0.123 N
HETATM    3  C1  UNL     1     -11.673  -7.082  50.992  1.00  0.00     0.693 A
HETATM    4  N1  UNL     1     -11.575  -7.885  51.988  1.00  0.00    -0.233 N
HETATM    5  N2  UNL     1     -10.964  -7.197  49.857  1.00  0.00    -0.185 N
ATOM      6  H12 UNL     1     -10.962  -8.697  52.053  1.00  0.00     0.174 HD
ATOM      7  H11 UNL     1     -12.113  -7.797  52.850  1.00  0.00     0.174 HD
HETATM    8  C2  UNL     1     -11.334  -6.178  49.043  1.00  0.00     0.215 A
ATOM      9  H2  UNL     1     -10.274  -7.918  49.646  1.00  0.00     0.185 HD
HETATM   10  N3  UNL     1     -12.250  -5.485  49.710  1.00  0.00    -0.279 N
ATOM     11  H3  UNL     1     -12.713  -4.654  49.341  1.00  0.00     0.188 HD
ENDBRANCH   1   2
BRANCH   1  12
HETATM   12  C4  UNL     1     -14.849  -5.645  51.390  1.00  0.00     0.084 C
BRANCH  12  13
HETATM   13  C5  UNL     1     -15.727  -6.399  52.336  1.00  0.00     0.379 C
BRANCH  13  14
HETATM   14  N5  UNL     1     -16.832  -7.059  51.687  1.00  0.00    -0.050 N
ATOM     15  H53 UNL     1     -16.961  -8.000  52.060  1.00  0.00     0.276 HD
ATOM     16  H52 UNL     1     -17.718  -6.643  51.970  1.00  0.00     0.276 HD
ATOM     17  H51 UNL     1     -16.749  -7.081  50.671  1.00  0.00     0.276 HD
ENDBRANCH  13  14
BRANCH  13  18
HETATM   18  N6  UNL     1     -14.967  -7.449  53.030  1.00  0.00    -0.050 N
ATOM     19  H63 UNL     1     -14.435  -8.023  52.377  1.00  0.00     0.276 HD
ATOM     20  H62 UNL     1     -14.189  -7.063  53.564  1.00  0.00     0.276 HD
ATOM     21  H61 UNL     1     -15.583  -8.014  53.614  1.00  0.00     0.276 HD
ENDBRANCH  13  18
ENDBRANCH  12  13
ENDBRANCH   1  12
TORSDOF 5
ENDMDL