MODEL 2
REMARK VINA RESULT: -4.557296875      1.599      2.159
REMARK  4 active torsions:
REMARK  status: ('A' for Active; 'I' for Inactive)
REMARK    1  A    between atoms: C2_2  and  N1_3
REMARK    2  A    between atoms: C2_2  and  C3_7
REMARK    3  A    between atoms: C3_7  and  N2_9
REMARK    4  A    between atoms: N2_9  and  C5_11
ROOT
HETATM    1  N2  UNL     1     -12.076  -5.568  50.412  1.00  0.00    -0.382 N
ATOM      2  H2  UNL     1     -11.485  -4.960  50.978  1.00  0.00     0.157 HD
ENDROOT
BRANCH   1   3
HETATM    3  C3  UNL     1     -13.476  -5.620  50.610  1.00  0.00     0.105 C
HETATM    4  C4  UNL     1     -14.191  -4.309  50.424  1.00  0.00     0.034 C
BRANCH   3   5
HETATM    5  C2  UNL     1     -13.683  -6.045  52.058  1.00  0.00     0.201 C
HETATM    6  C1  UNL     1     -13.568  -4.880  52.993  1.00  0.00     0.042 C
BRANCH   5   7
HETATM    7  N1  UNL     1     -12.793  -7.124  52.421  1.00  0.00    -0.073 N
ATOM      8  H13 UNL     1     -12.529  -7.069  53.405  1.00  0.00     0.274 HD
ATOM      9  H12 UNL     1     -13.283  -8.018  52.435  1.00  0.00     0.274 HD
ATOM     10  H11 UNL     1     -11.971  -7.162  51.819  1.00  0.00     0.274 HD
ENDBRANCH   5   7
ENDBRANCH   3   5
ENDBRANCH   1   3
BRANCH   1  11
HETATM   11  C5  UNL     1     -11.529  -6.386  49.405  1.00  0.00     0.297 C
HETATM   12  N3  UNL     1     -10.467  -5.845  48.635  1.00  0.00    -0.350 N
HETATM   13  C6  UNL     1      -9.721  -6.839  48.254  1.00  0.00     0.192 C
ATOM     14  H3  UNL     1     -10.317  -4.860  48.418  1.00  0.00     0.163 HD
HETATM   15  N4  UNL     1     -10.263  -8.053  48.759  1.00  0.00    -0.297 N
HETATM   16  N5  UNL     1     -11.014  -7.654  49.867  1.00  0.00    -0.094 NA
ATOM     17  H4  UNL     1     -10.134  -8.997  48.395  1.00  0.00     0.183 HD
ENDBRANCH   1  11
TORSDOF 4
ENDMDL