MODEL 1
REMARK VINA RESULT: -4.981200167      0.000      0.000
REMARK  4 active torsions:
REMARK  status: ('A' for Active; 'I' for Inactive)
REMARK    1  A    between atoms: N1_1  and  C1_5
REMARK    2  A    between atoms: C1_5  and  C2_6
REMARK    3  A    between atoms: C2_6  and  C3_7
REMARK    4  A    between atoms: C3_7  and  C4_8
ROOT
HETATM    1  C4  UNL     1     -11.797  -6.761  49.663  1.00  0.00     0.149 A
HETATM    2  N2  UNL     1     -12.484  -5.622  50.211  1.00  0.00    -0.353 N
ATOM      3  H2  UNL     1     -12.783  -4.799  49.688  1.00  0.00     0.163 HD
HETATM    4  C5  UNL     1     -12.659  -5.812  51.469  1.00  0.00     0.190 A
HETATM    5  N3  UNL     1     -13.314  -4.867  52.312  1.00  0.00    -0.063 NA
HETATM    6  N4  UNL     1     -12.110  -7.068  51.831  1.00  0.00    -0.321 N
ATOM      7  H4  UNL     1     -12.119  -7.456  52.774  1.00  0.00     0.169 HD
HETATM    8  C6  UNL     1     -11.593  -7.657  50.797  1.00  0.00     0.118 A
HETATM    9  N5  UNL     1     -10.960  -8.942  50.845  1.00  0.00    -0.085 NA
ENDROOT
BRANCH   1  10
HETATM   10  C3  UNL     1     -10.508  -6.265  49.047  1.00  0.00     0.034 C
BRANCH  10  11
HETATM   11  C2  UNL     1     -10.231  -7.185  47.855  1.00  0.00     0.029 C
BRANCH  11  12
HETATM   12  C1  UNL     1      -8.832  -7.746  47.927  1.00  0.00     0.230 C
BRANCH  12  13
HETATM   13  N1  UNL     1      -8.910  -9.126  48.407  1.00  0.00    -0.079 N
ATOM     14  H13 UNL     1      -9.678  -9.646  47.983  1.00  0.00     0.274 HD
ATOM     15  H12 UNL     1      -8.144  -9.704  48.063  1.00  0.00     0.274 HD
ATOM     16  H11 UNL     1      -8.962  -9.111  49.425  1.00  0.00     0.274 HD
ENDBRANCH  12  13
ENDBRANCH  11  12
ENDBRANCH  10  11
ENDBRANCH   1  10
TORSDOF 4
ENDMDL