MODEL 2
REMARK VINA RESULT: -4.221708361      1.789      4.595
REMARK  4 active torsions:
REMARK  status: ('A' for Active; 'I' for Inactive)
REMARK    1  A    between atoms: N1_2  and  C2_4
REMARK    2  A    between atoms: C2_4  and  C3_5
REMARK    3  A    between atoms: C3_5  and  N2_6
REMARK    4  A    between atoms: N3_8  and  C4_10
ROOT
HETATM    1  N2  UNL     1     -11.508  -7.348  50.998  1.00  0.00    -0.332 N
ATOM      2  H2  UNL     1     -10.721  -7.977  50.837  1.00  0.00     0.180 HD
HETATM    3  N3  UNL     1     -12.144  -7.429  52.077  1.00  0.00    -0.275 N
ATOM      4  H3  UNL     1     -11.838  -8.130  52.752  1.00  0.00     0.189 HD
ENDROOT
BRANCH   3   5
HETATM    5  C4  UNL     1     -13.265  -6.612  52.430  1.00  0.00     0.207 C
HETATM    6  N4  UNL     1     -13.272  -5.337  52.655  1.00  0.00    -0.273 N
HETATM    7  N5  UNL     1     -14.569  -4.923  52.971  1.00  0.00    -0.119 NA
ATOM      8  H4  UNL     1     -12.455  -4.728  52.609  1.00  0.00     0.185 HD
HETATM    9  C5  UNL     1     -15.345  -6.122  53.283  1.00  0.00     0.259 C
HETATM   10  N6  UNL     1     -14.587  -7.139  52.584  1.00  0.00    -0.345 N
ATOM     11  H6  UNL     1     -14.926  -8.046  52.265  1.00  0.00     0.164 HD
ENDBRANCH   3   5
BRANCH   1  12
HETATM   12  C3  UNL     1     -11.859  -6.395  49.981  1.00  0.00     0.158 C
BRANCH  12  13
HETATM   13  C2  UNL     1     -10.737  -6.156  49.000  1.00  0.00     0.134 C
BRANCH  13  14
HETATM   14  N1  UNL     1     -10.644  -7.141  47.979  1.00  0.00    -0.424 N
HETATM   15  C1  UNL     1      -9.390  -7.808  47.860  1.00  0.00     0.139 C
ATOM     16  H1  UNL     1     -11.431  -7.359  47.366  1.00  0.00     0.152 HD
ENDBRANCH  13  14
ENDBRANCH  12  13
ENDBRANCH   1  12
TORSDOF 4
ENDMDL