MODEL 1
REMARK VINA RESULT: -4.433400289      0.000      0.000
REMARK  4 active torsions:
REMARK  status: ('A' for Active; 'I' for Inactive)
REMARK    1  A    between atoms: C2_3  and  N3_7
REMARK    2  A    between atoms: N3_7  and  N4_9
REMARK    3  A    between atoms: N4_9  and  C3_11
REMARK    4  A    between atoms: C5_13  and  N5_14
ROOT
HETATM    1  N1  UNL     1     -11.322  -7.633  52.030  1.00  0.00    -0.188 NA
HETATM    2  C1  UNL     1     -11.613  -7.013  51.097  1.00  0.00     0.137 C
HETATM    3  C2  UNL     1     -11.990  -6.241  49.943  1.00  0.00     0.196 C
HETATM    4  N2  UNL     1     -12.861  -5.325  50.093  1.00  0.00    -0.376 N
ATOM      5  H21 UNL     1     -13.128  -4.777  49.275  1.00  0.00     0.158 HD
ATOM      6  H22 UNL     1     -13.303  -5.110  50.987  1.00  0.00     0.158 HD
ENDROOT
BRANCH   3   7
HETATM    7  N3  UNL     1     -11.368  -6.544  48.686  1.00  0.00    -0.281 N
ATOM      8  H3  UNL     1     -11.920  -6.665  47.837  1.00  0.00     0.189 HD
BRANCH   7   9
HETATM    9  N4  UNL     1      -9.997  -6.664  48.668  1.00  0.00    -0.328 N
ATOM     10  H4  UNL     1      -9.377  -5.895  48.921  1.00  0.00     0.180 HD
BRANCH   9  11
HETATM   11  C3  UNL     1      -9.504  -7.945  48.271  1.00  0.00     0.132 A
HETATM   12  C4  UNL     1      -9.120  -8.273  46.892  1.00  0.00     0.063 A
HETATM   13  C5  UNL     1      -8.040  -7.931  47.822  1.00  0.00     0.209 A
BRANCH  13  14
HETATM   14  N5  UNL     1      -7.230  -8.914  48.483  1.00  0.00    -0.073 N
ATOM     15  H53 UNL     1      -6.810  -9.550  47.805  1.00  0.00     0.274 HD
ATOM     16  H52 UNL     1      -6.385  -8.489  48.863  1.00  0.00     0.274 HD
ATOM     17  H51 UNL     1      -7.730  -9.433  49.205  1.00  0.00     0.274 HD
ENDBRANCH  13  14
ENDBRANCH   9  11
ENDBRANCH   7   9
ENDBRANCH   3   7
TORSDOF 4
ENDMDL