MODEL 5
REMARK VINA RESULT: -4.067072076      4.471      7.208
REMARK  2 active torsions:
REMARK  status: ('A' for Active; 'I' for Inactive)
REMARK       I    between atoms: N1_1  and  C1_5
REMARK       I    between atoms: C1_5  and  N2_6
REMARK       I    between atoms: C1_5  and  N3_10
REMARK    1  A    between atoms: N3_10  and  N4_12
REMARK    2  A    between atoms: C2_14  and  C3_15
ROOT
HETATM    1  N1  UNL     1      -6.500  -3.165  51.814  1.00  0.00    -0.032 N
ATOM      2  H11 UNL     1      -6.009  -3.805  51.190  1.00  0.00     0.279 HD
ATOM      3  H12 UNL     1      -7.038  -3.682  52.509  1.00  0.00     0.279 HD
ATOM      4  H13 UNL     1      -5.843  -2.686  52.429  1.00  0.00     0.279 HD
HETATM    5  C1  UNL     1      -7.329  -2.225  51.131  1.00  0.00     0.494 C
HETATM    6  N2  UNL     1      -8.029  -1.314  52.020  1.00  0.00    -0.032 N
ATOM      7  H21 UNL     1      -8.621  -0.642  51.532  1.00  0.00     0.279 HD
ATOM      8  H22 UNL     1      -7.371  -0.834  52.635  1.00  0.00     0.279 HD
ATOM      9  H23 UNL     1      -8.567  -1.830  52.715  1.00  0.00     0.279 HD
HETATM   10  N3  UNL     1      -8.258  -2.926  50.268  1.00  0.00    -0.284 N
ATOM     11  H3  UNL     1      -8.218  -3.945  50.248  1.00  0.00     0.184 HD
ENDROOT
BRANCH  10  12
HETATM   12  N4  UNL     1      -9.185  -2.305  49.480  1.00  0.00    -0.311 N
HETATM   13  C2  UNL     1     -10.244  -2.838  49.040  1.00  0.00     0.137 C
ATOM     14  H4  UNL     1      -9.009  -1.333  49.226  1.00  0.00     0.185 HD
BRANCH  13  15
HETATM   15  C3  UNL     1     -10.721  -4.179  49.252  1.00  0.00     0.065 A
HETATM   16  C4  UNL     1     -11.843  -4.502  50.005  1.00  0.00     0.119 A
HETATM   17  N5  UNL     1     -12.017  -5.835  50.005  1.00  0.00    -0.360 N
HETATM   18  C5  UNL     1     -11.030  -6.374  49.269  1.00  0.00     0.180 A
ATOM     19  H5  UNL     1     -12.763  -6.345  50.478  1.00  0.00     0.166 HD
HETATM   20  N6  UNL     1     -10.255  -5.355  48.821  1.00  0.00    -0.350 N
ATOM     21  H6  UNL     1      -9.429  -5.470  48.235  1.00  0.00     0.166 HD
ENDBRANCH  13  15
ENDBRANCH  10  12
TORSDOF 2
ENDMDL