MODEL 1
REMARK VINA RESULT: -4.470913293      0.000      0.000
REMARK  2 active torsions:
REMARK  status: ('A' for Active; 'I' for Inactive)
REMARK       I    between atoms: N1_1  and  C1_5
REMARK       I    between atoms: C1_5  and  N2_6
REMARK       I    between atoms: C1_5  and  N3_10
REMARK    1  A    between atoms: N3_10  and  N4_12
REMARK    2  A    between atoms: C2_14  and  C3_15
ROOT
HETATM    1  N1  UNL     1     -16.767  -5.372  51.771  1.00  0.00    -0.032 N
ATOM      2  H11 UNL     1     -16.346  -4.788  52.494  1.00  0.00     0.279 HD
ATOM      3  H12 UNL     1     -17.632  -4.975  51.403  1.00  0.00     0.279 HD
ATOM      4  H13 UNL     1     -16.230  -5.369  50.904  1.00  0.00     0.279 HD
HETATM    5  C1  UNL     1     -16.955  -6.714  52.305  1.00  0.00     0.494 C
HETATM    6  N2  UNL     1     -17.546  -7.535  51.291  1.00  0.00    -0.032 N
ATOM      7  H21 UNL     1     -17.678  -8.475  51.665  1.00  0.00     0.279 HD
ATOM      8  H22 UNL     1     -17.009  -7.531  50.424  1.00  0.00     0.279 HD
ATOM      9  H23 UNL     1     -18.411  -7.137  50.923  1.00  0.00     0.279 HD
HETATM   10  N3  UNL     1     -15.612  -7.189  52.670  1.00  0.00    -0.284 N
ATOM     11  H3  UNL     1     -15.215  -8.026  52.243  1.00  0.00     0.184 HD
ENDROOT
BRANCH  10  12
HETATM   12  N4  UNL     1     -14.896  -6.458  53.620  1.00  0.00    -0.311 N
HETATM   13  C2  UNL     1     -13.714  -6.017  53.449  1.00  0.00     0.137 C
ATOM     14  H4  UNL     1     -15.351  -6.265  54.512  1.00  0.00     0.185 HD
BRANCH  13  15
HETATM   15  C3  UNL     1     -12.994  -6.244  52.214  1.00  0.00     0.066 A
HETATM   16  C4  UNL     1     -12.974  -5.507  51.059  1.00  0.00     0.051 A
HETATM   17  C5  UNL     1     -12.140  -6.109  50.135  1.00  0.00     0.109 A
HETATM   18  N5  UNL     1     -11.667  -7.206  50.757  1.00  0.00    -0.311 N
HETATM   19  N6  UNL     1     -12.159  -7.294  51.969  1.00  0.00    -0.300 N
ATOM     20  H5  UNL     1     -11.018  -7.875  50.343  1.00  0.00     0.186 HD
ATOM     21  H6  UNL     1     -11.949  -8.040  52.631  1.00  0.00     0.187 HD
ENDBRANCH  13  15
ENDBRANCH  10  12
TORSDOF 2
ENDMDL