MODEL 3
REMARK VINA RESULT: -5.104262742      1.557      1.902
REMARK  3 active torsions:
REMARK  status: ('A' for Active; 'I' for Inactive)
REMARK    1  A    between atoms: C2_2  and  N1_4
REMARK    2  A    between atoms: N1_4  and  N2_6
REMARK    3  A    between atoms: N2_6  and  C4_7
ROOT
HETATM    1  C4  UNL     1     -11.409  -6.837  50.543  1.00  0.00     0.314 C
HETATM    2  C5  UNL     1     -11.096  -8.214  51.085  1.00  0.00     0.182 C
HETATM    3  N3  UNL     1     -10.944  -9.178  50.024  1.00  0.00    -0.143 NA
HETATM    4  N4  UNL     1      -9.975  -8.778  49.124  1.00  0.00    -0.121 NA
HETATM    5  C6  UNL     1     -10.297  -7.493  48.552  1.00  0.00     0.364 C
HETATM    6  N5  UNL     1     -11.472  -6.890  49.102  1.00  0.00    -0.040 N
ATOM      7  H51 UNL     1     -11.644  -5.968  48.700  1.00  0.00     0.280 HD
ATOM      8  H52 UNL     1     -12.319  -7.360  48.781  1.00  0.00     0.280 HD
ENDROOT
BRANCH   1   9
HETATM    9  N2  UNL     1     -12.656  -6.363  51.098  1.00  0.00    -0.111 NA
BRANCH   9  10
HETATM   10  N1  UNL     1     -12.977  -7.000  52.251  1.00  0.00    -0.334 N
ATOM     11  H1  UNL     1     -12.637  -7.944  52.435  1.00  0.00     0.176 HD
BRANCH  10  12
HETATM   12  C2  UNL     1     -13.787  -6.335  53.188  1.00  0.00     0.087 C
HETATM   13  C1  UNL     1     -13.731  -4.857  53.209  1.00  0.00     0.033 C
HETATM   14  C3  UNL     1     -15.240  -6.750  52.952  1.00  0.00     0.033 C
ENDBRANCH  10  12
ENDBRANCH   9  10
ENDBRANCH   1   9
TORSDOF 3
ENDMDL