MODEL 2
REMARK VINA RESULT: -8.031641331      5.276      9.319
REMARK  10 active torsions:
REMARK  status: ('A' for Active; 'I' for Inactive)
REMARK    1  A    between atoms: O1_1  and  C1_3
REMARK    2  A    between atoms: C3_5  and  O2_6
REMARK    3  A    between atoms: O2_6  and  C4_7
REMARK    4  A    between atoms: C10_14  and  C11_15
REMARK    5  A    between atoms: C11_15  and  O4_16
REMARK    6  A    between atoms: O4_16  and  C12_17
REMARK    7  A    between atoms: C14_20  and  O6_21
REMARK    8  A    between atoms: C15_23  and  O7_24
REMARK    9  A    between atoms: C16_26  and  O8_27
REMARK   10  A    between atoms: C17_29  and  O9_30
ROOT
HETATM    1  C1  UNL     1      71.750  22.110  39.596  1.00  0.00     0.154 C
HETATM    2  C2  UNL     1      72.858  22.827  38.865  1.00  0.00     0.095 C
HETATM    3  C3  UNL     1      73.395  23.998  39.625  1.00  0.00     0.263 C
HETATM    4  O3  UNL     1      72.659  24.306  40.757  1.00  0.00    -0.351 OA
HETATM    5  C10 UNL     1      71.295  24.356  40.521  1.00  0.00     0.179 C
HETATM    6  C17 UNL     1      70.705  23.089  40.004  1.00  0.00     0.178 C
ENDROOT
BRANCH   5   7
HETATM    7  C11 UNL     1      70.533  24.864  41.727  1.00  0.00     0.205 C
BRANCH   7   8
HETATM    8  O4  UNL     1      71.040  26.034  42.224  1.00  0.00    -0.356 OA
BRANCH   8   9
HETATM    9  C12 UNL     1      71.001  26.204  43.568  1.00  0.00     0.290 C
HETATM   10  O5  UNL     1      72.257  26.118  44.189  1.00  0.00    -0.356 OA
HETATM   11  C13 UNL     1      73.082  26.983  43.429  1.00  0.00     0.205 C
HETATM   12  C14 UNL     1      72.392  28.312  43.297  1.00  0.00     0.173 C
HETATM   13  C15 UNL     1      71.308  28.479  44.364  1.00  0.00     0.182 C
HETATM   14  C16 UNL     1      70.280  27.405  44.064  1.00  0.00     0.204 C
BRANCH  12  15
HETATM   15  O6  UNL     1      73.318  29.333  43.380  1.00  0.00    -0.391 OA
ATOM     16  H6  UNL     1      73.923  29.163  44.093  1.00  0.00     0.210 HD
ENDBRANCH  12  15
BRANCH  13  17
HETATM   17  O7  UNL     1      70.753  29.730  44.171  1.00  0.00    -0.390 OA
ATOM     18  H7  UNL     1      71.359  30.357  44.548  1.00  0.00     0.210 HD
ENDBRANCH  13  17
BRANCH  14  19
HETATM   19  O8  UNL     1      69.455  27.984  43.071  1.00  0.00    -0.388 OA
ATOM     20  H8  UNL     1      68.829  28.598  43.436  1.00  0.00     0.210 HD
ENDBRANCH  14  19
ENDBRANCH   8   9
ENDBRANCH   7   8
ENDBRANCH   5   7
BRANCH   6  21
HETATM   21  O9  UNL     1      69.832  23.330  38.945  1.00  0.00    -0.390 OA
ATOM     22  H9  UNL     1      69.249  24.048  39.159  1.00  0.00     0.210 HD
ENDBRANCH   6  21
BRANCH   3  23
HETATM   23  O2  UNL     1      74.672  23.610  40.097  1.00  0.00    -0.356 OA
BRANCH  23  24
HETATM   24  C4  UNL     1      75.527  24.679  40.226  1.00  0.00     0.124 C
HETATM   25  C5  UNL     1      76.265  25.002  38.946  1.00  0.00     0.032 C
HETATM   26  C6  UNL     1      76.680  26.457  39.015  1.00  0.00     0.002 C
HETATM   27  C7  UNL     1      77.157  26.760  40.421  1.00  0.00     0.000 C
HETATM   28  C8  UNL     1      77.681  25.481  41.042  1.00  0.00     0.002 C
HETATM   29  C9  UNL     1      76.541  24.521  41.325  1.00  0.00     0.032 C
ENDBRANCH  23  24
ENDBRANCH   3  23
BRANCH   1  30
HETATM   30  O1  UNL     1      71.156  21.145  38.793  1.00  0.00    -0.393 OA
ATOM     31  H1  UNL     1      70.625  20.546  39.306  1.00  0.00     0.210 HD
ENDBRANCH   1  30
TORSDOF 10
ENDMDL