MODEL 4
REMARK VINA RESULT: -7.226310542      2.452      3.095
REMARK  9 active torsions:
REMARK  status: ('A' for Active; 'I' for Inactive)
REMARK    1  A    between atoms: S1_2  and  C2_3
REMARK    2  A    between atoms: C3_5  and  C4_6
REMARK    3  A    between atoms: C4_6  and  S2_7
REMARK    4  A    between atoms: S2_7  and  C5_8
REMARK    5  A    between atoms: C8_11  and  O2_12
REMARK    6  A    between atoms: C9_14  and  C10_15
REMARK    7  A    between atoms: C11_19  and  O5_20
REMARK    8  A    between atoms: C12_22  and  O6_23
REMARK    9  A    between atoms: C13_25  and  O7_26
ROOT
HETATM    1  C2  UNL     1      74.905  24.076  40.423  1.00  0.00     0.214 C
HETATM    2  O1  UNL     1      74.957  25.445  40.661  1.00  0.00    -0.364 OA
HETATM    3  C3  UNL     1      76.268  25.797  40.941  1.00  0.00     0.163 C
HETATM    4  C11 UNL     1      77.026  25.847  39.638  1.00  0.00     0.179 C
HETATM    5  C12 UNL     1      76.955  24.464  39.022  1.00  0.00     0.181 C
HETATM    6  C13 UNL     1      76.199  23.510  39.925  1.00  0.00     0.188 C
ENDROOT
BRANCH   3   7
HETATM    7  C4  UNL     1      76.364  27.094  41.705  1.00  0.00     0.111 C
BRANCH   7   8
HETATM    8  S2  UNL     1      75.621  26.978  43.349  1.00  0.00    -0.135 SA
BRANCH   8   9
HETATM    9  C5  UNL     1      73.941  27.723  43.245  1.00  0.00     0.184 C
HETATM   10  C6  UNL     1      72.928  26.669  42.960  1.00  0.00     0.045 C
HETATM   11  C7  UNL     1      71.788  26.644  43.943  1.00  0.00     0.038 C
HETATM   12  C8  UNL     1      71.373  28.021  44.385  1.00  0.00     0.156 C
HETATM   13  C9  UNL     1      72.493  28.995  44.533  1.00  0.00     0.240 C
HETATM   14  O4  UNL     1      73.751  28.473  44.366  1.00  0.00    -0.359 OA
BRANCH  12  15
HETATM   15  O2  UNL     1      70.379  28.471  43.485  1.00  0.00    -0.393 OA
ATOM     16  H2  UNL     1      69.535  28.265  43.871  1.00  0.00     0.210 HD
ENDBRANCH  12  15
BRANCH  13  17
HETATM   17  C10 UNL     1      72.258  30.202  43.681  1.00  0.00     0.262 C
HETATM   18  N1  UNL     1      71.150  31.065  43.887  1.00  0.00    -0.060 NA
HETATM   19  O3  UNL     1      73.039  30.497  42.746  1.00  0.00    -0.274 OA
ENDBRANCH  13  17
ENDBRANCH   8   9
ENDBRANCH   7   8
ENDBRANCH   3   7
BRANCH   4  20
HETATM   20  O5  UNL     1      76.455  26.735  38.732  1.00  0.00    -0.390 OA
ATOM     21  H5  UNL     1      75.515  26.620  38.662  1.00  0.00     0.210 HD
ENDBRANCH   4  20
BRANCH   1  22
HETATM   22  S1  UNL     1      73.519  23.652  39.327  1.00  0.00    -0.139 SA
HETATM   23  C1  UNL     1      71.986  23.966  40.259  1.00  0.00     0.092 C
ENDBRANCH   1  22
BRANCH   5  24
HETATM   24  O6  UNL     1      76.295  24.482  37.798  1.00  0.00    -0.390 OA
ATOM     25  H6  UNL     1      76.858  24.800  37.101  1.00  0.00     0.210 HD
ENDBRANCH   5  24
BRANCH   6  26
HETATM   26  O7  UNL     1      75.880  22.381  39.152  1.00  0.00    -0.389 OA
ATOM     27  H7  UNL     1      75.635  22.697  38.290  1.00  0.00     0.210 HD
ENDBRANCH   6  26
TORSDOF 9
ENDMDL