MODEL 4
REMARK VINA RESULT: -7.385450410      6.426      9.167
REMARK  10 active torsions:
REMARK  status: ('A' for Active; 'I' for Inactive)
REMARK    1  A    between atoms: C3_4  and  O2_5
REMARK    2  A    between atoms: O2_5  and  C4_6
REMARK    3  A    between atoms: C4_6  and  C5_7
REMARK    4  A    between atoms: C11_13  and  O3_14
REMARK    5  A    between atoms: C12_16  and  O4_17
REMARK    6  A    between atoms: O4_17  and  C13_18
REMARK    7  A    between atoms: C14_20  and  O6_21
REMARK    8  A    between atoms: C15_23  and  O7_24
REMARK    9  A    between atoms: C16_26  and  O8_27
REMARK   10  A    between atoms: C17_29  and  O9_30
ROOT
HETATM    1  C1  UNL     1      68.987  20.431  41.611  1.00  0.00     0.042 C
HETATM    2  C2  UNL     1      68.722  21.840  41.124  1.00  0.00     0.152 C
HETATM    3  O1  UNL     1      69.840  22.255  40.412  1.00  0.00    -0.351 OA
HETATM    4  C3  UNL     1      69.896  23.619  40.244  1.00  0.00     0.291 C
HETATM    5  C11 UNL     1      70.280  24.245  41.560  1.00  0.00     0.205 C
HETATM    6  C12 UNL     1      69.708  23.499  42.718  1.00  0.00     0.189 C
HETATM    7  C17 UNL     1      68.480  22.696  42.348  1.00  0.00     0.178 C
ENDROOT
BRANCH   6   8
HETATM    8  O4  UNL     1      69.436  24.283  43.813  1.00  0.00    -0.348 OA
BRANCH   8   9
HETATM    9  C13 UNL     1      70.452  24.338  44.743  1.00  0.00     0.295 C
HETATM   10  O5  UNL     1      71.120  25.548  44.605  1.00  0.00    -0.326 OA
HETATM   11  C14 UNL     1      70.309  26.530  45.146  1.00  0.00     0.291 C
HETATM   12  C15 UNL     1      69.381  25.882  46.126  1.00  0.00     0.206 C
HETATM   13  C16 UNL     1      69.913  24.465  46.169  1.00  0.00     0.207 C
BRANCH  11  14
HETATM   14  O6  UNL     1      71.127  27.426  45.832  1.00  0.00    -0.368 OA
ATOM     15  H6  UNL     1      71.084  28.261  45.381  1.00  0.00     0.212 HD
ENDBRANCH  11  14
BRANCH  12  16
HETATM   16  O7  UNL     1      69.401  26.486  47.379  1.00  0.00    -0.388 OA
ATOM     17  H7  UNL     1      68.719  27.138  47.491  1.00  0.00     0.210 HD
ENDBRANCH  12  16
BRANCH  13  18
HETATM   18  O8  UNL     1      71.017  24.425  47.010  1.00  0.00    -0.388 OA
ATOM     19  H8  UNL     1      71.684  24.962  46.600  1.00  0.00     0.210 HD
ENDBRANCH  13  18
ENDBRANCH   8   9
ENDBRANCH   6   8
BRANCH   5  20
HETATM   20  O3  UNL     1      69.882  25.574  41.649  1.00  0.00    -0.388 OA
ATOM     21  H3  UNL     1      69.300  25.823  40.941  1.00  0.00     0.210 HD
ENDBRANCH   5  20
BRANCH   7  22
HETATM   22  O9  UNL     1      67.461  23.593  42.038  1.00  0.00    -0.390 OA
ATOM     23  H9  UNL     1      66.652  23.237  42.389  1.00  0.00     0.210 HD
ENDBRANCH   7  22
BRANCH   4  24
HETATM   24  O2  UNL     1      70.892  23.917  39.318  1.00  0.00    -0.358 OA
BRANCH  24  25
HETATM   25  C4  UNL     1      72.040  23.224  39.685  1.00  0.00     0.175 C
BRANCH  25  26
HETATM   26  C5  UNL     1      73.301  23.963  39.330  1.00  0.00     0.009 C
HETATM   27  C6  UNL     1      74.148  23.217  38.331  1.00  0.00     0.007 C
HETATM   28  C7  UNL     1      75.281  22.569  39.093  1.00  0.00     0.000 C
HETATM   29  C8  UNL     1      76.193  23.593  39.709  1.00  0.00     0.000 C
HETATM   30  C9  UNL     1      75.438  24.752  40.292  1.00  0.00     0.000 C
HETATM   31  C10 UNL     1      74.038  24.289  40.595  1.00  0.00     0.007 C
ENDBRANCH  25  26
ENDBRANCH  24  25
ENDBRANCH   4  24
TORSDOF 10
ENDMDL