MODEL 5
REMARK VINA RESULT: -6.653496623     10.351     12.499
REMARK  10 active torsions:
REMARK  status: ('A' for Active; 'I' for Inactive)
REMARK    1  A    between atoms: N1_1  and  C1_5
REMARK    2  A    between atoms: C1_5  and  C2_6
REMARK    3  A    between atoms: C5_9  and  N2_10
REMARK    4  A    between atoms: C6_14  and  O1_15
REMARK    5  A    between atoms: O1_15  and  C7_16
REMARK    6  A    between atoms: C8_17  and  O2_18
REMARK    7  A    between atoms: C9_20  and  N3_21
REMARK    8  A    between atoms: C10_26  and  C11_27
REMARK    9  A    between atoms: C11_27  and  N4_28
REMARK   10  A    between atoms: C17_34  and  O4_35
ROOT
HETATM    1  C7  UNL     1      69.434  26.211  45.144  1.00  0.00     0.189 C
HETATM    2  C8  UNL     1      68.795  27.403  44.425  1.00  0.00     0.206 C
HETATM    3  C9  UNL     1      69.630  27.643  43.191  1.00  0.00     0.350 C
HETATM    4  O3  UNL     1      69.354  26.596  42.329  1.00  0.00    -0.347 OA
HETATM    5  C10 UNL     1      69.765  25.374  42.784  1.00  0.00     0.173 C
HETATM    6  C17 UNL     1      69.366  25.056  44.181  1.00  0.00     0.180 C
ENDROOT
BRANCH   1   7
HETATM    7  O1  UNL     1      68.792  25.947  46.330  1.00  0.00    -0.348 OA
BRANCH   7   8
HETATM    8  C6  UNL     1      69.693  25.970  47.393  1.00  0.00     0.291 C
HETATM    9  C5  UNL     1      68.934  26.108  48.695  1.00  0.00     0.238 C
HETATM   10  C4  UNL     1      69.897  25.812  49.809  1.00  0.00     0.040 C
HETATM   11  C3  UNL     1      70.256  24.351  49.694  1.00  0.00     0.036 C
HETATM   12  C2  UNL     1      70.353  23.901  48.258  1.00  0.00     0.150 C
HETATM   13  O5  UNL     1      70.603  24.934  47.377  1.00  0.00    -0.352 OA
BRANCH   9  14
HETATM   14  N2  UNL     1      67.820  25.190  48.780  1.00  0.00    -0.070 N
ATOM     15  H23 UNL     1      66.922  25.657  48.660  1.00  0.00     0.274 HD
ATOM     16  H22 UNL     1      67.767  24.568  47.973  1.00  0.00     0.274 HD
ATOM     17  H21 UNL     1      67.879  24.679  49.660  1.00  0.00     0.274 HD
ENDBRANCH   9  14
BRANCH  12  18
HETATM   18  C1  UNL     1      71.540  22.953  48.186  1.00  0.00     0.261 C
BRANCH  18  19
HETATM   19  N1  UNL     1      72.230  23.066  46.910  1.00  0.00    -0.077 N
ATOM     20  H13 UNL     1      71.940  23.900  46.400  1.00  0.00     0.274 HD
ATOM     21  H12 UNL     1      73.216  23.295  47.036  1.00  0.00     0.274 HD
ATOM     22  H11 UNL     1      72.110  22.223  46.348  1.00  0.00     0.274 HD
ENDBRANCH  18  19
ENDBRANCH  12  18
ENDBRANCH   7   8
ENDBRANCH   1   7
BRANCH   2  23
HETATM   23  O2  UNL     1      67.542  26.957  43.999  1.00  0.00    -0.388 OA
ATOM     24  H2  UNL     1      67.715  26.353  43.286  1.00  0.00     0.210 HD
ENDBRANCH   2  23
BRANCH   6  25
HETATM   25  O4  UNL     1      70.259  24.066  44.650  1.00  0.00    -0.390 OA
ATOM     26  H4  UNL     1      70.599  23.610  43.890  1.00  0.00     0.210 HD
ENDBRANCH   6  25
BRANCH   3  27
HETATM   27  N3  UNL     1      71.013  27.797  43.494  1.00  0.00    -0.050 N
ATOM     28  H33 UNL     1      71.143  28.311  44.365  1.00  0.00     0.277 HD
ATOM     29  H32 UNL     1      71.431  26.908  43.766  1.00  0.00     0.277 HD
ATOM     30  H31 UNL     1      71.532  28.231  42.730  1.00  0.00     0.277 HD
ENDBRANCH   3  27
BRANCH   5  31
HETATM   31  C11 UNL     1      69.141  24.333  41.863  1.00  0.00     0.151 C
BRANCH  31  32
HETATM   32  N4  UNL     1      70.027  23.798  40.893  1.00  0.00    -0.410 N
HETATM   33  C12 UNL     1      71.376  24.221  40.950  1.00  0.00     0.117 C
HETATM   34  C13 UNL     1      72.005  23.974  39.573  1.00  0.00     0.019 C
HETATM   35  C14 UNL     1      72.052  22.483  39.407  1.00  0.00     0.003 C
HETATM   36  C15 UNL     1      70.611  22.002  39.324  1.00  0.00     0.019 C
HETATM   37  C16 UNL     1      69.796  22.450  40.513  1.00  0.00     0.117 C
ENDBRANCH  31  32
ENDBRANCH   5  31
TORSDOF 10
ENDMDL