MODEL 1
REMARK VINA RESULT: -8.490844958      0.000      0.000
REMARK  9 active torsions:
REMARK  status: ('A' for Active; 'I' for Inactive)
REMARK    1  A    between atoms: O1_2  and  C2_3
REMARK    2  A    between atoms: C3_4  and  O2_5
REMARK    3  A    between atoms: C4_7  and  O3_8
REMARK    4  A    between atoms: C6_12  and  O5_13
REMARK    5  A    between atoms: C7_15  and  N1_16
REMARK    6  A    between atoms: C7_15  and  C8_20
REMARK       I    between atoms: C8_20  and  N2_22
REMARK    7  A    between atoms: N2_22  and  O7_24
REMARK    8  A    between atoms: O7_24  and  C9_25
REMARK    9  A    between atoms: C15_31  and  O8_32
ROOT
HETATM    1  C2  UNL     1      79.172  23.907  41.177  1.00  0.00     0.181 C
HETATM    2  C3  UNL     1      79.863  25.187  41.554  1.00  0.00     0.180 C
HETATM    3  C4  UNL     1      79.303  26.381  40.820  1.00  0.00     0.179 C
HETATM    4  C5  UNL     1      77.816  26.519  40.965  1.00  0.00     0.165 C
HETATM    5  O4  UNL     1      77.498  27.578  41.848  1.00  0.00    -0.350 OA
HETATM    6  C6  UNL     1      76.188  27.315  42.249  1.00  0.00     0.303 C
HETATM    7  C7  UNL     1      76.060  25.779  42.320  1.00  0.00     0.262 C
HETATM    8  C14 UNL     1      77.359  25.349  41.848  1.00  0.00     0.100 C
HETATM    9  C15 UNL     1      77.649  24.039  41.266  1.00  0.00     0.162 C
ENDROOT
BRANCH   7  10
HETATM   10  N1  UNL     1      75.973  25.504  43.780  1.00  0.00    -0.056 N
ATOM     11  H13 UNL     1      76.875  25.450  44.255  1.00  0.00     0.276 HD
ATOM     12  H12 UNL     1      75.607  26.278  44.335  1.00  0.00     0.276 HD
ATOM     13  H11 UNL     1      75.418  24.650  43.830  1.00  0.00     0.276 HD
ENDBRANCH   7  10
BRANCH   7  14
HETATM   14  C8  UNL     1      74.816  25.442  41.698  1.00  0.00     0.283 C
HETATM   15  O6  UNL     1      73.741  25.818  42.301  1.00  0.00    -0.268 OA
HETATM   16  N2  UNL     1      74.590  24.749  40.492  1.00  0.00    -0.232 N
ATOM     17  H2  UNL     1      75.403  24.419  39.971  1.00  0.00     0.197 HD
BRANCH  16  18
HETATM   18  O7  UNL     1      73.361  24.493  39.982  1.00  0.00    -0.272 OA
BRANCH  18  19
HETATM   19  C9  UNL     1      73.331  23.133  39.724  1.00  0.00     0.152 C
HETATM   20  C10 UNL     1      71.893  22.754  39.346  1.00  0.00     0.034 C
HETATM   21  C11 UNL     1      72.139  21.330  38.867  1.00  0.00     0.003 C
HETATM   22  C12 UNL     1      73.474  21.394  38.159  1.00  0.00     0.003 C
HETATM   23  C13 UNL     1      74.047  22.768  38.460  1.00  0.00     0.034 C
ENDBRANCH  18  19
ENDBRANCH  16  18
ENDBRANCH   7  14
BRANCH   6  24
HETATM   24  O5  UNL     1      75.832  27.911  43.429  1.00  0.00    -0.368 OA
ATOM     25  H5  UNL     1      75.299  27.365  43.995  1.00  0.00     0.212 HD
ENDBRANCH   6  24
BRANCH   9  26
HETATM   26  O8  UNL     1      77.025  23.617  40.154  1.00  0.00    -0.387 OA
HETATM   27  C16 UNL     1      77.450  23.886  38.924  1.00  0.00     0.202 C
ENDBRANCH   9  26
BRANCH   3  28
HETATM   28  O3  UNL     1      79.701  26.402  39.483  1.00  0.00    -0.390 OA
ATOM     29  H3  UNL     1      80.448  26.973  39.346  1.00  0.00     0.210 HD
ENDBRANCH   3  28
BRANCH   1  30
HETATM   30  O1  UNL     1      79.685  22.869  41.898  1.00  0.00    -0.385 OA
HETATM   31  C1  UNL     1      79.472  22.900  43.251  1.00  0.00     0.202 C
ENDBRANCH   1  30
BRANCH   2  32
HETATM   32  O2  UNL     1      81.188  25.057  41.013  1.00  0.00    -0.390 OA
ATOM     33  H2  UNL     1      81.754  25.001  41.775  1.00  0.00     0.210 HD
ENDBRANCH   2  32
TORSDOF 9
ENDMDL