MODEL 3
REMARK VINA RESULT: -7.487386919      1.004      1.516
REMARK  10 active torsions:
REMARK  status: ('A' for Active; 'I' for Inactive)
REMARK    1  A    between atoms: N1_1  and  C1_5
REMARK    2  A    between atoms: C3_7  and  N2_8
REMARK    3  A    between atoms: C4_12  and  O1_13
REMARK    4  A    between atoms: O1_13  and  C5_14
REMARK    5  A    between atoms: C6_16  and  C7_17
REMARK    6  A    between atoms: C7_17  and  O3_18
REMARK    7  A    between atoms: C8_20  and  O4_21
REMARK    8  A    between atoms: C9_24  and  O6_25
REMARK    9  A    between atoms: O6_25  and  C10_26
REMARK       I    between atoms: C10_26  and  N3_28
REMARK   10  A    between atoms: N3_28  and  C11_29
ROOT
HETATM    1  C1  UNL     1      78.700  24.182  40.077  1.00  0.00     0.241 C
HETATM    2  C2  UNL     1      77.567  23.959  39.113  1.00  0.00     0.075 C
HETATM    3  C3  UNL     1      76.208  24.048  39.758  1.00  0.00     0.240 C
HETATM    4  C4  UNL     1      76.403  24.917  41.005  1.00  0.00     0.296 C
HETATM    5  O5  UNL     1      77.107  24.154  41.886  1.00  0.00    -0.327 OA
HETATM    6  C9  UNL     1      78.427  23.867  41.491  1.00  0.00     0.305 C
ENDROOT
BRANCH   4   7
HETATM    7  O1  UNL     1      75.196  25.261  41.575  1.00  0.00    -0.327 OA
BRANCH   7   8
HETATM    8  C5  UNL     1      75.323  26.074  42.679  1.00  0.00     0.294 C
HETATM    9  O2  UNL     1      76.018  27.257  42.528  1.00  0.00    -0.348 OA
HETATM   10  C6  UNL     1      75.197  27.849  43.453  1.00  0.00     0.181 C
HETATM   11  C8  UNL     1      74.086  26.901  42.996  1.00  0.00     0.204 C
BRANCH  10  12
HETATM   12  C7  UNL     1      74.824  29.301  43.220  1.00  0.00     0.199 C
BRANCH  12  13
HETATM   13  O3  UNL     1      75.736  29.952  42.428  1.00  0.00    -0.398 OA
ATOM     14  H3  UNL     1      75.424  30.802  42.143  1.00  0.00     0.209 HD
ENDBRANCH  12  13
ENDBRANCH  10  12
BRANCH  11  15
HETATM   15  O4  UNL     1      73.372  26.463  44.094  1.00  0.00    -0.388 OA
ATOM     16  H4  UNL     1      73.019  25.585  44.009  1.00  0.00     0.210 HD
ENDBRANCH  11  15
ENDBRANCH   7   8
ENDBRANCH   4   7
BRANCH   3  17
HETATM   17  N2  UNL     1      75.175  24.550  38.896  1.00  0.00    -0.070 N
ATOM     18  H23 UNL     1      75.582  25.072  38.121  1.00  0.00     0.274 HD
ATOM     19  H22 UNL     1      74.738  23.785  38.382  1.00  0.00     0.274 HD
ATOM     20  H21 UNL     1      74.467  25.111  39.370  1.00  0.00     0.274 HD
ENDBRANCH   3  17
BRANCH   6  21
HETATM   21  O6  UNL     1      78.709  22.509  41.749  1.00  0.00    -0.259 OA
BRANCH  21  22
HETATM   22  C10 UNL     1      79.500  22.104  42.887  1.00  0.00     0.437 C
HETATM   23  O7  UNL     1      80.340  23.009  43.162  1.00  0.00    -0.221 OA
HETATM   24  N3  UNL     1      79.284  20.918  43.490  1.00  0.00    -0.385 NA
BRANCH  24  25
HETATM   25  C11 UNL     1      79.065  19.713  44.106  1.00  0.00     0.169 C
HETATM   26  C12 UNL     1      79.290  19.751  45.642  1.00  0.00     0.039 C
HETATM   27  C13 UNL     1      80.650  20.202  46.015  1.00  0.00     0.003 C
HETATM   28  C14 UNL     1      81.702  20.009  44.997  1.00  0.00     0.000 C
HETATM   29  C15 UNL     1      81.435  19.042  43.919  1.00  0.00     0.003 C
HETATM   30  C16 UNL     1      80.048  18.602  43.677  1.00  0.00     0.039 C
ENDBRANCH  24  25
ENDBRANCH  21  22
ENDBRANCH   6  21
BRANCH   1  31
HETATM   31  N1  UNL     1      79.311  25.506  39.891  1.00  0.00    -0.070 N
ATOM     32  H13 UNL     1      78.741  26.242  40.308  1.00  0.00     0.274 HD
ATOM     33  H12 UNL     1      80.150  25.614  40.462  1.00  0.00     0.274 HD
ATOM     34  H11 UNL     1      79.502  25.694  38.907  1.00  0.00     0.274 HD
ENDBRANCH   1  31
TORSDOF 10
ENDMDL