MODEL 5
REMARK VINA RESULT: -6.229082650      4.776      8.278
REMARK  9 active torsions:
REMARK  status: ('A' for Active; 'I' for Inactive)
REMARK    1  A    between atoms: O1_2  and  C2_3
REMARK    2  A    between atoms: C2_3  and  C3_5
REMARK    3  A    between atoms: C4_6  and  C5_7
REMARK       I    between atoms: C5_7  and  N1_9
REMARK    4  A    between atoms: N1_9  and  N2_11
REMARK    5  A    between atoms: C6_14  and  C8_16
REMARK       I    between atoms: C8_16  and  N3_18
REMARK    6  A    between atoms: N3_18  and  N4_20
REMARK    7  A    between atoms: C9_22  and  C10_23
REMARK    8  A    between atoms: C14_28  and  O5_29
REMARK    9  A    between atoms: C15_31  and  O6_33
ROOT
HETATM    1  C10 UNL     1      72.650  22.997  38.959  1.00  0.00     0.128 C
HETATM    2  C11 UNL     1      71.364  22.367  39.499  1.00  0.00     0.031 C
HETATM    3  C12 UNL     1      73.468  21.970  38.283  1.00  0.00     0.069 C
HETATM    4  N5  UNL     1      74.089  21.174  37.757  1.00  0.00    -0.197 NA
ENDROOT
BRANCH   1   5
HETATM    5  C9  UNL     1      73.470  23.540  40.062  1.00  0.00     0.099 C
HETATM    6  N4  UNL     1      73.046  24.301  40.990  1.00  0.00    -0.312 N
ATOM      7  H4  UNL     1      73.713  24.611  41.697  1.00  0.00     0.185 HD
BRANCH   6   8
HETATM    8  N3  UNL     1      71.722  24.737  41.101  1.00  0.00    -0.270 N
HETATM    9  C8  UNL     1      71.228  25.442  42.225  1.00  0.00     0.245 C
HETATM   10  O4  UNL     1      72.063  25.659  43.137  1.00  0.00    -0.271 OA
ATOM     11  H3  UNL     1      71.081  24.537  40.334  1.00  0.00     0.190 HD
BRANCH   9  12
HETATM   12  C6  UNL     1      69.810  25.853  42.229  1.00  0.00     0.054 C
HETATM   13  C4  UNL     1      68.888  24.953  42.995  1.00  0.00     0.113 C
HETATM   14  C3  UNL     1      69.238  25.116  44.429  1.00  0.00     0.136 C
HETATM   15  C15 UNL     1      68.504  26.376  44.917  1.00  0.00     0.093 C
HETATM   16  C14 UNL     1      68.695  27.430  43.880  1.00  0.00     0.154 C
HETATM   17  C16 UNL     1      67.031  26.088  45.157  1.00  0.00     0.049 C
HETATM   18  C13 UNL     1      69.764  27.216  42.879  1.00  0.00     0.054 C
HETATM   19  C7  UNL     1      69.341  25.880  40.793  1.00  0.00     0.026 C
BRANCH  13  20
HETATM   20  C5  UNL     1      68.740  23.593  42.482  1.00  0.00     0.241 C
HETATM   21  O3  UNL     1      69.734  22.797  42.343  1.00  0.00    -0.271 OA
HETATM   22  N1  UNL     1      67.483  23.063  42.100  1.00  0.00    -0.276 N
ATOM     23  H1  UNL     1      66.645  23.639  42.182  1.00  0.00     0.189 HD
BRANCH  22  24
HETATM   24  N2  UNL     1      67.384  21.766  41.616  1.00  0.00    -0.343 N
ATOM     25  H22 UNL     1      66.757  21.581  40.833  1.00  0.00     0.176 HD
ATOM     26  H21 UNL     1      67.930  21.014  42.036  1.00  0.00     0.176 HD
ENDBRANCH  22  24
ENDBRANCH  13  20
BRANCH  14  27
HETATM   27  C2  UNL     1      69.052  23.970  45.308  1.00  0.00     0.266 C
HETATM   28  O2  UNL     1      69.912  23.725  46.191  1.00  0.00    -0.265 OA
BRANCH  27  29
HETATM   29  O1  UNL     1      67.968  23.154  45.195  1.00  0.00    -0.326 OA
HETATM   30  C1  UNL     1      67.947  21.788  45.643  1.00  0.00     0.213 C
ENDBRANCH  27  29
ENDBRANCH  14  27
BRANCH  15  31
HETATM   31  O6  UNL     1      69.060  26.698  46.145  1.00  0.00    -0.387 OA
ATOM     32  H6  UNL     1      68.828  27.604  46.313  1.00  0.00     0.210 HD
ENDBRANCH  15  31
BRANCH  16  33
HETATM   33  O5  UNL     1      67.478  27.817  43.270  1.00  0.00    -0.392 OA
ATOM     34  H5  UNL     1      67.581  27.951  42.335  1.00  0.00     0.210 HD
ENDBRANCH  16  33
ENDBRANCH   9  12
ENDBRANCH   6   8
ENDBRANCH   1   5
TORSDOF 9
ENDMDL