MODEL 3
REMARK VINA RESULT: -5.279460566     13.981     15.631
REMARK  10 active torsions:
REMARK  status: ('A' for Active; 'I' for Inactive)
REMARK    1  A    between atoms: O1_2  and  C2_3
REMARK    2  A    between atoms: C3_4  and  N1_5
REMARK    3  A    between atoms: C4_9  and  O2_10
REMARK    4  A    between atoms: O2_10  and  C5_11
REMARK    5  A    between atoms: C6_12  and  O3_13
REMARK    6  A    between atoms: C7_15  and  S1_17
REMARK    7  A    between atoms: C12_21  and  N2_23
REMARK    8  A    between atoms: C14_28  and  C15_29
REMARK    9  A    between atoms: C15_29  and  N3_30
REMARK   10  A    between atoms: C16_34  and  O5_35
ROOT
HETATM    1  C2  UNL     1      71.108  27.135  44.211  1.00  0.00     0.187 C
HETATM    2  C3  UNL     1      70.554  25.924  44.909  1.00  0.00     0.269 C
HETATM    3  C4  UNL     1      69.698  25.181  43.908  1.00  0.00     0.294 C
HETATM    4  O4  UNL     1      69.870  25.669  42.616  1.00  0.00    -0.349 OA
HETATM    5  C14 UNL     1      69.417  26.964  42.486  1.00  0.00     0.181 C
HETATM    6  C16 UNL     1      69.964  27.875  43.567  1.00  0.00     0.180 C
ENDROOT
BRANCH   3   7
HETATM    7  O2  UNL     1      69.955  23.848  44.012  1.00  0.00    -0.348 OA
BRANCH   7   8
HETATM    8  C5  UNL     1      68.857  23.030  44.101  1.00  0.00     0.194 C
HETATM    9  C6  UNL     1      67.777  23.805  44.813  1.00  0.00     0.172 C
HETATM   10  C7  UNL     1      66.406  23.209  44.651  1.00  0.00     0.050 C
HETATM   11  C8  UNL     1      66.265  21.877  45.326  1.00  0.00     0.034 C
HETATM   12  C10 UNL     1      66.101  23.173  43.212  1.00  0.00    -0.006 C
HETATM   13  C11 UNL     1      67.064  22.857  42.370  1.00  0.00     0.011 C
HETATM   14  C12 UNL     1      68.469  22.525  42.759  1.00  0.00     0.166 C
HETATM   15  C13 UNL     1      68.670  21.005  42.662  1.00  0.00     0.053 C
BRANCH   9  16
HETATM   16  O3  UNL     1      68.041  23.868  46.181  1.00  0.00    -0.391 OA
ATOM     17  H3  UNL     1      67.683  24.665  46.554  1.00  0.00     0.210 HD
ENDBRANCH   9  16
BRANCH  10  18
HETATM   18  S1  UNL     1      65.229  24.359  45.430  1.00  0.00    -0.157 SA
HETATM   19  C9  UNL     1      64.554  23.671  46.960  1.00  0.00     0.091 C
ENDBRANCH  10  18
BRANCH  14  20
HETATM   20  N2  UNL     1      69.316  23.085  41.718  1.00  0.00    -0.065 N
ATOM     21  H23 UNL     1      68.763  23.537  40.989  1.00  0.00     0.275 HD
ATOM     22  H22 UNL     1      69.831  23.899  42.053  1.00  0.00     0.275 HD
ATOM     23  H21 UNL     1      69.942  22.380  41.330  1.00  0.00     0.275 HD
ENDBRANCH  14  20
ENDBRANCH   7   8
ENDBRANCH   3   7
BRANCH   2  24
HETATM   24  N1  UNL     1      69.719  26.247  46.041  1.00  0.00    -0.068 N
ATOM     25  H13 UNL     1      69.570  27.254  46.105  1.00  0.00     0.275 HD
ATOM     26  H12 UNL     1      68.759  25.944  45.882  1.00  0.00     0.275 HD
ATOM     27  H11 UNL     1      70.073  25.877  46.924  1.00  0.00     0.275 HD
ENDBRANCH   2  24
BRANCH   1  28
HETATM   28  O1  UNL     1      71.962  27.891  44.927  1.00  0.00    -0.386 OA
HETATM   29  C1  UNL     1      72.446  29.031  44.342  1.00  0.00     0.202 C
ENDBRANCH   1  28
BRANCH   5  30
HETATM   30  C15 UNL     1      67.918  27.076  42.364  1.00  0.00     0.264 C
BRANCH  30  31
HETATM   31  N3  UNL     1      67.574  28.233  41.562  1.00  0.00    -0.077 N
ATOM     32  H33 UNL     1      67.234  29.007  42.132  1.00  0.00     0.274 HD
ATOM     33  H32 UNL     1      68.400  28.688  41.172  1.00  0.00     0.274 HD
ATOM     34  H31 UNL     1      66.906  27.967  40.839  1.00  0.00     0.274 HD
ENDBRANCH  30  31
ENDBRANCH   5  30
BRANCH   6  35
HETATM   35  O5  UNL     1      68.963  28.208  44.470  1.00  0.00    -0.390 OA
ATOM     36  H5  UNL     1      68.824  29.146  44.536  1.00  0.00     0.210 HD
ENDBRANCH   6  35
TORSDOF 10
ENDMDL