MODEL 3
REMARK VINA RESULT: -7.145043467      4.172      5.952
REMARK  9 active torsions:
REMARK  status: ('A' for Active; 'I' for Inactive)
REMARK    1  A    between atoms: N1_1  and  S1_4
REMARK    2  A    between atoms: S1_4  and  O3_7
REMARK    3  A    between atoms: O3_7  and  C1_8
REMARK    4  A    between atoms: C1_8  and  C2_9
REMARK    5  A    between atoms: C3_10  and  O4_11
REMARK    6  A    between atoms: C4_15  and  N2_16
REMARK    7  A    between atoms: N2_16  and  C5_18
REMARK    8  A    between atoms: C13_26  and  O7_27
REMARK    9  A    between atoms: C14_29  and  O8_30
ROOT
HETATM    1  C2  UNL     1      72.936  28.026  43.325  1.00  0.00     0.100 C
HETATM    2  C3  UNL     1      74.062  28.913  43.864  1.00  0.00     0.302 C
HETATM    3  O5  UNL     1      75.159  28.143  44.185  1.00  0.00    -0.205 OA
HETATM    4  O6  UNL     1      75.901  27.855  43.163  1.00  0.00    -0.210 OA
HETATM    5  C4  UNL     1      75.254  27.046  42.237  1.00  0.00     0.286 C
HETATM    6  C13 UNL     1      74.367  26.029  42.848  1.00  0.00     0.198 C
HETATM    7  C14 UNL     1      73.234  26.623  43.675  1.00  0.00     0.162 C
ENDROOT
BRANCH   5   8
HETATM    8  N2  UNL     1      76.099  26.472  41.245  1.00  0.00    -0.388 N
ATOM      9  H2  UNL     1      75.866  26.508  40.253  1.00  0.00     0.156 HD
BRANCH   8  10
HETATM   10  C5  UNL     1      77.285  25.845  41.717  1.00  0.00     0.079 C
HETATM   11  C6  UNL     1      77.148  24.420  42.200  1.00  0.00     0.025 C
HETATM   12  C7  UNL     1      78.224  24.148  43.255  1.00  0.00     0.002 C
HETATM   13  C8  UNL     1      79.428  23.456  42.645  1.00  0.00     0.000 C
HETATM   14  C9  UNL     1      80.613  24.379  42.467  1.00  0.00     0.000 C
HETATM   15  C10 UNL     1      80.553  24.975  41.096  1.00  0.00     0.000 C
HETATM   16  C11 UNL     1      79.692  26.226  41.147  1.00  0.00     0.002 C
HETATM   17  C12 UNL     1      78.319  25.862  40.601  1.00  0.00     0.025 C
ENDBRANCH   8  10
ENDBRANCH   5   8
BRANCH   6  18
HETATM   18  O7  UNL     1      73.754  25.298  41.807  1.00  0.00    -0.388 OA
ATOM     19  H7  UNL     1      73.015  25.801  41.488  1.00  0.00     0.210 HD
ENDBRANCH   6  18
BRANCH   7  20
HETATM   20  O8  UNL     1      72.109  25.789  43.535  1.00  0.00    -0.392 OA
ATOM     21  H8  UNL     1      72.114  25.072  44.157  1.00  0.00     0.210 HD
ENDBRANCH   7  20
BRANCH   2  22
HETATM   22  O4  UNL     1      74.396  29.909  42.947  1.00  0.00    -0.368 OA
ATOM     23  H4  UNL     1      75.332  29.922  42.783  1.00  0.00     0.212 HD
ENDBRANCH   2  22
BRANCH   1  24
HETATM   24  C1  UNL     1      71.641  28.478  43.958  1.00  0.00     0.204 C
BRANCH  24  25
HETATM   25  O3  UNL     1      70.526  28.250  43.143  1.00  0.00    -0.259 OA
BRANCH  25  26
HETATM   26  S1  UNL     1      69.438  27.383  44.123  1.00  0.00     0.355 S
HETATM   27  O1  UNL     1      68.233  28.223  44.339  1.00  0.00    -0.176 OA
HETATM   28  O2  UNL     1      70.136  27.098  45.437  1.00  0.00    -0.176 OA
BRANCH  26  29
HETATM   29  N1  UNL     1      69.081  25.895  43.367  1.00  0.00    -0.306 N
ATOM     30  H12 UNL     1      68.191  25.712  42.904  1.00  0.00     0.171 HD
ATOM     31  H11 UNL     1      69.846  25.224  43.433  1.00  0.00     0.171 HD
ENDBRANCH  26  29
ENDBRANCH  25  26
ENDBRANCH  24  25
ENDBRANCH   1  24
TORSDOF 9
ENDMDL