MODEL 3
REMARK VINA RESULT: -5.133621471      9.031     11.665
REMARK  13 active torsions:
REMARK  status: ('A' for Active; 'I' for Inactive)
REMARK    1  A    between atoms: O1_2  and  C2_3
REMARK    2  A    between atoms: C3_4  and  O2_5
REMARK    3  A    between atoms: O2_5  and  C4_6
REMARK    4  A    between atoms: C5_8  and  N1_9
REMARK    5  A    between atoms: C7_14  and  N2_15
REMARK    6  A    between atoms: C8_19  and  O4_20
REMARK    7  A    between atoms: O4_20  and  C9_21
REMARK    8  A    between atoms: C10_22  and  N3_23
REMARK    9  A    between atoms: N3_23  and  N4_25
REMARK   10  A    between atoms: N4_25  and  N5_26
REMARK   11  A    between atoms: C12_30  and  N6_31
REMARK   12  A    between atoms: C13_35  and  O5_36
REMARK   13  A    between atoms: C14_38  and  O6_39
ROOT
HETATM    1  C9  UNL     1      68.504  24.361  42.371  1.00  0.00     0.178 C
HETATM    2  C10 UNL     1      69.021  23.028  41.906  1.00  0.00     0.148 C
HETATM    3  C11 UNL     1      69.712  23.051  40.585  1.00  0.00     0.066 C
HETATM    4  C12 UNL     1      70.562  24.270  40.505  1.00  0.00     0.216 C
HETATM    5  C13 UNL     1      69.629  25.443  40.380  1.00  0.00     0.179 C
HETATM    6  C14 UNL     1      68.461  25.403  41.301  1.00  0.00     0.180 C
ENDROOT
BRANCH   1   7
HETATM    7  O4  UNL     1      69.272  24.802  43.396  1.00  0.00    -0.371 OA
BRANCH   7   8
HETATM    8  C8  UNL     1      68.968  24.444  44.678  1.00  0.00     0.184 C
HETATM    9  C2  UNL     1      70.199  24.615  45.494  1.00  0.00     0.183 C
HETATM   10  C3  UNL     1      70.164  25.684  46.530  1.00  0.00     0.193 C
HETATM   11  C5  UNL     1      68.946  25.707  47.391  1.00  0.00     0.217 C
HETATM   12  C6  UNL     1      67.741  25.079  46.757  1.00  0.00     0.071 C
HETATM   13  C7  UNL     1      67.764  25.148  45.252  1.00  0.00     0.217 C
BRANCH   9  14
HETATM   14  O1  UNL     1      70.468  23.378  46.115  1.00  0.00    -0.385 OA
HETATM   15  C1  UNL     1      71.686  23.330  46.722  1.00  0.00     0.202 C
ENDBRANCH   9  14
BRANCH  10  16
HETATM   16  O2  UNL     1      70.374  26.948  45.938  1.00  0.00    -0.318 OA
BRANCH  16  17
HETATM   17  C4  UNL     1      71.090  27.142  44.779  1.00  0.00     0.398 C
HETATM   18  O3  UNL     1      70.492  27.671  43.829  1.00  0.00    -0.276 OA
ENDBRANCH  16  17
ENDBRANCH  10  16
BRANCH  11  19
HETATM   19  N1  UNL     1      69.193  24.980  48.626  1.00  0.00    -0.072 N
ATOM     20  H13 UNL     1      68.537  25.244  49.362  1.00  0.00     0.274 HD
ATOM     21  H12 UNL     1      68.940  23.994  48.547  1.00  0.00     0.274 HD
ATOM     22  H11 UNL     1      70.163  25.103  48.917  1.00  0.00     0.274 HD
ENDBRANCH  11  19
BRANCH  13  23
HETATM   23  N2  UNL     1      67.629  26.524  44.791  1.00  0.00    -0.072 N
ATOM     24  H23 UNL     1      66.684  26.719  44.460  1.00  0.00     0.274 HD
ATOM     25  H22 UNL     1      67.660  27.186  45.566  1.00  0.00     0.274 HD
ATOM     26  H21 UNL     1      68.328  26.742  44.081  1.00  0.00     0.274 HD
ENDBRANCH  13  23
ENDBRANCH   7   8
ENDBRANCH   1   7
BRANCH   2  27
HETATM   27  N3  UNL     1      67.910  22.075  41.718  1.00  0.00    -0.245 N
ATOM     28  H3  UNL     1      68.032  21.212  41.188  1.00  0.00     0.197 HD
BRANCH  27  29
HETATM   29  N4  UNL     1      66.830  22.366  42.229  1.00  0.00    -0.248 NA
BRANCH  29  30
HETATM   30  N5  UNL     1      65.643  22.504  42.550  1.00  0.00    -0.261 N
ATOM     31  H52 UNL     1      65.601  21.539  42.876  1.00  0.00     0.193 HD
ATOM     32  H51 UNL     1      64.693  22.824  42.739  1.00  0.00     0.193 HD
ENDBRANCH  29  30
ENDBRANCH  27  29
ENDBRANCH   2  27
BRANCH   6  33
HETATM   33  O6  UNL     1      68.234  26.686  41.775  1.00  0.00    -0.390 OA
ATOM     34  H6  UNL     1      68.743  27.356  41.333  1.00  0.00     0.210 HD
ENDBRANCH   6  33
BRANCH   5  35
HETATM   35  O5  UNL     1      69.227  25.503  39.044  1.00  0.00    -0.391 OA
ATOM     36  H5  UNL     1      69.848  24.986  38.546  1.00  0.00     0.210 HD
ENDBRANCH   5  35
BRANCH   4  37
HETATM   37  N6  UNL     1      71.563  24.398  41.505  1.00  0.00    -0.072 N
ATOM     38  H63 UNL     1      71.250  25.046  42.228  1.00  0.00     0.274 HD
ATOM     39  H62 UNL     1      71.625  23.536  42.045  1.00  0.00     0.274 HD
ATOM     40  H61 UNL     1      72.490  24.668  41.177  1.00  0.00     0.274 HD
ENDBRANCH   4  37
TORSDOF 13
ENDMDL