MODEL 2
REMARK VINA RESULT: -9.233912712      2.685      6.207
REMARK  11 active torsions:
REMARK  status: ('A' for Active; 'I' for Inactive)
REMARK    1  A    between atoms: C2_2  and  C4_4
REMARK    2  A    between atoms: C4_4  and  N1_5
REMARK    3  A    between atoms: C4_4  and  C19_26
REMARK       I    between atoms: N1_5  and  C5_7
REMARK    4  A    between atoms: C5_7  and  C6_9
REMARK    5  A    between atoms: C6_9  and  N2_10
REMARK    6  A    between atoms: C6_9  and  C12_19
REMARK       I    between atoms: N2_10  and  C7_12
REMARK    7  A    between atoms: C7_12  and  O3_14
REMARK    8  A    between atoms: O3_14  and  C8_15
REMARK    9  A    between atoms: C19_26  and  C20_28
REMARK   10  A    between atoms: C21_29  and  C22_30
REMARK       I    between atoms: C22_30  and  N3_32
REMARK   11  A    between atoms: N3_32  and  C23_34
ROOT
HETATM    1  C4  UNL     1      21.156  -3.503  15.742  1.00  0.00     0.160 C
ENDROOT
BRANCH   1   2
HETATM    2  C2  UNL     1      21.928  -2.895  16.899  1.00  0.00     0.007 C
HETATM    3  C1  UNL     1      22.639  -1.624  16.548  1.00  0.00     0.012 C
HETATM    4  C3  UNL     1      21.202  -2.836  18.188  1.00  0.00     0.012 C
ENDBRANCH   1   2
BRANCH   1   5
HETATM    5  N1  UNL     1      19.727  -3.557  16.095  1.00  0.00    -0.347 N
HETATM    6  C5  UNL     1      18.762  -3.051  15.206  1.00  0.00     0.242 C
HETATM    7  O1  UNL     1      19.256  -2.575  14.105  1.00  0.00    -0.271 OA
ATOM      8  H1  UNL     1      19.437  -3.961  16.986  1.00  0.00     0.163 HD
BRANCH   6   9
HETATM    9  C6  UNL     1      17.303  -3.010  15.379  1.00  0.00     0.187 C
BRANCH   9  10
HETATM   10  N2  UNL     1      17.043  -2.531  16.751  1.00  0.00    -0.323 N
HETATM   11  C7  UNL     1      17.733  -1.458  17.323  1.00  0.00     0.362 C
HETATM   12  O2  UNL     1      18.637  -0.793  16.736  1.00  0.00    -0.238 OA
ATOM     13  H2  UNL     1      16.329  -3.004  17.306  1.00  0.00     0.165 HD
BRANCH  11  14
HETATM   14  O3  UNL     1      17.429  -1.071  18.617  1.00  0.00    -0.294 OA
BRANCH  14  15
HETATM   15  C8  UNL     1      17.875   0.132  19.181  1.00  0.00     0.061 C
HETATM   16  C9  UNL     1      19.352   0.200  19.398  1.00  0.00     0.046 C
HETATM   17  C10 UNL     1      17.455   1.338  18.361  1.00  0.00     0.046 C
HETATM   18  C11 UNL     1      17.159   0.266  20.533  1.00  0.00     0.046 C
ENDBRANCH  14  15
ENDBRANCH  11  14
ENDBRANCH   9  10
BRANCH   9  19
HETATM   19  C12 UNL     1      16.692  -4.400  15.225  1.00  0.00    -0.015 C
HETATM   20  C13 UNL     1      17.296  -5.265  16.307  1.00  0.00     0.018 C
HETATM   21  C14 UNL     1      15.239  -4.288  15.521  1.00  0.00     0.012 C
HETATM   22  C15 UNL     1      14.292  -4.813  14.486  1.00  0.00     0.001 C
HETATM   23  C16 UNL     1      14.799  -6.124  13.924  1.00  0.00     0.000 C
HETATM   24  C17 UNL     1      16.043  -5.750  13.161  1.00  0.00     0.001 C
HETATM   25  C18 UNL     1      17.071  -5.025  13.924  1.00  0.00     0.012 C
ENDBRANCH   9  19
ENDBRANCH   6   9
ENDBRANCH   1   5
BRANCH   1  26
HETATM   26  C19 UNL     1      21.635  -4.842  15.351  1.00  0.00     0.175 C
HETATM   27  O4  UNL     1      22.540  -5.344  16.036  1.00  0.00    -0.293 OA
BRANCH  26  28
HETATM   28  C20 UNL     1      21.113  -5.605  14.222  1.00  0.00     0.192 C
HETATM   29  C21 UNL     1      20.435  -6.901  14.677  1.00  0.00     0.208 C
HETATM   30  N4  UNL     1      21.560  -7.799  14.926  1.00  0.00    -0.327 N
HETATM   31  C29 UNL     1      22.562  -7.444  13.988  1.00  0.00     0.319 C
ATOM     32  H4  UNL     1      21.614  -8.534  15.631  1.00  0.00     0.165 HD
HETATM   33  O6  UNL     1      23.537  -8.169  13.715  1.00  0.00    -0.247 OA
HETATM   34  N5  UNL     1      22.238  -6.186  13.469  1.00  0.00    -0.324 N
HETATM   35  C30 UNL     1      22.888  -5.521  12.360  1.00  0.00     0.155 C
BRANCH  29  36
HETATM   36  C22 UNL     1      19.660  -7.490  13.565  1.00  0.00     0.243 C
HETATM   37  O5  UNL     1      19.494  -6.870  12.473  1.00  0.00    -0.271 OA
HETATM   38  N3  UNL     1      19.055  -8.775  13.631  1.00  0.00    -0.355 N
ATOM     39  H3  UNL     1      19.164  -9.312  14.492  1.00  0.00     0.162 HD
BRANCH  38  40
HETATM   40  C23 UNL     1      18.301  -9.363  12.562  1.00  0.00     0.084 C
HETATM   41  C24 UNL     1      16.825  -9.136  12.633  1.00  0.00     0.025 C
HETATM   42  C25 UNL     1      16.270  -9.811  13.871  1.00  0.00     0.002 C
HETATM   43  C26 UNL     1      16.501 -11.298  13.719  1.00  0.00     0.000 C
HETATM   44  C27 UNL     1      17.979 -11.628  13.611  1.00  0.00     0.002 C
HETATM   45  C28 UNL     1      18.635 -10.848  12.491  1.00  0.00     0.025 C
ENDBRANCH  38  40
ENDBRANCH  29  36
ENDBRANCH  26  28
ENDBRANCH   1  26
TORSDOF 11
ENDMDL