MODEL 1
REMARK VINA RESULT: -9.445575333      0.000      0.000
REMARK  13 active torsions:
REMARK  status: ('A' for Active; 'I' for Inactive)
REMARK    1  A    between atoms: C2_2  and  C4_4
REMARK    2  A    between atoms: C4_4  and  C5_5
REMARK    3  A    between atoms: C5_5  and  N1_6
REMARK    4  A    between atoms: C5_5  and  C15_22
REMARK       I    between atoms: N1_6  and  C6_8
REMARK    5  A    between atoms: C6_8  and  C7_10
REMARK    6  A    between atoms: C7_10  and  N2_12
REMARK       I    between atoms: N2_12  and  C9_14
REMARK    7  A    between atoms: C9_14  and  O3_16
REMARK    8  A    between atoms: O3_16  and  C10_17
REMARK       I    between atoms: C15_22  and  N3_24
REMARK    9  A    between atoms: C18_27  and  C19_28
REMARK   10  A    between atoms: C19_28  and  N4_29
REMARK   11  A    between atoms: C19_28  and  C25_38
REMARK       I    between atoms: N4_29  and  C20_31
REMARK   12  A    between atoms: C20_31  and  O6_33
REMARK   13  A    between atoms: O6_33  and  C21_34
ROOT
HETATM    1  C15 UNL     1      18.878  -2.681  15.774  1.00  0.00     0.243 C
HETATM    2  O4  UNL     1      18.992  -2.361  14.529  1.00  0.00    -0.271 OA
HETATM    3  N3  UNL     1      19.136  -1.663  16.679  1.00  0.00    -0.346 N
HETATM    4  C16 UNL     1      19.137  -1.835  18.100  1.00  0.00     0.127 C
HETATM    5  C17 UNL     1      18.174  -0.766  18.630  1.00  0.00     0.026 C
HETATM    6  C18 UNL     1      18.875   0.524  18.545  1.00  0.00     0.012 C
HETATM    7  C28 UNL     1      19.719   0.642  17.302  1.00  0.00     0.031 C
HETATM    8  C29 UNL     1      19.410  -0.324  16.206  1.00  0.00     0.083 C
HETATM    9  C30 UNL     1      20.643  -0.404  15.315  1.00  0.00     0.032 C
ENDROOT
BRANCH   1  10
HETATM   10  C5  UNL     1      18.491  -4.086  16.068  1.00  0.00     0.177 C
BRANCH  10  11
HETATM   11  C4  UNL     1      17.017  -4.249  16.183  1.00  0.00     0.038 C
BRANCH  11  12
HETATM   12  C2  UNL     1      16.347  -5.243  15.319  1.00  0.00    -0.020 C
HETATM   13  C1  UNL     1      16.384  -6.581  16.108  1.00  0.00     0.009 C
HETATM   14  C3  UNL     1      14.931  -5.036  14.941  1.00  0.00     0.009 C
ENDBRANCH  11  12
ENDBRANCH  10  11
BRANCH  10  15
HETATM   15  N1  UNL     1      19.090  -4.951  15.094  1.00  0.00    -0.346 N
HETATM   16  C6  UNL     1      20.421  -5.425  15.090  1.00  0.00     0.240 C
HETATM   17  O1  UNL     1      21.222  -5.090  15.977  1.00  0.00    -0.271 OA
ATOM     18  H1  UNL     1      18.494  -5.256  14.325  1.00  0.00     0.163 HD
BRANCH  16  19
HETATM   19  C7  UNL     1      20.902  -6.345  14.018  1.00  0.00     0.174 C
HETATM   20  C8  UNL     1      22.329  -6.798  14.208  1.00  0.00     0.042 C
BRANCH  19  21
HETATM   21  N2  UNL     1      20.016  -7.450  13.789  1.00  0.00    -0.324 N
HETATM   22  C9  UNL     1      19.058  -7.459  12.757  1.00  0.00     0.361 C
HETATM   23  O2  UNL     1      18.957  -6.459  12.005  1.00  0.00    -0.238 OA
ATOM     24  H2  UNL     1      20.083  -8.264  14.400  1.00  0.00     0.165 HD
BRANCH  22  25
HETATM   25  O3  UNL     1      18.211  -8.541  12.536  1.00  0.00    -0.299 OA
BRANCH  25  26
HETATM   26  C10 UNL     1      16.907  -8.622  13.076  1.00  0.00     0.133 C
HETATM   27  C11 UNL     1      16.197  -9.868  12.691  1.00  0.00     0.032 C
HETATM   28  C12 UNL     1      14.807  -9.533  12.224  1.00  0.00     0.002 C
HETATM   29  C13 UNL     1      14.676  -8.027  12.481  1.00  0.00     0.002 C
HETATM   30  C14 UNL     1      16.097  -7.518  12.390  1.00  0.00     0.032 C
ENDBRANCH  25  26
ENDBRANCH  22  25
ENDBRANCH  19  21
ENDBRANCH  16  19
ENDBRANCH  10  15
ENDBRANCH   1  10
BRANCH   6  31
HETATM   31  C19 UNL     1      19.620   1.008  19.760  1.00  0.00     0.098 C
BRANCH  31  32
HETATM   32  N4  UNL     1      20.922   1.581  19.323  1.00  0.00    -0.331 N
HETATM   33  C20 UNL     1      22.060   0.728  19.301  1.00  0.00     0.361 C
HETATM   34  O5  UNL     1      21.988  -0.492  19.640  1.00  0.00    -0.238 OA
ATOM     35  H4  UNL     1      20.997   2.560  19.047  1.00  0.00     0.165 HD
BRANCH  33  36
HETATM   36  O6  UNL     1      23.319   1.154  18.913  1.00  0.00    -0.294 OA
BRANCH  36  37
HETATM   37  C21 UNL     1      24.501   0.882  19.590  1.00  0.00     0.061 C
HETATM   38  C22 UNL     1      25.386   2.132  19.493  1.00  0.00     0.046 C
HETATM   39  C23 UNL     1      24.319   0.640  21.072  1.00  0.00     0.046 C
HETATM   40  C24 UNL     1      25.266  -0.239  18.972  1.00  0.00     0.046 C
ENDBRANCH  36  37
ENDBRANCH  33  36
ENDBRANCH  31  32
BRANCH  31  41
HETATM   41  C25 UNL     1      18.993   2.109  20.530  1.00  0.00     0.060 C
HETATM   42  C26 UNL     1      17.731   2.747  20.103  1.00  0.00     0.240 C
HETATM   43  N5  UNL     1      17.400   2.859  21.545  1.00  0.00    -0.074 N
HETATM   44  C27 UNL     1      18.104   1.563  21.656  1.00  0.00     0.240 C
ATOM     45  H52 UNL     1      17.655   3.672  22.104  1.00  0.00     0.277 HD
ATOM     46  H51 UNL     1      16.446   2.995  21.879  1.00  0.00     0.277 HD
ENDBRANCH  31  41
ENDBRANCH   6  31
TORSDOF 13
ENDMDL