MODEL 2
REMARK VINA RESULT: -10.611281431      1.371      4.189
REMARK  12 active torsions:
REMARK  status: ('A' for Active; 'I' for Inactive)
REMARK    1  A    between atoms: C1_4  and  C2_6
REMARK    2  A    between atoms: C5_9  and  O1_10
REMARK    3  A    between atoms: O1_10  and  C6_11
REMARK    4  A    between atoms: N3_14  and  C9_15
REMARK    5  A    between atoms: N4_18  and  C12_19
REMARK    6  A    between atoms: C12_19  and  O2_20
REMARK    7  A    between atoms: C12_19  and  C13_22
REMARK    8  A    between atoms: C13_22  and  C14_23
REMARK    9  A    between atoms: C13_22  and  N5_30
REMARK   10  A    between atoms: C14_23  and  C15_24
REMARK       I    between atoms: N5_30  and  C21_32
REMARK   11  A    between atoms: C21_32  and  C22_34
REMARK   12  A    between atoms: C22_34  and  N6_35
ROOT
HETATM    1  C12 UNL     1      19.177   0.177  16.856  1.00  0.00     0.137 C
ENDROOT
BRANCH   1   2
HETATM    2  N4  UNL     1      19.265  -1.065  16.199  1.00  0.00    -0.364 N
HETATM    3  C11 UNL     1      18.243  -2.065  16.427  1.00  0.00     0.127 C
HETATM    4  C10 UNL     1      19.011  -3.283  16.972  1.00  0.00     0.055 C
HETATM    5  C9  UNL     1      19.895  -3.811  15.858  1.00  0.00     0.226 C
HETATM    6  C29 UNL     1      20.168  -2.837  14.772  1.00  0.00     0.055 C
HETATM    7  C28 UNL     1      20.355  -1.423  15.351  1.00  0.00     0.127 C
BRANCH   5   8
HETATM    8  N3  UNL     1      19.253  -5.025  15.389  1.00  0.00     0.093 N
HETATM    9  C8  UNL     1      18.103  -5.396  16.178  1.00  0.00     0.275 C
HETATM   10  C7  UNL     1      16.815  -5.284  15.432  1.00  0.00     0.062 C
HETATM   11  C6  UNL     1      16.797  -6.136  14.176  1.00  0.00     0.132 C
HETATM   12  C31 UNL     1      18.142  -5.994  13.483  1.00  0.00     0.062 C
HETATM   13  C30 UNL     1      18.819  -4.773  14.014  1.00  0.00     0.275 C
BRANCH  11  14
HETATM   14  O1  UNL     1      16.521  -7.470  14.437  1.00  0.00    -0.346 OA
BRANCH  14  15
HETATM   15  C5  UNL     1      16.131  -8.429  13.555  1.00  0.00     0.069 A
HETATM   16  C4  UNL     1      15.178  -8.084  12.593  1.00  0.00     0.037 A
HETATM   17  C3  UNL     1      14.736  -8.999  11.666  1.00  0.00     0.017 A
HETATM   18  C2  UNL     1      15.242 -10.293  11.682  1.00  0.00     0.005 A
HETATM   19  C33 UNL     1      16.188 -10.655  12.626  1.00  0.00     0.017 A
HETATM   20  C32 UNL     1      16.607  -9.719  13.536  1.00  0.00     0.037 A
BRANCH  18  21
HETATM   21  C1  UNL     1      14.825 -11.313  10.739  1.00  0.00     0.120 C
HETATM   22  N1  UNL     1      14.429 -11.018   9.567  1.00  0.00    -0.387 N
ATOM     23  H12 UNL     1      14.136 -11.736   8.905  1.00  0.00     0.157 HD
ATOM     24  H11 UNL     1      14.412 -10.032   9.305  1.00  0.00     0.157 HD
HETATM   25  N2  UNL     1      14.849 -12.676  11.102  1.00  0.00    -0.082 NA
ENDBRANCH  18  21
ENDBRANCH  14  15
ENDBRANCH  11  14
ENDBRANCH   5   8
ENDBRANCH   1   2
BRANCH   1  26
HETATM   26  O2  UNL     1      18.799   1.179  16.110  1.00  0.00    -0.348 OA
ATOM     27  H2  UNL     1      17.967   1.065  15.666  1.00  0.00     0.219 HD
ENDBRANCH   1  26
BRANCH   1  28
HETATM   28  C13 UNL     1      19.440   0.493  18.244  1.00  0.00     0.159 C
BRANCH  28  29
HETATM   29  C14 UNL     1      18.632  -0.083  19.330  1.00  0.00     0.038 C
BRANCH  29  30
HETATM   30  C15 UNL     1      17.376   0.516  19.782  1.00  0.00    -0.012 C
HETATM   31  C16 UNL     1      17.285   0.472  21.323  1.00  0.00     0.005 C
HETATM   32  C17 UNL     1      18.128   1.513  21.978  1.00  0.00     0.000 C
HETATM   33  C18 UNL     1      17.701   2.916  21.583  1.00  0.00     0.000 C
HETATM   34  C19 UNL     1      17.853   2.990  20.079  1.00  0.00     0.000 C
HETATM   35  C20 UNL     1      17.075   1.922  19.387  1.00  0.00     0.005 C
ENDBRANCH  29  30
ENDBRANCH  28  29
BRANCH  28  36
HETATM   36  N5  UNL     1      20.869   0.176  18.477  1.00  0.00    -0.347 N
HETATM   37  C21 UNL     1      21.675   0.999  19.273  1.00  0.00     0.254 C
HETATM   38  O3  UNL     1      21.162   2.040  19.807  1.00  0.00    -0.271 OA
ATOM     39  H5  UNL     1      21.273  -0.657  18.048  1.00  0.00     0.163 HD
BRANCH  37  40
HETATM   40  C22 UNL     1      23.102   0.733  19.538  1.00  0.00     0.203 C
HETATM   41  C23 UNL     1      23.816   2.073  19.652  1.00  0.00     0.049 C
HETATM   42  C24 UNL     1      25.248   1.733  20.089  1.00  0.00     0.003 C
HETATM   43  C25 UNL     1      25.897   1.057  18.913  1.00  0.00     0.000 C
HETATM   44  C26 UNL     1      25.180  -0.177  18.464  1.00  0.00     0.003 C
HETATM   45  C27 UNL     1      23.699  -0.031  18.403  1.00  0.00     0.049 C
BRANCH  40  46
HETATM   46  N6  UNL     1      23.244   0.065  20.812  1.00  0.00    -0.061 N
ATOM     47  H63 UNL     1      23.095   0.699  21.596  1.00  0.00     0.275 HD
ATOM     48  H62 UNL     1      22.476  -0.580  20.995  1.00  0.00     0.275 HD
ATOM     49  H61 UNL     1      24.153  -0.396  20.859  1.00  0.00     0.275 HD
ENDBRANCH  40  46
ENDBRANCH  37  40
ENDBRANCH  28  36
ENDBRANCH   1  28
TORSDOF 12
ENDMDL