MODEL 3
REMARK VINA RESULT: -8.829250625      2.946     10.932
REMARK  16 active torsions:
REMARK  status: ('A' for Active; 'I' for Inactive)
REMARK    1  A    between atoms: C2_2  and  C5_5
REMARK    2  A    between atoms: C5_5  and  C6_6
REMARK    3  A    between atoms: C6_6  and  O1_7
REMARK    4  A    between atoms: C13_16  and  C14_17
REMARK    5  A    between atoms: C14_17  and  O2_18
REMARK    6  A    between atoms: C14_17  and  N2_20
REMARK    7  A    between atoms: N2_20  and  O3_21
REMARK    8  A    between atoms: N2_20  and  C15_23
REMARK    9  A    between atoms: C15_23  and  C16_24
REMARK   10  A    between atoms: N3_27  and  C19_28
REMARK   11  A    between atoms: C19_28  and  C20_29
REMARK   12  A    between atoms: C20_29  and  C21_30
REMARK   13  A    between atoms: C21_30  and  C22_31
REMARK   14  A    between atoms: C22_31  and  C23_32
REMARK   15  A    between atoms: C23_32  and  N4_33
REMARK   16  A    between atoms: C23_32  and  C24_37
ROOT
HETATM    1  C16 UNL     1      21.346  -3.678  15.327  1.00  0.00     0.015 C
HETATM    2  C17 UNL     1      20.323  -2.997  14.429  1.00  0.00     0.051 C
HETATM    3  C18 UNL     1      18.998  -3.069  15.083  1.00  0.00     0.068 C
HETATM    4  N3  UNL     1      18.609  -4.271  15.690  1.00  0.00    -0.354 N
HETATM    5  C32 UNL     1      19.506  -5.318  15.869  1.00  0.00     0.068 C
HETATM    6  C33 UNL     1      20.911  -5.111  15.440  1.00  0.00     0.051 C
ENDROOT
BRANCH   1   7
HETATM    7  C15 UNL     1      21.449  -2.982  16.678  1.00  0.00     0.163 C
BRANCH   7   8
HETATM    8  N2  UNL     1      21.802  -1.614  16.595  1.00  0.00    -0.241 N
BRANCH   8   9
HETATM    9  C14 UNL     1      21.136  -0.415  16.728  1.00  0.00     0.151 C
BRANCH   9  10
HETATM   10  C13 UNL     1      20.187   0.025  17.726  1.00  0.00     0.085 C
HETATM   11  C6  UNL     1      20.901   0.908  18.790  1.00  0.00     0.081 C
HETATM   12  C7  UNL     1      19.853   1.448  19.683  1.00  0.00     0.050 C
HETATM   13  C8  UNL     1      19.018   0.377  20.354  1.00  0.00     0.015 C
HETATM   14  C11 UNL     1      18.822   2.279  18.904  1.00  0.00     0.280 C
HETATM   15  C9  UNL     1      18.372  -0.494  19.337  1.00  0.00     0.016 C
HETATM   16  C10 UNL     1      17.409   0.383  18.522  1.00  0.00     0.277 C
HETATM   17  C34 UNL     1      19.417  -1.071  18.370  1.00  0.00     0.029 C
HETATM   18  N1  UNL     1      18.180   1.463  17.927  1.00  0.00     0.090 N
HETATM   19  C12 UNL     1      19.137   0.901  17.034  1.00  0.00     0.293 C
BRANCH  11  20
HETATM   20  C5  UNL     1      21.909   0.052  19.450  1.00  0.00     0.048 C
BRANCH  20  21
HETATM   21  C2  UNL     1      23.240   0.532  19.773  1.00  0.00    -0.049 C
HETATM   22  C1  UNL     1      23.423   1.975  20.144  1.00  0.00     0.014 C
HETATM   23  C3  UNL     1      23.738  -0.248  21.017  1.00  0.00     0.014 C
HETATM   24  C4  UNL     1      24.318   0.233  18.746  1.00  0.00     0.014 C
ENDBRANCH  20  21
ENDBRANCH  11  20
BRANCH  11  25
HETATM   25  O1  UNL     1      21.447   1.934  18.039  1.00  0.00    -0.388 OA
ATOM     26  H1  UNL     1      21.739   1.664  17.177  1.00  0.00     0.210 HD
ENDBRANCH  11  25
ENDBRANCH   9  10
BRANCH   9  27
HETATM   27  O2  UNL     1      21.447   0.445  15.763  1.00  0.00    -0.347 OA
ATOM     28  H2  UNL     1      21.950   0.112  15.028  1.00  0.00     0.219 HD
ENDBRANCH   9  27
ENDBRANCH   8   9
BRANCH   8  29
HETATM   29  O3  UNL     1      23.192  -1.465  16.305  1.00  0.00    -0.286 OA
ATOM     30  H3  UNL     1      23.682  -2.277  16.368  1.00  0.00     0.244 HD
ENDBRANCH   8  29
ENDBRANCH   7   8
ENDBRANCH   1   7
BRANCH   4  31
HETATM   31  C19 UNL     1      17.269  -4.384  16.103  1.00  0.00     0.068 C
BRANCH  31  32
HETATM   32  C20 UNL     1      16.516  -3.105  15.844  1.00  0.00     0.045 C
BRANCH  32  33
HETATM   33  C21 UNL     1      15.061  -3.335  15.484  1.00  0.00     0.007 C
BRANCH  33  34
HETATM   34  C22 UNL     1      14.887  -4.051  14.161  1.00  0.00     0.038 C
BRANCH  34  35
HETATM   35  C23 UNL     1      14.096  -5.308  14.306  1.00  0.00     0.216 C
BRANCH  35  36
HETATM   36  N4  UNL     1      12.836  -5.151  13.588  1.00  0.00    -0.071 N
ATOM     37  H43 UNL     1      12.950  -4.659  12.701  1.00  0.00     0.275 HD
ATOM     38  H42 UNL     1      12.485  -6.033  13.216  1.00  0.00     0.275 HD
ATOM     39  H41 UNL     1      12.165  -4.692  14.206  1.00  0.00     0.275 HD
ENDBRANCH  35  36
BRANCH  35  40
HETATM   40  C24 UNL     1      14.817  -6.403  13.577  1.00  0.00    -0.027 A
HETATM   41  C25 UNL     1      16.173  -6.408  13.405  1.00  0.00     0.011 A
HETATM   42  C26 UNL     1      16.807  -7.441  12.721  1.00  0.00     0.031 A
HETATM   43  C27 UNL     1      16.087  -8.490  12.200  1.00  0.00     0.042 A
HETATM   44  N5  UNL     1      16.433  -9.611  11.500  1.00  0.00    -0.365 N
HETATM   45  C30 UNL     1      14.724  -8.481  12.376  1.00  0.00    -0.008 A
HETATM   46  C28 UNL     1      15.316 -10.313  11.231  1.00  0.00     0.089 A
ATOM     47  H5  UNL     1      17.380  -9.874  11.227  1.00  0.00     0.165 HD
HETATM   48  C29 UNL     1      14.246  -9.632  11.763  1.00  0.00     0.030 A
HETATM   49  C31 UNL     1      14.082  -7.465  13.049  1.00  0.00     0.023 A
ENDBRANCH  35  40
ENDBRANCH  34  35
ENDBRANCH  33  34
ENDBRANCH  32  33
ENDBRANCH  31  32
ENDBRANCH   4  31
TORSDOF 16
ENDMDL