MODEL 5
REMARK VINA RESULT: -9.063186624      2.352      4.695
REMARK  13 active torsions:
REMARK  status: ('A' for Active; 'I' for Inactive)
REMARK    1  A    between atoms: C4_5  and  C5_6
REMARK    2  A    between atoms: C5_6  and  C6_8
REMARK    3  A    between atoms: C6_8  and  O2_9
REMARK    4  A    between atoms: C6_8  and  N2_11
REMARK    5  A    between atoms: N2_11  and  C7_14
REMARK    6  A    between atoms: C7_14  and  C8_15
REMARK    7  A    between atoms: C7_14  and  C14_21
REMARK    8  A    between atoms: C8_15  and  C9_16
REMARK    9  A    between atoms: C14_21  and  C15_23
REMARK   10  A    between atoms: C20_28  and  C21_29
REMARK       I    between atoms: C21_29  and  N3_31
REMARK   11  A    between atoms: N3_31  and  C22_33
REMARK   12  A    between atoms: C26_40  and  C27_41
REMARK   13  A    between atoms: C27_41  and  C28_42
ROOT
HETATM    1  N2  UNL     1      19.345  -4.405  16.814  1.00  0.00    -0.031 N
ATOM      2  H21 UNL     1      18.662  -4.804  17.457  1.00  0.00     0.281 HD
ATOM      3  H22 UNL     1      20.169  -4.916  17.130  1.00  0.00     0.281 HD
ENDROOT
BRANCH   1   4
HETATM    4  C6  UNL     1      19.493  -2.977  17.002  1.00  0.00     0.392 C
BRANCH   4   5
HETATM    5  C5  UNL     1      20.512  -2.767  18.081  1.00  0.00     0.213 C
HETATM    6  O1  UNL     1      20.678  -3.672  18.869  1.00  0.00    -0.291 OA
BRANCH   5   7
HETATM    7  C4  UNL     1      21.287  -1.492  18.173  1.00  0.00     0.262 C
HETATM    8  C3  UNL     1      21.831  -1.059  16.857  1.00  0.00     0.061 C
HETATM    9  C2  UNL     1      23.262  -0.595  17.014  1.00  0.00     0.128 C
HETATM   10  N1  UNL     1      23.454  -0.014  18.351  1.00  0.00    -0.355 N
HETATM   11  C1  UNL     1      24.780   0.144  18.873  1.00  0.00     0.152 C
HETATM   12  C32 UNL     1      22.411   0.427  19.247  1.00  0.00     0.250 C
HETATM   13  C26 UNL     1      21.069   0.834  18.727  1.00  0.00     0.278 C
HETATM   14  O5  UNL     1      22.664   0.452  20.454  1.00  0.00    -0.271 OA
HETATM   15  N4  UNL     1      20.361  -0.466  18.664  1.00  0.00    -0.051 N
ATOM     16  H42 UNL     1      19.507  -0.416  18.109  1.00  0.00     0.279 HD
ATOM     17  H41 UNL     1      19.937  -0.722  19.556  1.00  0.00     0.279 HD
BRANCH  13  18
HETATM   18  C27 UNL     1      20.298   1.720  19.638  1.00  0.00     0.051 C
BRANCH  18  19
HETATM   19  C28 UNL     1      18.831   1.794  19.474  1.00  0.00    -0.049 C
HETATM   20  C29 UNL     1      18.094   1.061  20.597  1.00  0.00     0.014 C
HETATM   21  C30 UNL     1      18.216   1.435  18.169  1.00  0.00     0.014 C
HETATM   22  C31 UNL     1      18.456   3.291  19.684  1.00  0.00     0.014 C
ENDBRANCH  18  19
ENDBRANCH  13  18
ENDBRANCH   5   7
ENDBRANCH   4   5
BRANCH   4  23
HETATM   23  O2  UNL     1      18.279  -2.381  17.359  1.00  0.00    -0.364 OA
ATOM     24  H2  UNL     1      17.551  -2.925  17.083  1.00  0.00     0.212 HD
ENDBRANCH   4  23
ENDBRANCH   1   4
BRANCH   1  25
HETATM   25  C7  UNL     1      19.011  -4.713  15.379  1.00  0.00     0.259 C
BRANCH  25  26
HETATM   26  C8  UNL     1      20.097  -5.678  15.009  1.00  0.00     0.045 C
BRANCH  26  27
HETATM   27  C9  UNL     1      21.044  -5.288  13.940  1.00  0.00    -0.012 C
HETATM   28  C10 UNL     1      22.288  -6.206  14.018  1.00  0.00     0.005 C
HETATM   29  C11 UNL     1      23.357  -5.429  14.705  1.00  0.00     0.000 C
HETATM   30  C12 UNL     1      22.761  -4.163  15.221  1.00  0.00     0.000 C
HETATM   31  C13 UNL     1      21.667  -3.910  14.197  1.00  0.00     0.005 C
ENDBRANCH  26  27
ENDBRANCH  25  26
BRANCH  25  32
HETATM   32  C14 UNL     1      17.661  -5.319  15.475  1.00  0.00     0.162 C
HETATM   33  O3  UNL     1      17.635  -6.333  16.208  1.00  0.00    -0.295 OA
BRANCH  32  34
HETATM   34  C15 UNL     1      16.412  -4.893  14.857  1.00  0.00     0.070 C
HETATM   35  C16 UNL     1      15.814  -3.693  15.476  1.00  0.00     0.013 C
HETATM   36  C17 UNL     1      14.517  -3.253  14.842  1.00  0.00     0.001 C
HETATM   37  C18 UNL     1      14.161  -4.158  13.659  1.00  0.00     0.001 C
HETATM   38  C19 UNL     1      14.077  -5.545  14.196  1.00  0.00     0.015 C
HETATM   39  C20 UNL     1      15.429  -6.015  14.598  1.00  0.00     0.089 C
BRANCH  39  40
HETATM   40  C21 UNL     1      15.992  -7.017  13.656  1.00  0.00     0.223 C
HETATM   41  O4  UNL     1      16.201  -6.780  12.440  1.00  0.00    -0.273 OA
HETATM   42  N3  UNL     1      16.328  -8.338  14.116  1.00  0.00    -0.353 N
ATOM     43  H3  UNL     1      16.170  -8.570  15.097  1.00  0.00     0.163 HD
BRANCH  42  44
HETATM   44  C22 UNL     1      16.879  -9.345  13.246  1.00  0.00     0.022 C
HETATM   45  C23 UNL     1      18.302  -8.915  12.898  1.00  0.00     0.037 C
HETATM   46  C24 UNL     1      16.870 -10.670  13.961  1.00  0.00     0.037 C
HETATM   47  C25 UNL     1      16.074  -9.472  11.962  1.00  0.00     0.037 C
ENDBRANCH  42  44
ENDBRANCH  39  40
ENDBRANCH  32  34
ENDBRANCH  25  32
ENDBRANCH   1  25
TORSDOF 13
ENDMDL