MODEL 3
REMARK VINA RESULT: -8.449148321      1.563      2.384
REMARK  12 active torsions:
REMARK  status: ('A' for Active; 'I' for Inactive)
REMARK    1  A    between atoms: C2_2  and  C3_3
REMARK    2  A    between atoms: C3_3  and  C5_5
REMARK    3  A    between atoms: C17_17  and  O1_18
REMARK    4  A    between atoms: C20_22  and  O2_23
REMARK    5  A    between atoms: O2_23  and  C21_24
REMARK    6  A    between atoms: C21_24  and  C22_25
REMARK    7  A    between atoms: C22_25  and  C23_26
REMARK    8  A    between atoms: C23_26  and  N1_27
REMARK       I    between atoms: N1_27  and  C24_29
REMARK       I    between atoms: C24_29  and  N4_34
REMARK    9  A    between atoms: N4_34  and  C26_36
REMARK   10  A    between atoms: C27_37  and  O3_38
REMARK   11  A    between atoms: C27_37  and  N5_40
REMARK   12  A    between atoms: C31_44  and  O4_45
ROOT
HETATM    1  N1  UNL     1      20.750   0.264  17.454  1.00  0.00    -0.225 N
ATOM      2  H1  UNL     1      20.416   1.029  16.867  1.00  0.00     0.177 HD
HETATM    3  C24 UNL     1      22.067   0.296  17.960  1.00  0.00     0.687 C
HETATM    4  N2  UNL     1      22.979  -0.448  17.510  1.00  0.00    -0.126 N
ATOM      5  H2  UNL     1      22.777  -1.101  16.754  1.00  0.00     0.197 HD
HETATM    6  C25 UNL     1      24.263  -0.376  18.046  1.00  0.00     0.196 C
HETATM    7  N3  UNL     1      25.322  -0.310  18.508  1.00  0.00    -0.171 NA
HETATM    8  N4  UNL     1      22.340   1.242  19.033  1.00  0.00    -0.197 N
ATOM      9  H4  UNL     1      23.293   1.432  19.341  1.00  0.00     0.183 HD
ENDROOT
BRANCH   1  10
HETATM   10  C23 UNL     1      19.877  -0.831  17.755  1.00  0.00     0.140 C
BRANCH  10  11
HETATM   11  C22 UNL     1      19.360  -1.511  16.523  1.00  0.00     0.046 C
BRANCH  11  12
HETATM   12  C21 UNL     1      19.966  -0.855  15.305  1.00  0.00     0.169 C
BRANCH  12  13
HETATM   13  O2  UNL     1      20.083  -1.817  14.311  1.00  0.00    -0.385 OA
BRANCH  13  14
HETATM   14  C20 UNL     1      19.663  -3.062  14.687  1.00  0.00     0.129 C
HETATM   15  C19 UNL     1      20.789  -4.029  14.613  1.00  0.00     0.026 C
HETATM   16  C13 UNL     1      20.366  -5.254  15.385  1.00  0.00    -0.031 C
HETATM   17  C18 UNL     1      22.135  -3.526  14.964  1.00  0.00     0.039 C
HETATM   18  C12 UNL     1      18.939  -5.635  15.240  1.00  0.00     0.029 C
HETATM   19  C14 UNL     1      20.675  -4.988  16.866  1.00  0.00     0.016 C
HETATM   20  C15 UNL     1      21.347  -6.359  14.984  1.00  0.00     0.012 C
HETATM   21  C11 UNL     1      18.187  -5.583  16.546  1.00  0.00     0.009 C
HETATM   22  C31 UNL     1      18.219  -5.057  14.063  1.00  0.00     0.069 C
HETATM   23  C10 UNL     1      16.772  -6.119  16.367  1.00  0.00     0.010 C
HETATM   24  C8  UNL     1      16.031  -5.412  15.326  1.00  0.00    -0.037 C
HETATM   25  C7  UNL     1      14.770  -6.133  14.915  1.00  0.00     0.010 C
HETATM   26  C9  UNL     1      15.549  -4.084  15.942  1.00  0.00     0.015 C
HETATM   27  C32 UNL     1      16.753  -5.199  14.024  1.00  0.00     0.037 C
HETATM   28  C6  UNL     1      14.577  -5.687  13.464  1.00  0.00     0.010 C
HETATM   29  C5  UNL     1      16.059  -5.871  12.915  1.00  0.00     0.025 C
HETATM   30  C30 UNL     1      18.589  -3.603  13.781  1.00  0.00     0.071 C
HETATM   31  C16 UNL     1      22.469  -5.864  14.134  1.00  0.00     0.032 C
HETATM   32  C17 UNL     1      23.140  -4.625  14.708  1.00  0.00     0.118 C
BRANCH  29  33
HETATM   33  C3  UNL     1      16.187  -7.246  12.548  1.00  0.00    -0.064 C
HETATM   34  C4  UNL     1      15.382  -7.914  11.772  1.00  0.00     0.019 C
BRANCH  33  35
HETATM   35  C2  UNL     1      17.282  -8.044  13.084  1.00  0.00    -0.004 C
HETATM   36  C1  UNL     1      17.070  -8.963  13.986  1.00  0.00     0.012 C
ENDBRANCH  33  35
ENDBRANCH  29  33
BRANCH  22  37
HETATM   37  O4  UNL     1      18.712  -5.774  12.937  1.00  0.00    -0.389 OA
ATOM     38  H4  UNL     1      19.421  -5.241  12.596  1.00  0.00     0.210 HD
ENDBRANCH  22  37
BRANCH  32  39
HETATM   39  O1  UNL     1      24.117  -4.249  13.773  1.00  0.00    -0.396 OA
ATOM     40  H1  UNL     1      24.292  -3.330  13.935  1.00  0.00     0.210 HD
ENDBRANCH  32  39
ENDBRANCH  13  14
ENDBRANCH  12  13
ENDBRANCH  11  12
ENDBRANCH  10  11
ENDBRANCH   1  10
BRANCH   8  41
HETATM   41  C26 UNL     1      21.249   1.878  19.625  1.00  0.00     0.161 C
HETATM   42  C27 UNL     1      21.383   2.852  20.665  1.00  0.00     0.153 C
BRANCH  42  43
HETATM   43  O3  UNL     1      20.251   3.363  21.112  1.00  0.00    -0.345 OA
ATOM     44  H3  UNL     1      19.898   2.951  21.891  1.00  0.00     0.219 HD
ENDBRANCH  42  43
BRANCH  42  45
HETATM   45  N5  UNL     1      22.520   3.356  21.291  1.00  0.00    -0.370 N
HETATM   46  C28 UNL     1      22.329   4.056  22.609  1.00  0.00     0.151 C
HETATM   47  C29 UNL     1      23.889   3.311  20.874  1.00  0.00     0.151 C
ENDBRANCH  42  45
ENDBRANCH   8  41
TORSDOF 12
ENDMDL