MODEL 2
REMARK VINA RESULT: -9.776510920      2.946      9.821
REMARK  9 active torsions:
REMARK  status: ('A' for Active; 'I' for Inactive)
REMARK    1  A    between atoms: C2_2  and  C3_3
REMARK    2  A    between atoms: C11_14  and  C12_15
REMARK    3  A    between atoms: C12_15  and  C13_16
REMARK    4  A    between atoms: C13_16  and  C14_17
REMARK    5  A    between atoms: C14_17  and  N2_18
REMARK    6  A    between atoms: C19_28  and  S1_29
REMARK    7  A    between atoms: S1_29  and  N6_32
REMARK    8  A    between atoms: N6_32  and  C21_34
REMARK    9  A    between atoms: C21_34  and  C22_35
ROOT
HETATM    1  C3  UNL     1      15.919  -5.389  15.170  1.00  0.00     0.026 C
HETATM    2  C4  UNL     1      14.762  -4.870  16.113  1.00  0.00     0.038 C
HETATM    3  C5  UNL     1      15.703  -6.852  15.118  1.00  0.00     0.031 C
HETATM    4  C6  UNL     1      16.001  -7.545  13.830  1.00  0.00     0.008 C
HETATM    5  C7  UNL     1      16.873  -8.736  14.145  1.00  0.00     0.052 C
HETATM    6  C8  UNL     1      17.714  -9.157  13.005  1.00  0.00    -0.014 C
HETATM    7  C9  UNL     1      17.494 -10.573  12.515  1.00  0.00     0.063 C
HETATM    8  N1  UNL     1      18.550  -8.410  12.482  1.00  0.00    -0.333 N
ATOM      9  H1  UNL     1      19.030  -8.877  11.712  1.00  0.00     0.168 HD
HETATM   10  C10 UNL     1      19.015  -7.123  12.648  1.00  0.00     0.244 C
HETATM   11  O1  UNL     1      19.192  -6.434  11.563  1.00  0.00    -0.271 OA
HETATM   12  C11 UNL     1      19.353  -6.384  13.869  1.00  0.00     0.174 C
HETATM   13  N5  UNL     1      19.144  -4.960  13.610  1.00  0.00    -0.375 N
ATOM     14  H5  UNL     1      19.132  -4.664  12.633  1.00  0.00     0.160 HD
HETATM   15  C16 UNL     1      18.958  -3.949  14.590  1.00  0.00     0.055 A
HETATM   16  C17 UNL     1      19.831  -2.855  14.474  1.00  0.00     0.033 A
HETATM   17  C18 UNL     1      19.843  -1.817  15.360  1.00  0.00     0.028 A
HETATM   18  C19 UNL     1      18.969  -1.822  16.416  1.00  0.00     0.082 A
HETATM   19  C28 UNL     1      18.122  -2.881  16.525  1.00  0.00     0.056 A
HETATM   20  C29 UNL     1      18.069  -3.980  15.635  1.00  0.00     0.057 A
HETATM   21  N7  UNL     1      17.090  -4.952  15.904  1.00  0.00    -0.379 N
ATOM     22  H7  UNL     1      17.230  -5.445  16.786  1.00  0.00     0.160 HD
ENDROOT
BRANCH  18  23
HETATM   23  S1  UNL     1      19.014  -0.480  17.532  1.00  0.00     0.264 S
HETATM   24  O2  UNL     1      17.837  -0.663  18.478  1.00  0.00    -0.200 OA
HETATM   25  O3  UNL     1      18.804   0.781  16.796  1.00  0.00    -0.200 OA
BRANCH  23  26
HETATM   26  N6  UNL     1      20.437  -0.561  18.432  1.00  0.00    -0.290 N
HETATM   27  C20 UNL     1      20.850  -1.860  18.825  1.00  0.00     0.168 C
BRANCH  26  28
HETATM   28  C21 UNL     1      21.435   0.383  18.159  1.00  0.00     0.080 C
BRANCH  28  29
HETATM   29  C22 UNL     1      22.535   0.498  19.180  1.00  0.00     0.025 C
HETATM   30  C23 UNL     1      23.880   0.096  18.621  1.00  0.00     0.010 C
HETATM   31  C24 UNL     1      24.883   0.081  19.753  1.00  0.00     0.001 C
HETATM   32  C25 UNL     1      24.343   0.783  20.982  1.00  0.00     0.000 C
HETATM   33  C26 UNL     1      23.728   2.099  20.595  1.00  0.00     0.001 C
HETATM   34  C27 UNL     1      22.634   1.961  19.560  1.00  0.00     0.010 C
ENDBRANCH  28  29
ENDBRANCH  26  28
ENDBRANCH  23  26
ENDBRANCH  18  23
BRANCH   1  35
HETATM   35  C2  UNL     1      15.643  -4.630  13.906  1.00  0.00     0.026 C
HETATM   36  C1  UNL     1      14.141  -4.292  13.893  1.00  0.00     0.007 C
ENDBRANCH   1  35
BRANCH  12  37
HETATM   37  C12 UNL     1      20.823  -6.642  14.181  1.00  0.00     0.036 C
BRANCH  37  38
HETATM   38  C13 UNL     1      21.668  -5.722  13.340  1.00  0.00     0.022 C
BRANCH  38  39
HETATM   39  C14 UNL     1      23.018  -5.465  14.038  1.00  0.00     0.122 C
BRANCH  39  40
HETATM   40  N2  UNL     1      23.063  -4.149  14.594  1.00  0.00    -0.367 N
HETATM   41  C15 UNL     1      22.912  -3.894  15.843  1.00  0.00     0.196 C
HETATM   42  N3  UNL     1      22.685  -4.952  16.748  1.00  0.00    -0.067 NA
HETATM   43  N4  UNL     1      22.969  -2.565  16.323  1.00  0.00    -0.067 NA
ATOM     44  H2  UNL     1      23.225  -3.365  13.961  1.00  0.00     0.161 HD
ENDBRANCH  39  40
ENDBRANCH  38  39
ENDBRANCH  37  38
ENDBRANCH  12  37
TORSDOF 9
ENDMDL