MODEL 2
REMARK VINA RESULT: -9.348296497      1.867      9.233
REMARK  14 active torsions:
REMARK  status: ('A' for Active; 'I' for Inactive)
REMARK       I    between atoms: C1_2  and  N1_3
REMARK    1  A    between atoms: C1_2  and  C29_40
REMARK    2  A    between atoms: N1_3  and  C2_5
REMARK    3  A    between atoms: C2_5  and  C3_6
REMARK    4  A    between atoms: C2_5  and  C10_13
REMARK    5  A    between atoms: C3_6  and  C4_7
REMARK    6  A    between atoms: C10_13  and  O2_14
REMARK    7  A    between atoms: C10_13  and  N2_16
REMARK    8  A    between atoms: C11_17  and  C12_18
REMARK    9  A    between atoms: C12_18  and  S1_19
REMARK   10  A    between atoms: S1_19  and  C13_20
REMARK   11  A    between atoms: C19_26  and  O3_27
REMARK   12  A    between atoms: C20_29  and  O4_30
REMARK   13  A    between atoms: C21_32  and  C22_33
REMARK   14  A    between atoms: C22_33  and  C23_34
ROOT
HETATM    1  N2  UNL     1      20.649  -3.355  15.239  1.00  0.00    -0.342 N
HETATM    2  C11 UNL     1      21.547  -3.292  16.401  1.00  0.00     0.128 C
HETATM    3  C19 UNL     1      22.679  -4.241  16.051  1.00  0.00     0.172 C
HETATM    4  C20 UNL     1      21.852  -5.325  15.381  1.00  0.00     0.175 C
HETATM    5  C21 UNL     1      20.926  -4.539  14.407  1.00  0.00     0.141 C
ENDROOT
BRANCH   1   6
HETATM    6  C10 UNL     1      19.617  -2.420  15.092  1.00  0.00     0.162 C
BRANCH   6   7
HETATM    7  C2  UNL     1      18.361  -2.210  15.830  1.00  0.00     0.063 C
BRANCH   7   8
HETATM    8  N1  UNL     1      18.198  -0.918  16.413  1.00  0.00    -0.325 N
HETATM    9  C1  UNL     1      18.401  -0.592  17.753  1.00  0.00     0.253 C
HETATM   10  O1  UNL     1      18.763  -1.465  18.615  1.00  0.00    -0.271 OA
ATOM     11  H1  UNL     1      17.906  -0.163  15.792  1.00  0.00     0.168 HD
BRANCH   9  12
HETATM   12  C29 UNL     1      18.212   0.782  18.281  1.00  0.00     0.277 C
HETATM   13  C30 UNL     1      17.398   0.846  19.529  1.00  0.00     0.044 C
HETATM   14  C31 UNL     1      17.692   2.286  19.980  1.00  0.00     0.030 C
HETATM   15  C32 UNL     1      19.175   2.365  19.684  1.00  0.00     0.233 C
HETATM   16  N3  UNL     1      19.453   1.420  18.646  1.00  0.00    -0.062 N
ATOM     17  H32 UNL     1      20.179   0.752  18.905  1.00  0.00     0.278 HD
ATOM     18  H31 UNL     1      19.931   1.838  17.849  1.00  0.00     0.278 HD
ENDBRANCH   9  12
ENDBRANCH   7   8
BRANCH   7  19
HETATM   19  C3  UNL     1      17.730  -3.385  16.430  1.00  0.00     0.066 C
BRANCH  19  20
HETATM   20  C4  UNL     1      16.631  -4.048  15.628  1.00  0.00    -0.009 C
HETATM   21  C5  UNL     1      15.425  -3.207  15.392  1.00  0.00     0.005 C
HETATM   22  C6  UNL     1      14.521  -4.010  14.461  1.00  0.00     0.000 C
HETATM   23  C7  UNL     1      15.202  -5.208  13.871  1.00  0.00     0.000 C
HETATM   24  C8  UNL     1      15.761  -6.174  14.861  1.00  0.00     0.000 C
HETATM   25  C9  UNL     1      16.219  -5.394  16.109  1.00  0.00     0.005 C
ENDBRANCH  19  20
ENDBRANCH   7  19
ENDBRANCH   6   7
BRANCH   6  26
HETATM   26  O2  UNL     1      19.781  -1.571  14.108  1.00  0.00    -0.345 OA
ATOM     27  H2  UNL     1      20.613  -1.112  14.148  1.00  0.00     0.219 HD
ENDBRANCH   6  26
ENDBRANCH   1   6
BRANCH   2  28
HETATM   28  C12 UNL     1      22.160  -1.912  16.526  1.00  0.00     0.102 C
BRANCH  28  29
HETATM   29  S1  UNL     1      22.205  -1.212  18.153  1.00  0.00    -0.161 SA
BRANCH  29  30
HETATM   30  C13 UNL     1      23.277   0.163  18.445  1.00  0.00     0.055 C
HETATM   31  C14 UNL     1      22.983   0.978  19.665  1.00  0.00     0.000 C
HETATM   32  C15 UNL     1      24.059   2.037  19.615  1.00  0.00     0.006 C
HETATM   33  C18 UNL     1      23.738  -0.116  20.444  1.00  0.00     0.011 C
HETATM   34  C16 UNL     1      25.247   1.165  19.204  1.00  0.00     0.006 C
HETATM   35  C17 UNL     1      24.576  -0.179  19.186  1.00  0.00     0.000 C
ENDBRANCH  29  30
ENDBRANCH  28  29
ENDBRANCH   2  28
BRANCH   5  36
HETATM   36  C22 UNL     1      19.734  -5.398  14.213  1.00  0.00     0.004 C
BRANCH  36  37
HETATM   37  C23 UNL     1      19.635  -6.433  13.191  1.00  0.00    -0.082 C
HETATM   38  C24 UNL     1      18.554  -6.454  12.209  1.00  0.00     0.034 C
HETATM   39  C25 UNL     1      17.486  -7.502  12.427  1.00  0.00     0.004 C
HETATM   40  C26 UNL     1      18.097  -8.853  12.656  1.00  0.00     0.001 C
HETATM   41  C27 UNL     1      18.903  -8.711  13.963  1.00  0.00     0.004 C
HETATM   42  C28 UNL     1      20.051  -7.837  13.628  1.00  0.00     0.034 C
ENDBRANCH  36  37
ENDBRANCH   5  36
BRANCH   3  43
HETATM   43  O3  UNL     1      23.223  -4.828  17.184  1.00  0.00    -0.391 OA
ATOM     44  H3  UNL     1      22.690  -5.551  17.493  1.00  0.00     0.210 HD
ENDBRANCH   3  43
BRANCH   4  45
HETATM   45  O4  UNL     1      21.149  -5.969  16.367  1.00  0.00    -0.391 OA
ATOM     46  H4  UNL     1      21.279  -6.901  16.242  1.00  0.00     0.210 HD
ENDBRANCH   4  45
TORSDOF 14
ENDMDL