MODEL 5
REMARK VINA RESULT: -9.289563090      2.000     10.708
REMARK  12 active torsions:
REMARK  status: ('A' for Active; 'I' for Inactive)
REMARK    1  A    between atoms: C2_2  and  C3_3
REMARK    2  A    between atoms: C3_3  and  C5_5
REMARK    3  A    between atoms: C5_5  and  N1_6
REMARK    4  A    between atoms: C5_5  and  C11_15
REMARK       I    between atoms: N1_6  and  C6_8
REMARK    5  A    between atoms: C6_8  and  O2_10
REMARK    6  A    between atoms: O2_10  and  C7_11
REMARK       I    between atoms: C11_15  and  N2_17
REMARK    7  A    between atoms: N2_17  and  C12_19
REMARK    8  A    between atoms: C12_19  and  C13_20
REMARK    9  A    between atoms: C12_19  and  C29_43
REMARK       I    between atoms: C13_20  and  N3_22
REMARK   10  A    between atoms: N3_22  and  C14_24
REMARK   11  A    between atoms: N4_32  and  C21_33
REMARK   12  A    between atoms: C25_37  and  O6_38
ROOT
HETATM    1  C13 UNL     1      20.254  -2.490  16.643  1.00  0.00     0.241 C
HETATM    2  O4  UNL     1      20.042  -1.770  15.640  1.00  0.00    -0.271 OA
HETATM    3  N3  UNL     1      19.638  -3.756  16.712  1.00  0.00    -0.355 N
ATOM      4  H3  UNL     1      19.813  -4.348  17.523  1.00  0.00     0.162 HD
ENDROOT
BRANCH   1   5
HETATM    5  C12 UNL     1      21.141  -2.000  17.718  1.00  0.00     0.180 C
BRANCH   5   6
HETATM    6  N2  UNL     1      20.880  -0.610  18.032  1.00  0.00    -0.346 N
HETATM    7  C11 UNL     1      19.778  -0.131  18.775  1.00  0.00     0.241 C
HETATM    8  O3  UNL     1      18.972  -1.050  19.184  1.00  0.00    -0.271 OA
ATOM      9  H2  UNL     1      21.548   0.081  17.689  1.00  0.00     0.163 HD
BRANCH   7  10
HETATM   10  C5  UNL     1      19.504   1.271  19.097  1.00  0.00     0.182 C
BRANCH  10  11
HETATM   11  C3  UNL     1      18.159   1.525  19.736  1.00  0.00     0.013 C
HETATM   12  C4  UNL     1      17.436   2.713  19.134  1.00  0.00     0.012 C
BRANCH  11  13
HETATM   13  C2  UNL     1      18.157   1.524  21.235  1.00  0.00     0.002 C
HETATM   14  C1  UNL     1      17.277   2.686  21.683  1.00  0.00     0.005 C
ENDBRANCH  11  13
ENDBRANCH  10  11
BRANCH  10  15
HETATM   15  N1  UNL     1      20.557   1.744  20.014  1.00  0.00    -0.323 N
HETATM   16  C6  UNL     1      21.855   2.103  19.549  1.00  0.00     0.362 C
HETATM   17  O1  UNL     1      22.166   2.032  18.326  1.00  0.00    -0.238 OA
ATOM     18  H1  UNL     1      20.350   1.816  21.010  1.00  0.00     0.165 HD
BRANCH  16  19
HETATM   19  O2  UNL     1      22.815   2.541  20.413  1.00  0.00    -0.294 OA
BRANCH  19  20
HETATM   20  C7  UNL     1      23.998   1.851  20.735  1.00  0.00     0.061 C
HETATM   21  C8  UNL     1      25.163   2.215  19.849  1.00  0.00     0.046 C
HETATM   22  C9  UNL     1      23.820   0.357  20.705  1.00  0.00     0.046 C
HETATM   23  C10 UNL     1      24.387   2.249  22.144  1.00  0.00     0.046 C
ENDBRANCH  19  20
ENDBRANCH  16  19
ENDBRANCH  10  15
ENDBRANCH   7  10
ENDBRANCH   5   6
BRANCH   5  24
HETATM   24  C29 UNL     1      22.592  -2.286  17.527  1.00  0.00     0.009 C
HETATM   25  C30 UNL     1      23.276  -0.967  17.183  1.00  0.00     0.012 C
HETATM   26  C31 UNL     1      22.887  -3.319  16.498  1.00  0.00     0.012 C
ENDBRANCH   5  24
ENDBRANCH   1   5
BRANCH   3  27
HETATM   27  C14 UNL     1      18.751  -4.247  15.647  1.00  0.00     0.084 C
HETATM   28  C15 UNL     1      17.348  -4.255  16.180  1.00  0.00     0.025 C
HETATM   29  C16 UNL     1      16.350  -3.519  15.334  1.00  0.00     0.002 C
HETATM   30  C17 UNL     1      15.023  -4.211  15.449  1.00  0.00     0.001 C
HETATM   31  C18 UNL     1      14.337  -4.351  14.092  1.00  0.00     0.009 C
HETATM   32  C19 UNL     1      15.099  -5.228  13.155  1.00  0.00     0.103 C
HETATM   33  C20 UNL     1      14.746  -6.651  13.305  1.00  0.00     0.220 C
HETATM   34  O5  UNL     1      13.730  -7.018  13.990  1.00  0.00    -0.273 OA
HETATM   35  N4  UNL     1      15.481  -7.730  12.719  1.00  0.00    -0.346 N
HETATM   36  C24 UNL     1      16.910  -7.539  12.464  1.00  0.00     0.157 C
HETATM   37  C25 UNL     1      17.718  -7.897  13.696  1.00  0.00     0.136 C
HETATM   38  C26 UNL     1      19.120  -7.377  13.501  1.00  0.00     0.033 C
HETATM   39  C27 UNL     1      19.276  -5.926  13.851  1.00  0.00     0.004 C
HETATM   40  C28 UNL     1      19.142  -5.705  15.322  1.00  0.00     0.025 C
BRANCH  35  41
HETATM   41  C21 UNL     1      14.905  -8.984  12.376  1.00  0.00     0.079 C
HETATM   42  C22 UNL     1      15.588  -9.644  11.190  1.00  0.00     0.032 C
HETATM   43  C23 UNL     1      13.431  -8.925  12.079  1.00  0.00     0.032 C
ENDBRANCH  35  41
BRANCH  37  44
HETATM   44  O6  UNL     1      17.791  -9.301  13.852  1.00  0.00    -0.394 OA
ATOM     45  H6  UNL     1      17.629  -9.546  14.755  1.00  0.00     0.210 HD
ENDBRANCH  37  44
ENDBRANCH   3  27
TORSDOF 12
ENDMDL