MODEL 2
REMARK VINA RESULT: -6.788425974      1.537      2.052
REMARK  4 active torsions:
REMARK  status: ('A' for Active; 'I' for Inactive)
REMARK    1  A    between atoms: C2_2  and  N1_3
REMARK    2  A    between atoms: C4_5  and  C5_6
REMARK    3  A    between atoms: C5_6  and  N2_7
REMARK    4  A    between atoms: N2_7  and  C6_9
ROOT
HETATM    1  C6  UNL     1      23.891   6.340  15.748  1.00  0.00     0.108 C
HETATM    2  C7  UNL     1      22.508   5.790  15.514  1.00  0.00     0.056 C
HETATM    3  C8  UNL     1      21.658   6.954  15.049  1.00  0.00     0.021 C
HETATM    4  C9  UNL     1      21.266   7.850  16.205  1.00  0.00     0.037 C
HETATM    5  C10 UNL     1      20.338   6.297  14.597  1.00  0.00     0.037 C
HETATM    6  N3  UNL     1      22.174   7.620  13.937  1.00  0.00    -0.403 N
ATOM      7  H3  UNL     1      21.529   8.016  13.254  1.00  0.00     0.154 HD
HETATM    8  C11 UNL     1      23.562   7.761  13.729  1.00  0.00     0.042 C
HETATM    9  C12 UNL     1      23.938   9.193  14.063  1.00  0.00     0.039 C
HETATM   10  C13 UNL     1      23.814   7.619  12.237  1.00  0.00     0.039 C
HETATM   11  C14 UNL     1      24.436   6.751  14.413  1.00  0.00     0.078 C
HETATM   12  C15 UNL     1      25.795   7.368  14.622  1.00  0.00     0.037 C
HETATM   13 CL1  UNL     1      24.646   5.311  13.393  1.00  0.00    -0.115 Cl
ENDROOT
BRANCH   1  14
HETATM   14  N2  UNL     1      24.675   5.590  16.599  1.00  0.00    -0.391 N
ATOM     15  H2  UNL     1      25.548   5.208  16.234  1.00  0.00     0.159 HD
BRANCH  14  16
HETATM   16  C5  UNL     1      24.345   5.321  17.927  1.00  0.00     0.097 C
BRANCH  16  17
HETATM   17  C4  UNL     1      25.139   6.240  18.827  1.00  0.00     0.013 A
HETATM   18  C3  UNL     1      26.237   5.942  19.601  1.00  0.00     0.124 A
HETATM   19  N1  UNL     1      26.667   7.032  20.260  1.00  0.00    -0.303 N
HETATM   20  N4  UNL     1      25.857   8.014  19.912  1.00  0.00    -0.309 N
HETATM   21  C16 UNL     1      24.916   7.587  19.049  1.00  0.00     0.121 A
ATOM     22  H4  UNL     1      25.933   8.972  20.254  1.00  0.00     0.186 HD
BRANCH  19  23
HETATM   23  C2  UNL     1      27.809   7.106  21.183  1.00  0.00     0.143 C
HETATM   24  C1  UNL     1      28.141   8.559  21.430  1.00  0.00     0.028 C
ENDBRANCH  19  23
ENDBRANCH  16  17
ENDBRANCH  14  16
ENDBRANCH   1  14
TORSDOF 4
ENDMDL