MODEL 4
REMARK VINA RESULT: -6.176025722      3.280      6.096
REMARK  7 active torsions:
REMARK  status: ('A' for Active; 'I' for Inactive)
REMARK    1  A    between atoms: C6_6  and  O1_8
REMARK    2  A    between atoms: C8_10  and  C9_11
REMARK    3  A    between atoms: C9_11  and  O3_13
REMARK    4  A    between atoms: O3_13  and  C10_14
REMARK    5  A    between atoms: C10_14  and  C11_15
REMARK    6  A    between atoms: C12_17  and  C14_19
REMARK    7  A    between atoms: C14_19  and  O4_20
ROOT
HETATM    1  C1  UNL     1      25.521   6.667  18.875  1.00  0.00     0.043 C
HETATM    2  C2  UNL     1      24.594   7.452  17.927  1.00  0.00    -0.087 C
HETATM    3  C3  UNL     1      25.095   8.531  17.393  1.00  0.00    -0.024 C
HETATM    4  C4  UNL     1      24.519   9.541  16.437  1.00  0.00     0.030 C
HETATM    5  C5  UNL     1      23.804   8.731  15.475  1.00  0.00     0.042 C
HETATM    6  C6  UNL     1      23.354   8.969  14.110  1.00  0.00     0.068 C
HETATM    7  C7  UNL     1      24.564   9.162  13.223  1.00  0.00     0.047 C
HETATM    8  C8  UNL     1      22.469   7.819  13.750  1.00  0.00     0.129 C
HETATM    9  C12 UNL     1      22.485   6.477  14.316  1.00  0.00    -0.007 C
HETATM   10  C13 UNL     1      21.338   5.820  13.437  1.00  0.00     0.018 C
HETATM   11  C15 UNL     1      22.105   6.127  15.689  1.00  0.00     0.012 C
HETATM   12  C16 UNL     1      23.143   5.734  16.723  1.00  0.00     0.005 C
HETATM   13  C17 UNL     1      23.273   6.798  17.829  1.00  0.00     0.033 C
ENDROOT
BRANCH   8  14
HETATM   14  C9  UNL     1      22.522   7.688  12.256  1.00  0.00     0.266 C
HETATM   15  O2  UNL     1      21.785   8.427  11.515  1.00  0.00    -0.265 OA
BRANCH  14  16
HETATM   16  O3  UNL     1      23.315   6.818  11.586  1.00  0.00    -0.319 OA
BRANCH  16  17
HETATM   17  C10 UNL     1      23.391   6.391  10.289  1.00  0.00     0.210 C
BRANCH  17  18
HETATM   18  C11 UNL     1      22.376   5.465   9.743  1.00  0.00     0.248 C
HETATM   19  F1  UNL     1      22.432   4.240  10.310  1.00  0.00    -0.253 F
ENDBRANCH  17  18
ENDBRANCH  16  17
ENDBRANCH  14  16
ENDBRANCH   8  14
BRANCH   6  20
HETATM   20  O1  UNL     1      22.696  10.206  14.081  1.00  0.00    -0.389 OA
ATOM     21  H1  UNL     1      21.982  10.144  13.457  1.00  0.00     0.210 HD
ENDBRANCH   6  20
BRANCH   9  22
HETATM   22  C14 UNL     1      23.601   5.552  13.867  1.00  0.00     0.174 C
BRANCH  22  23
HETATM   23  O4  UNL     1      23.021   4.385  13.307  1.00  0.00    -0.400 OA
ATOM     24  H4  UNL     1      23.412   4.233  12.454  1.00  0.00     0.209 HD
ENDBRANCH  22  23
ENDBRANCH   9  22
TORSDOF 7
ENDMDL