MODEL 1
REMARK VINA RESULT: -7.245027047      0.000      0.000
REMARK  5 active torsions:
REMARK  status: ('A' for Active; 'I' for Inactive)
REMARK    1  A    between atoms: C2_2  and  C3_3
REMARK    2  A    between atoms: C3_3  and  C5_5
REMARK    3  A    between atoms: C3_3  and  C10_10
REMARK    4  A    between atoms: C5_5  and  C6_6
REMARK    5  A    between atoms: C12_14  and  N2_15
ROOT
HETATM    1  C10 UNL     1      23.552   5.733  13.739  1.00  0.00     0.010 A
HETATM    2  C11 UNL     1      22.634   6.080  14.715  1.00  0.00     0.117 A
HETATM    3  N1  UNL     1      22.928   6.251  16.017  1.00  0.00    -0.201 N
ATOM      4  H1  UNL     1      22.197   6.507  16.681  1.00  0.00     0.183 HD
HETATM    5  C12 UNL     1      24.180   6.081  16.427  1.00  0.00     0.681 A
HETATM    6  N3  UNL     1      25.116   5.751  15.559  1.00  0.00    -0.176 N
ATOM      7  H3  UNL     1      26.075   5.624  15.885  1.00  0.00     0.186 HD
HETATM    8  C17 UNL     1      24.835   5.572  14.229  1.00  0.00     0.123 A
HETATM    9  N4  UNL     1      25.789   5.273  13.462  1.00  0.00    -0.385 N
ATOM     10  H41 UNL     1      26.736   5.154  13.824  1.00  0.00     0.157 HD
ATOM     11  H42 UNL     1      25.579   5.139  12.473  1.00  0.00     0.157 HD
ENDROOT
BRANCH   1  12
HETATM   12  C3  UNL     1      23.184   5.543  12.323  1.00  0.00    -0.011 C
HETATM   13  C4  UNL     1      21.709   5.993  12.206  1.00  0.00     0.020 C
BRANCH  12  14
HETATM   14  C2  UNL     1      23.100   4.049  12.083  1.00  0.00     0.010 C
HETATM   15  C1  UNL     1      21.951   3.590  11.266  1.00  0.00     0.006 C
ENDBRANCH  12  14
BRANCH  12  16
HETATM   16  C5  UNL     1      23.911   6.281  11.300  1.00  0.00     0.022 C
BRANCH  16  17
HETATM   17  C6  UNL     1      23.257   7.041  10.223  1.00  0.00    -0.050 C
HETATM   18  C7  UNL     1      22.518   6.271   9.179  1.00  0.00     0.014 C
HETATM   19  C8  UNL     1      24.457   7.647   9.427  1.00  0.00     0.014 C
HETATM   20  C9  UNL     1      22.495   8.270  10.625  1.00  0.00     0.014 C
ENDBRANCH  16  17
ENDBRANCH  12  16
ENDBRANCH   1  12
BRANCH   5  21
HETATM   21  N2  UNL     1      24.477   6.261  17.812  1.00  0.00    -0.214 N
HETATM   22  C13 UNL     1      25.145   7.447  18.263  1.00  0.00     0.167 C
HETATM   23  C14 UNL     1      25.929   7.292  19.522  1.00  0.00     0.188 C
HETATM   24  O1  UNL     1      25.521   6.293  20.360  1.00  0.00    -0.388 OA
HETATM   25  C15 UNL     1      24.261   5.787  20.139  1.00  0.00     0.188 C
HETATM   26  C16 UNL     1      24.103   5.236  18.744  1.00  0.00     0.167 C
ENDBRANCH   5  21
TORSDOF 5
ENDMDL