MODEL 5
REMARK VINA RESULT: -6.975989089      0.956      1.761
REMARK  5 active torsions:
REMARK  status: ('A' for Active; 'I' for Inactive)
REMARK    1  A    between atoms: C5_7  and  O1_8
REMARK    2  A    between atoms: O1_8  and  C6_9
REMARK    3  A    between atoms: C6_9  and  C7_10
REMARK    4  A    between atoms: C7_10  and  N2_11
REMARK    5  A    between atoms: C17_24  and  N4_25
ROOT
HETATM    1  C1  UNL     1      23.561   4.887  20.381  1.00  0.00     0.072 C
HETATM    2  C2  UNL     1      24.054   5.597  19.153  1.00  0.00     0.050 A
HETATM    3  N1  UNL     1      23.213   5.987  18.185  1.00  0.00    -0.355 N
ATOM      4  H1  UNL     1      22.210   5.816  18.252  1.00  0.00     0.166 HD
HETATM    5  C3  UNL     1      23.758   6.627  17.097  1.00  0.00     0.062 A
HETATM    6  C4  UNL     1      22.961   7.052  16.073  1.00  0.00     0.071 A
HETATM    7  C5  UNL     1      23.492   7.711  14.944  1.00  0.00     0.109 A
HETATM    8  C14 UNL     1      24.867   7.943  14.858  1.00  0.00     0.151 A
HETATM    9  F1  UNL     1      25.320   8.581  13.750  1.00  0.00    -0.203 F
HETATM   10  C15 UNL     1      25.653   7.514  15.888  1.00  0.00     0.077 A
HETATM   11  C16 UNL     1      25.109   6.863  16.996  1.00  0.00     0.063 A
HETATM   12  N3  UNL     1      25.915   6.461  17.980  1.00  0.00    -0.339 N
ATOM     13  H3  UNL     1      26.919   6.630  17.916  1.00  0.00     0.167 HD
HETATM   14  C17 UNL     1      25.411   5.833  19.054  1.00  0.00     0.122 A
ENDROOT
BRANCH   7  15
HETATM   15  O1  UNL     1      22.657   8.073  14.023  1.00  0.00    -0.346 OA
BRANCH  15  16
HETATM   16  C6  UNL     1      21.820   8.432  13.097  1.00  0.00     0.206 C
BRANCH  16  17
HETATM   17  C7  UNL     1      21.295   7.208  12.362  1.00  0.00     0.299 C
BRANCH  17  18
HETATM   18  N2  UNL     1      21.560   7.220  10.939  1.00  0.00     0.094 N
HETATM   19  C8  UNL     1      22.392   8.386  10.719  1.00  0.00     0.273 C
HETATM   20  C9  UNL     1      22.978   8.493   9.374  1.00  0.00     0.030 C
HETATM   21  C10 UNL     1      23.394   7.198   8.751  1.00  0.00     0.004 C
HETATM   22  C11 UNL     1      22.472   6.060   9.042  1.00  0.00     0.035 C
HETATM   23  C12 UNL     1      22.261   6.004  10.537  1.00  0.00     0.219 C
HETATM   24  C13 UNL     1      23.626   5.888  11.180  1.00  0.00     0.043 C
ENDBRANCH  17  18
ENDBRANCH  16  17
ENDBRANCH  15  16
ENDBRANCH   7  15
BRANCH  14  25
HETATM   25  N4  UNL     1      26.191   5.450  19.993  1.00  0.00    -0.384 N
ATOM     26  H42 UNL     1      26.753   6.137  20.497  1.00  0.00     0.157 HD
ATOM     27  H41 UNL     1      26.247   4.461  20.232  1.00  0.00     0.157 HD
ENDBRANCH  14  25
TORSDOF 5
ENDMDL