MODEL 5
REMARK VINA RESULT: -6.871988313      1.324      1.645
REMARK  6 active torsions:
REMARK  status: ('A' for Active; 'I' for Inactive)
REMARK    1  A    between atoms: O1_1  and  C1_3
REMARK    2  A    between atoms: C4_6  and  S1_7
REMARK    3  A    between atoms: S1_7  and  C5_8
REMARK    4  A    between atoms: C5_8  and  C6_9
REMARK    5  A    between atoms: C6_9  and  N1_10
REMARK    6  A    between atoms: N2_13  and  C9_14
ROOT
HETATM    1  N1  UNL     1      23.763   7.312  14.199  1.00  0.00     0.126 N
HETATM    2  C7  UNL     1      24.260   7.951  13.029  1.00  0.00     0.295 C
HETATM    3  C8  UNL     1      23.573   7.281  11.830  1.00  0.00     0.147 C
HETATM    4  N2  UNL     1      24.000   5.933  11.736  1.00  0.00    -0.402 N
HETATM    5  C14 UNL     1      24.609   5.403  12.909  1.00  0.00     0.187 C
HETATM    6  C15 UNL     1      23.967   5.896  14.186  1.00  0.00     0.422 C
HETATM    7  F1  UNL     1      24.774   5.449  15.241  1.00  0.00    -0.214 F
ENDROOT
BRANCH   1   8
HETATM    8  C6  UNL     1      24.067   7.899  15.450  1.00  0.00     0.286 C
BRANCH   8   9
HETATM    9  C5  UNL     1      22.900   8.227  16.317  1.00  0.00     0.111 C
BRANCH   9  10
HETATM   10  S1  UNL     1      23.444   8.470  18.023  1.00  0.00    -0.111 SA
BRANCH  10  11
HETATM   11  C4  UNL     1      23.942   6.985  18.818  1.00  0.00     0.071 A
HETATM   12  C3  UNL     1      25.082   6.258  18.549  1.00  0.00     0.041 A
HETATM   13  C2  UNL     1      25.136   5.149  19.358  1.00  0.00     0.059 A
HETATM   14  C1  UNL     1      23.999   5.220  20.129  1.00  0.00     0.140 A
HETATM   15  N3  UNL     1      23.300   6.325  19.789  1.00  0.00    -0.332 N
ATOM     16  H3  UNL     1      22.416   6.613  20.209  1.00  0.00     0.168 HD
BRANCH  14  17
HETATM   17  O1  UNL     1      23.630   4.297  21.103  1.00  0.00    -0.346 OA
ATOM     18  H1  UNL     1      22.927   3.663  21.020  1.00  0.00     0.219 HD
ENDBRANCH  14  17
ENDBRANCH  10  11
ENDBRANCH   9  10
ENDBRANCH   8   9
ENDBRANCH   1   8
BRANCH   4  19
HETATM   19  C9  UNL     1      23.111   5.017  11.123  1.00  0.00     0.079 C
HETATM   20  C10 UNL     1      22.482   5.519   9.852  1.00  0.00     0.025 C
HETATM   21  C11 UNL     1      21.508   4.400   9.542  1.00  0.00     0.002 C
HETATM   22  C12 UNL     1      21.100   3.843  10.876  1.00  0.00     0.002 C
HETATM   23  C13 UNL     1      21.926   4.594  11.926  1.00  0.00     0.025 C
ENDBRANCH   4  19
TORSDOF 6
ENDMDL