MODEL 5
REMARK VINA RESULT: -6.818217892      3.181      5.384
REMARK  5 active torsions:
REMARK  status: ('A' for Active; 'I' for Inactive)
REMARK    1  A    between atoms: C2_2  and  C4_4
REMARK    2  A    between atoms: C4_4  and  O1_5
REMARK    3  A    between atoms: C4_4  and  N1_7
REMARK    4  A    between atoms: N1_7  and  C5_9
REMARK    5  A    between atoms: C5_9  and  C7_12
ROOT
HETATM    1  C5  UNL     1      24.000   6.280  15.350  1.00  0.00     0.100 C
HETATM    2  C6  UNL     1      24.226   5.542  16.611  1.00  0.00     0.114 C
HETATM    3  N2  UNL     1      24.406   4.935  17.594  1.00  0.00    -0.190 NA
ENDROOT
BRANCH   1   4
HETATM    4  N1  UNL     1      24.965   6.029  14.382  1.00  0.00    -0.358 N
ATOM      5  H1  UNL     1      25.760   6.665  14.325  1.00  0.00     0.162 HD
BRANCH   4   6
HETATM    6  C4  UNL     1      24.917   4.964  13.482  1.00  0.00     0.221 C
BRANCH   6   7
HETATM    7  C2  UNL     1      23.624   5.158  12.647  1.00  0.00     0.026 C
HETATM    8  C1  UNL     1      23.061   3.802  12.275  1.00  0.00     0.014 C
HETATM    9  C3  UNL     1      23.884   5.946  11.393  1.00  0.00     0.014 C
ENDBRANCH   6   7
BRANCH   6  10
HETATM   10  O1  UNL     1      24.763   3.683  14.050  1.00  0.00    -0.377 OA
ATOM     11  H1  UNL     1      24.644   3.859  14.976  1.00  0.00     0.212 HD
ENDBRANCH   6  10
ENDBRANCH   4   6
ENDBRANCH   1   4
BRANCH   1  12
HETATM   12  C7  UNL     1      23.502   7.642  15.538  1.00  0.00     0.044 C
HETATM   13  C8  UNL     1      23.869   8.726  14.613  1.00  0.00     0.020 C
HETATM   14  C9  UNL     1      22.807   9.813  14.887  1.00  0.00     0.020 C
HETATM   15  C10 UNL     1      21.870   9.185  15.853  1.00  0.00     0.039 C
HETATM   16  C11 UNL     1      20.495   9.698  15.870  1.00  0.00     0.025 C
HETATM   17  C12 UNL     1      22.514   9.055  17.189  1.00  0.00     0.142 C
HETATM   18  C15 UNL     1      21.960   7.705  15.449  1.00  0.00     0.062 C
HETATM   19  O2  UNL     1      22.101   9.593  18.188  1.00  0.00    -0.297 OA
HETATM   20  C13 UNL     1      23.686   8.167  16.955  1.00  0.00     0.069 C
HETATM   21  C14 UNL     1      24.904   9.000  17.159  1.00  0.00     0.019 C
HETATM   22  C16 UNL     1      21.427   7.468  14.088  1.00  0.00     0.035 C
HETATM   23 CL1  UNL     1      21.320   6.634  16.679  1.00  0.00    -0.117 Cl
ENDBRANCH   1  12
TORSDOF 5
ENDMDL