MODEL 4
REMARK VINA RESULT: -6.086072986      3.386      3.755
REMARK  9 active torsions:
REMARK  status: ('A' for Active; 'I' for Inactive)
REMARK    1  A    between atoms: C2_2  and  C5_5
REMARK    2  A    between atoms: C5_5  and  C6_6
REMARK    3  A    between atoms: C7_7  and  C8_8
REMARK    4  A    between atoms: C9_9  and  C10_10
REMARK    5  A    between atoms: C14_16  and  O2_17
REMARK    6  A    between atoms: N1_19  and  C15_20
REMARK    7  A    between atoms: C15_20  and  C16_21
REMARK    8  A    between atoms: C16_21  and  C17_22
REMARK    9  A    between atoms: C17_22  and  O3_23
ROOT
HETATM    1  C6  UNL     1      23.526   5.915  14.836  1.00  0.00     0.052 A
HETATM    2  C7  UNL     1      23.780   5.427  13.560  1.00  0.00     0.048 A
HETATM    3  C13 UNL     1      25.141   5.647  13.342  1.00  0.00     0.079 A
HETATM    4  C14 UNL     1      25.649   6.243  14.453  1.00  0.00     0.144 A
HETATM    5  N1  UNL     1      24.665   6.417  15.389  1.00  0.00    -0.327 N
ENDROOT
BRANCH   2   6
HETATM    6  C8  UNL     1      22.891   4.866  12.572  1.00  0.00    -0.062 C
HETATM    7  C9  UNL     1      22.145   4.429  11.734  1.00  0.00    -0.064 C
BRANCH   7   8
HETATM    8  C10 UNL     1      21.229   3.881  10.732  1.00  0.00     0.252 A
HETATM    9  O1  UNL     1      19.808   3.955  11.142  1.00  0.00    -0.340 OA
HETATM   10  C11 UNL     1      20.370   4.713  10.000  1.00  0.00     0.172 A
HETATM   11  C12 UNL     1      19.761   4.192   8.701  1.00  0.00     0.068 C
HETATM   12 CL1  UNL     1      20.198   6.433  10.267  1.00  0.00    -0.085 Cl
ENDBRANCH   7   8
ENDBRANCH   2   6
BRANCH   1  13
HETATM   13  C5  UNL     1      22.223   5.944  15.477  1.00  0.00     0.013 C
BRANCH  13  14
HETATM   14  C2  UNL     1      21.150   6.865  15.110  1.00  0.00    -0.031 C
HETATM   15  C1  UNL     1      21.562   8.199  14.543  1.00  0.00     0.019 C
HETATM   16  C3  UNL     1      19.990   6.299  14.325  1.00  0.00     0.019 C
HETATM   17  C4  UNL     1      20.436   7.304  16.458  1.00  0.00     0.019 C
ENDBRANCH  13  14
ENDBRANCH   1  13
BRANCH   5  18
HETATM   18  C15 UNL     1      24.937   7.006  16.678  1.00  0.00     0.133 C
BRANCH  18  19
HETATM   19  C16 UNL     1      24.749   8.472  16.786  1.00  0.00     0.046 C
BRANCH  19  20
HETATM   20  C17 UNL     1      23.632   8.718  17.814  1.00  0.00     0.165 C
BRANCH  20  21
HETATM   21  O3  UNL     1      23.895   7.996  18.975  1.00  0.00    -0.401 OA
ATOM     22  H3  UNL     1      24.404   8.528  19.575  1.00  0.00     0.209 HD
ENDBRANCH  20  21
ENDBRANCH  19  20
ENDBRANCH  18  19
ENDBRANCH   5  18
BRANCH   4  23
HETATM   23  O2  UNL     1      26.983   6.639  14.652  1.00  0.00    -0.346 OA
ATOM     24  H2  UNL     1      27.467   6.604  15.470  1.00  0.00     0.219 HD
ENDBRANCH   4  23
TORSDOF 9
ENDMDL