MODEL 2
REMARK VINA RESULT: -6.848357429      6.010     10.111
REMARK  5 active torsions:
REMARK  status: ('A' for Active; 'I' for Inactive)
REMARK    1  A    between atoms: C2_2  and  C3_3
REMARK    2  A    between atoms: C4_4  and  C5_5
REMARK    3  A    between atoms: C5_5  and  O1_7
REMARK    4  A    between atoms: C10_17  and  C11_18
REMARK    5  A    between atoms: C11_18  and  C12_19
ROOT
HETATM    1  C3  UNL     1      24.338   7.151  15.556  1.00  0.00     0.038 A
HETATM    2  C4  UNL     1      23.559   6.112  16.002  1.00  0.00     0.062 A
HETATM    3  N1  UNL     1      22.759   5.694  15.002  1.00  0.00    -0.344 N
ATOM      4  H1  UNL     1      22.078   4.936  15.053  1.00  0.00     0.167 HD
HETATM    5  C7  UNL     1      23.023   6.465  13.914  1.00  0.00     0.107 A
HETATM    6  N2  UNL     1      23.979   7.342  14.260  1.00  0.00    -0.335 N
HETATM    7  C8  UNL     1      24.415   8.271  13.237  1.00  0.00     0.149 C
HETATM    8  C9  UNL     1      23.220   8.727  12.477  1.00  0.00     0.135 C
HETATM    9  N3  UNL     1      22.413   7.717  11.903  1.00  0.00    -0.409 N
ATOM     10  H3  UNL     1      21.847   7.889  11.072  1.00  0.00     0.154 HD
HETATM   11  C10 UNL     1      22.433   6.434  12.556  1.00  0.00     0.145 C
ENDROOT
BRANCH  11  12
HETATM   12  C11 UNL     1      23.181   5.486  11.645  1.00  0.00     0.037 C
BRANCH  12  13
HETATM   13  C12 UNL     1      22.305   4.602  10.831  1.00  0.00    -0.012 C
HETATM   14  C13 UNL     1      20.931   4.384  11.359  1.00  0.00     0.007 C
HETATM   15  C14 UNL     1      20.099   3.693  10.301  1.00  0.00     0.037 C
HETATM   16  C15 UNL     1      19.858   4.566   9.104  1.00  0.00     0.170 C
HETATM   17  F1  UNL     1      20.161   3.907   7.923  1.00  0.00    -0.249 F
HETATM   18  C16 UNL     1      20.773   5.764   9.225  1.00  0.00     0.037 C
HETATM   19  C17 UNL     1      22.173   5.246   9.453  1.00  0.00     0.007 C
ENDBRANCH  12  13
ENDBRANCH  11  12
BRANCH   2  20
HETATM   20  C5  UNL     1      23.549   5.498  17.349  1.00  0.00     0.165 C
HETATM   21  C6  UNL     1      23.103   6.491  18.412  1.00  0.00     0.046 C
BRANCH  20  22
HETATM   22  O1  UNL     1      24.757   4.912  17.703  1.00  0.00    -0.390 OA
ATOM     23  H1  UNL     1      24.917   4.905  18.640  1.00  0.00     0.210 HD
ENDBRANCH  20  22
ENDBRANCH   2  20
BRANCH   1  24
HETATM   24  C2  UNL     1      25.342   7.899  16.310  1.00  0.00     0.055 C
HETATM   25  C1  UNL     1      24.938   9.274  16.732  1.00  0.00     0.011 C
ENDBRANCH   1  24
TORSDOF 5
ENDMDL