MODEL 1
REMARK VINA RESULT: -7.146824668      0.000      0.000
REMARK  4 active torsions:
REMARK  status: ('A' for Active; 'I' for Inactive)
REMARK    1  A    between atoms: C5_5  and  N1_6
REMARK       I    between atoms: N1_6  and  C6_8
REMARK    2  A    between atoms: C6_8  and  C7_10
REMARK    3  A    between atoms: C7_10  and  S1_11
REMARK    4  A    between atoms: S1_11  and  C8_12
ROOT
HETATM    1  N1  UNL     1      24.910   6.288  16.946  1.00  0.00    -0.353 N
ATOM      2  H1  UNL     1      25.858   6.577  16.707  1.00  0.00     0.163 HD
HETATM    3  C6  UNL     1      24.659   5.800  18.259  1.00  0.00     0.227 C
HETATM    4  O1  UNL     1      23.503   5.440  18.573  1.00  0.00    -0.273 OA
ENDROOT
BRANCH   1   5
HETATM    5  C5  UNL     1      23.876   6.393  15.933  1.00  0.00     0.119 C
HETATM    6  C4  UNL     1      23.580   7.782  15.514  1.00  0.00     0.036 C
HETATM    7  C2  UNL     1      23.790   8.141  14.103  1.00  0.00    -0.045 C
HETATM    8  C1  UNL     1      22.749   9.218  13.735  1.00  0.00     0.015 C
HETATM    9  C3  UNL     1      25.126   8.856  13.920  1.00  0.00     0.015 C
HETATM   10  C14 UNL     1      23.634   7.063  13.088  1.00  0.00     0.020 C
HETATM   11  C11 UNL     1      23.345   5.702  13.647  1.00  0.00    -0.014 C
HETATM   12  C10 UNL     1      24.246   5.455  14.820  1.00  0.00     0.200 C
HETATM   13  C12 UNL     1      23.727   4.680  12.588  1.00  0.00     0.018 C
HETATM   14  C13 UNL     1      21.905   5.473  13.963  1.00  0.00     0.018 C
HETATM   15  F1  UNL     1      25.562   5.509  14.457  1.00  0.00    -0.246 F
ENDBRANCH   1   5
BRANCH   3  16
HETATM   16  C7  UNL     1      25.704   5.692  19.293  1.00  0.00     0.185 C
BRANCH  16  17
HETATM   17  S1  UNL     1      26.147   7.351  19.862  1.00  0.00    -0.083 SA
BRANCH  17  18
HETATM   18  C8  UNL     1      26.822   7.351  21.490  1.00  0.00     0.160 A
HETATM   19  N2  UNL     1      28.101   7.096  21.799  1.00  0.00    -0.331 N
HETATM   20  C9  UNL     1      28.286   7.177  23.129  1.00  0.00     0.199 A
ATOM     21  H2  UNL     1      28.830   6.872  21.121  1.00  0.00     0.168 HD
HETATM   22  N3  UNL     1      27.074   7.493  23.642  1.00  0.00    -0.294 N
HETATM   23  N4  UNL     1      26.195   7.596  22.648  1.00  0.00    -0.279 N
ATOM     24  H3  UNL     1      26.867   7.629  24.631  1.00  0.00     0.187 HD
ATOM     25  H4  UNL     1      25.207   7.825  22.750  1.00  0.00     0.189 HD
ENDBRANCH  17  18
ENDBRANCH  16  17
ENDBRANCH   3  16
TORSDOF 4
ENDMDL