MODEL 5
REMARK VINA RESULT: -5.931431759      2.803      6.252
REMARK  4 active torsions:
REMARK  status: ('A' for Active; 'I' for Inactive)
REMARK    1  A    between atoms: C3_4  and  C4_5
REMARK    2  A    between atoms: C5_9  and  S1_10
REMARK    3  A    between atoms: S1_10  and  C6_11
REMARK    4  A    between atoms: C11_18  and  N4_19
ROOT
HETATM    1  N1  UNL     1      24.258   6.108  11.551  1.00  0.00    -0.191 NA
HETATM    2  C1  UNL     1      24.086   6.071  12.687  1.00  0.00     0.105 C
HETATM    3  C2  UNL     1      23.855   6.029  14.104  1.00  0.00     0.111 A
HETATM    4  C3  UNL     1      22.997   6.913  14.728  1.00  0.00     0.045 A
HETATM    5  N2  UNL     1      22.802   6.845  16.063  1.00  0.00    -0.338 N
ATOM      6  H2  UNL     1      22.162   7.508  16.500  1.00  0.00     0.168 HD
HETATM    7  C5  UNL     1      23.421   5.933  16.837  1.00  0.00     0.146 A
HETATM    8  N3  UNL     1      24.261   5.062  16.247  1.00  0.00    -0.322 N
ATOM      9  H3  UNL     1      24.739   4.363  16.816  1.00  0.00     0.169 HD
HETATM   10  C11 UNL     1      24.484   5.098  14.902  1.00  0.00     0.123 A
ENDROOT
BRANCH   4  11
HETATM   11  C4  UNL     1      22.308   7.924  13.881  1.00  0.00     0.144 C
HETATM   12 BR1  UNL     1      23.254   9.602  13.932  1.00  0.00    -0.090 Br
ENDBRANCH   4  11
BRANCH  10  13
HETATM   13  N4  UNL     1      25.297   4.254  14.344  1.00  0.00    -0.384 N
ATOM     14  H42 UNL     1      24.938   3.443  13.841  1.00  0.00     0.157 HD
ATOM     15  H41 UNL     1      26.300   4.421  14.423  1.00  0.00     0.157 HD
ENDBRANCH  10  13
BRANCH   7  16
HETATM   16  S1  UNL     1      23.108   5.911  18.588  1.00  0.00    -0.089 SA
BRANCH  16  17
HETATM   17  C6  UNL     1      24.459   6.509  19.566  1.00  0.00     0.055 C
HETATM   18  C7  UNL     1      25.154   7.733  19.022  1.00  0.00     0.015 C
HETATM   19  C8  UNL     1      26.385   7.761  19.937  1.00  0.00     0.001 C
HETATM   20  C9  UNL     1      26.703   6.300  20.203  1.00  0.00     0.001 C
HETATM   21  C10 UNL     1      25.591   5.502  19.519  1.00  0.00     0.015 C
ENDBRANCH  16  17
ENDBRANCH   7  16
TORSDOF 4
ENDMDL