MODEL 3
REMARK VINA RESULT: -8.888165522      2.991      9.582
REMARK  13 active torsions:
REMARK  status: ('A' for Active; 'I' for Inactive)
REMARK    1  A    between atoms: C3_4  and  C4_5
REMARK    2  A    between atoms: C5_6  and  C6_7
REMARK    3  A    between atoms: C6_7  and  C7_12
REMARK    4  A    between atoms: N2_8  and  O1_10
REMARK    5  A    between atoms: C8_15  and  C9_16
REMARK    6  A    between atoms: C11_20  and  N5_21
REMARK    7  A    between atoms: C16_33  and  N8_34
REMARK    8  A    between atoms: C17_39  and  N10_40
REMARK    9  A    between atoms: N10_40  and  C18_42
REMARK   10  A    between atoms: C18_42  and  C19_43
REMARK   11  A    between atoms: C19_43  and  O5_44
REMARK   12  A    between atoms: C19_43  and  C20_46
REMARK   13  A    between atoms: C20_46  and  O6_47
ROOT
HETATM    1  C4  UNL     1      35.743   2.288  40.741  1.00  0.00     0.068 A
HETATM    2  C5  UNL     1      35.129   2.569  39.567  1.00  0.00     0.098 A
HETATM    3  N7  UNL     1      35.906   2.397  38.428  1.00  0.00    -0.189 N
ATOM      4  H7  UNL     1      35.480   2.592  37.522  1.00  0.00     0.184 HD
HETATM    5  C16 UNL     1      37.174   1.993  38.452  1.00  0.00     0.678 A
HETATM    6  N9  UNL     1      37.782   1.725  39.617  1.00  0.00    -0.176 N
ATOM      7  H9  UNL     1      38.755   1.419  39.637  1.00  0.00     0.186 HD
HETATM    8  C17 UNL     1      37.089   1.865  40.753  1.00  0.00     0.132 A
ENDROOT
BRANCH   2   9
HETATM    9  C6  UNL     1      33.896   3.307  39.442  1.00  0.00     0.135 C
HETATM   10  N2  UNL     1      32.861   2.824  38.880  1.00  0.00    -0.263 N
ATOM     11  H2  UNL     1      32.045   3.434  38.845  1.00  0.00     0.194 HD
BRANCH  10  12
HETATM   12  O1  UNL     1      32.712   1.625  38.334  1.00  0.00    -0.289 OA
ATOM     13  H1  UNL     1      33.056   1.313  37.506  1.00  0.00     0.244 HD
ENDBRANCH  10  12
BRANCH   9  14
HETATM   14  C7  UNL     1      33.744   4.744  39.756  1.00  0.00     0.203 A
HETATM   15  N3  UNL     1      34.308   5.798  39.114  1.00  0.00    -0.316 N
HETATM   16  C8  UNL     1      33.942   6.946  39.706  1.00  0.00     0.163 A
ATOM     17  H3  UNL     1      34.920   5.728  38.301  1.00  0.00     0.169 HD
HETATM   18  N6  UNL     1      33.144   6.570  40.721  1.00  0.00    -0.240 N
HETATM   19  O4  UNL     1      33.052   5.252  40.718  1.00  0.00    -0.215 OA
ATOM     20  H6  UNL     1      32.687   7.197  41.383  1.00  0.00     0.196 HD
BRANCH  16  21
HETATM   21  C9  UNL     1      34.316   8.309  39.342  1.00  0.00     0.140 A
HETATM   22  C10 UNL     1      35.087   8.741  38.291  1.00  0.00     0.133 A
HETATM   23  N4  UNL     1      35.152  10.062  38.366  1.00  0.00    -0.329 N
HETATM   24  C11 UNL     1      34.439  10.461  39.438  1.00  0.00     0.227 A
ATOM     25  H4  UNL     1      35.655  10.674  37.723  1.00  0.00     0.168 HD
HETATM   26  O3  UNL     1      33.947   9.381  40.008  1.00  0.00    -0.274 OA
BRANCH  24  27
HETATM   27  N5  UNL     1      34.291  11.812  39.823  1.00  0.00    -0.343 N
HETATM   28  C12 UNL     1      35.422  12.695  39.802  1.00  0.00     0.152 C
HETATM   29  C13 UNL     1      34.926  14.121  39.671  1.00  0.00     0.187 C
HETATM   30  O2  UNL     1      34.125  14.353  40.787  1.00  0.00    -0.388 OA
HETATM   31  C14 UNL     1      32.927  13.698  40.662  1.00  0.00     0.187 C
HETATM   32  C15 UNL     1      32.998  12.277  40.230  1.00  0.00     0.152 C
ENDBRANCH  24  27
ENDBRANCH  16  21
ENDBRANCH   9  14
ENDBRANCH   2   9
BRANCH   1  33
HETATM   33  C3  UNL     1      34.975   2.114  41.992  1.00  0.00     0.081 A
HETATM   34  C2  UNL     1      34.573   2.924  43.034  1.00  0.00     0.141 A
HETATM   35  N1  UNL     1      33.939   1.891  43.652  1.00  0.00    -0.305 N
HETATM   36  C1  UNL     1      33.188   1.804  44.887  1.00  0.00     0.177 C
HETATM   37  N11 UNL     1      34.334   1.134  42.644  1.00  0.00    -0.297 N
ATOM     38  H11 UNL     1      34.198   0.145  42.435  1.00  0.00     0.187 HD
ENDBRANCH   1  33
BRANCH   8  39
HETATM   39  N10 UNL     1      37.561   1.641  41.917  1.00  0.00    -0.372 N
ATOM     40  H10 UNL     1      37.579   2.405  42.591  1.00  0.00     0.161 HD
BRANCH  39  41
HETATM   41  C18 UNL     1      38.064   0.369  42.316  1.00  0.00     0.155 C
BRANCH  41  42
HETATM   42  C19 UNL     1      37.753   0.127  43.789  1.00  0.00     0.159 C
BRANCH  42  43
HETATM   43  O5  UNL     1      36.556  -0.578  43.849  1.00  0.00    -0.392 OA
ATOM     44  H5  UNL     1      35.888  -0.037  43.443  1.00  0.00     0.210 HD
ENDBRANCH  42  43
BRANCH  42  45
HETATM   45  C20 UNL     1      37.579   1.464  44.482  1.00  0.00     0.197 C
BRANCH  45  46
HETATM   46  O6  UNL     1      38.814   2.125  44.532  1.00  0.00    -0.398 OA
ATOM     47  H6  UNL     1      39.037   2.308  45.437  1.00  0.00     0.209 HD
ENDBRANCH  45  46
ENDBRANCH  42  45
ENDBRANCH  41  42
ENDBRANCH  39  41
ENDBRANCH   8  39
BRANCH   5  48
HETATM   48  N8  UNL     1      37.874   1.840  37.368  1.00  0.00    -0.234 N
ATOM     49  H82 UNL     1      37.384   1.935  36.479  1.00  0.00     0.174 HD
ATOM     50  H81 UNL     1      38.873   1.635  37.389  1.00  0.00     0.174 HD
ENDBRANCH   5  48
TORSDOF 13
ENDMDL