MODEL 3
REMARK VINA RESULT: -9.026352159      1.529      1.700
REMARK  13 active torsions:
REMARK  status: ('A' for Active; 'I' for Inactive)
REMARK    1  A    between atoms: C2_2  and  O1_3
REMARK    2  A    between atoms: O1_3  and  C3_4
REMARK    3  A    between atoms: C3_4  and  C4_6
REMARK    4  A    between atoms: C4_6  and  N1_7
REMARK    5  A    between atoms: C5_12  and  C6_13
REMARK    6  A    between atoms: C6_13  and  N4_14
REMARK    7  A    between atoms: C6_13  and  C7_18
REMARK    8  A    between atoms: N4_14  and  N5_15
REMARK    9  A    between atoms: C8_20  and  N6_21
REMARK   10  A    between atoms: C9_26  and  N8_27
REMARK   11  A    between atoms: C10_29  and  C11_30
REMARK   12  A    between atoms: C14_33  and  C15_34
REMARK       I    between atoms: N9_35  and  C16_37
REMARK   13  A    between atoms: C18_41  and  N11_42
ROOT
HETATM    1  C15 UNL     1      36.644  -0.966  47.947  1.00  0.00     0.107 C
HETATM    2  N9  UNL     1      36.354  -0.888  49.148  1.00  0.00    -0.324 N
ATOM      3  H9  UNL     1      36.921  -1.548  49.682  1.00  0.00     0.169 HD
HETATM    4  C16 UNL     1      35.527  -0.210  49.989  1.00  0.00     0.326 C
HETATM    5  O3  UNL     1      34.320  -0.508  50.253  1.00  0.00    -0.256 OA
HETATM    6  C17 UNL     1      35.992   0.978  50.693  1.00  0.00     0.162 C
HETATM    7  N10 UNL     1      36.369   1.923  51.256  1.00  0.00    -0.186 NA
ENDROOT
BRANCH   1   8
HETATM    8  C14 UNL     1      36.105  -0.229  46.815  1.00  0.00     0.023 A
HETATM    9  C13 UNL     1      36.694   0.836  46.201  1.00  0.00     0.019 A
HETATM   10  C12 UNL     1      36.131   1.494  45.128  1.00  0.00     0.032 A
HETATM   11  C11 UNL     1      34.932   1.093  44.628  1.00  0.00     0.049 A
HETATM   12  N12 UNL     1      34.327   0.034  45.224  1.00  0.00    -0.341 N
HETATM   13  C18 UNL     1      34.868  -0.613  46.269  1.00  0.00     0.111 A
ATOM     14  H12 UNL     1      33.427  -0.282  44.863  1.00  0.00     0.167 HD
BRANCH  11  15
HETATM   15  C10 UNL     1      34.275   1.729  43.518  1.00  0.00     0.119 C
HETATM   16  N8  UNL     1      34.595   1.981  42.357  1.00  0.00    -0.349 N
ATOM     17  H8  UNL     1      33.849   2.455  41.848  1.00  0.00     0.167 HD
BRANCH  16  18
HETATM   18  C9  UNL     1      35.748   1.775  41.549  1.00  0.00     0.122 A
HETATM   19  C7  UNL     1      35.782   2.295  40.259  1.00  0.00     0.057 A
HETATM   20  S1  UNL     1      37.313   1.824  39.713  1.00  0.00    -0.053 SA
HETATM   21  C8  UNL     1      37.848   1.001  41.110  1.00  0.00     0.144 A
HETATM   22  N7  UNL     1      36.820   1.127  41.934  1.00  0.00    -0.322 N
ATOM     23  H7  UNL     1      36.862   0.721  42.868  1.00  0.00     0.169 HD
BRANCH  19  24
HETATM   24  C6  UNL     1      34.712   3.068  39.541  1.00  0.00     0.195 C
BRANCH  24  25
HETATM   25  C5  UNL     1      35.111   4.448  39.213  1.00  0.00     0.077 A
HETATM   26  N3  UNL     1      36.393   4.926  39.300  1.00  0.00    -0.286 N
HETATM   27  N2  UNL     1      36.386   6.185  38.935  1.00  0.00    -0.240 N
ATOM     28  H3  UNL     1      37.211   4.395  39.597  1.00  0.00     0.188 HD
HETATM   29  N1  UNL     1      35.193   6.594  38.606  1.00  0.00    -0.271 N
ATOM     30  H2  UNL     1      37.217   6.776  38.911  1.00  0.00     0.208 HD
HETATM   31  C19 UNL     1      34.370   5.514  38.773  1.00  0.00     0.052 A
HETATM   32  C20 UNL     1      32.928   5.512  38.520  1.00  0.00     0.072 C
BRANCH  29  33
HETATM   33  C4  UNL     1      34.735   7.889  38.155  1.00  0.00     0.261 C
BRANCH  33  34
HETATM   34  C3  UNL     1      34.620   8.874  39.237  1.00  0.00     0.278 C
HETATM   35  O2  UNL     1      34.757   8.465  40.418  1.00  0.00    -0.263 OA
BRANCH  34  36
HETATM   36  O1  UNL     1      34.369  10.224  39.047  1.00  0.00    -0.321 OA
BRANCH  36  37
HETATM   37  C2  UNL     1      33.813  10.981  40.105  1.00  0.00     0.174 C
HETATM   38  C1  UNL     1      34.751  12.083  40.478  1.00  0.00     0.034 C
ENDBRANCH  36  37
ENDBRANCH  34  36
ENDBRANCH  33  34
ENDBRANCH  29  33
ENDBRANCH  24  25
BRANCH  24  39
HETATM   39  N4  UNL     1      34.167   2.315  38.455  1.00  0.00    -0.132 NA
BRANCH  39  40
HETATM   40  N5  UNL     1      32.997   1.697  38.858  1.00  0.00    -0.347 N
ATOM     41  H52 UNL     1      32.066   2.099  38.748  1.00  0.00     0.172 HD
ATOM     42  H51 UNL     1      33.214   0.792  39.276  1.00  0.00     0.172 HD
ENDBRANCH  39  40
ENDBRANCH  24  39
ENDBRANCH  19  24
BRANCH  21  43
HETATM   43  N6  UNL     1      38.999   0.395  41.307  1.00  0.00    -0.380 N
ATOM     44  H62 UNL     1      39.902   0.795  41.558  1.00  0.00     0.158 HD
ATOM     45  H61 UNL     1      39.206  -0.603  41.246  1.00  0.00     0.158 HD
ENDBRANCH  21  43
ENDBRANCH  16  18
ENDBRANCH  11  15
BRANCH  13  46
HETATM   46  N11 UNL     1      34.262  -1.616  46.812  1.00  0.00    -0.385 N
ATOM     47 2H11 UNL     1      34.012  -1.602  47.801  1.00  0.00     0.157 HD
ATOM     48 1H11 UNL     1      34.049  -2.416  46.217  1.00  0.00     0.157 HD
ENDBRANCH  13  46
ENDBRANCH   1   8
TORSDOF 13
ENDMDL