MODEL 1
REMARK VINA RESULT: -10.034172774      0.000      0.000
REMARK  11 active torsions:
REMARK  status: ('A' for Active; 'I' for Inactive)
REMARK    1  A    between atoms: C2_2  and  O1_3
REMARK    2  A    between atoms: O1_3  and  C3_4
REMARK    3  A    between atoms: C3_4  and  C4_6
REMARK    4  A    between atoms: C4_6  and  O3_7
REMARK    5  A    between atoms: N1_12  and  C8_13
REMARK    6  A    between atoms: C15_29  and  C16_30
REMARK    7  A    between atoms: N6_32  and  N7_34
REMARK    8  A    between atoms: N8_36  and  N9_38
REMARK    9  A    between atoms: N9_38  and  C18_40
REMARK   10  A    between atoms: C18_40  and  N10_41
REMARK   11  A    between atoms: C19_44  and  O4_45
ROOT
HETATM    1  C8  UNL     1      35.947   2.205  39.969  1.00  0.00     0.120 A
HETATM    2  N2  UNL     1      36.772   2.054  38.875  1.00  0.00    -0.327 N
ATOM      3  H2  UNL     1      36.475   2.444  37.981  1.00  0.00     0.169 HD
HETATM    4  C9  UNL     1      37.948   1.415  38.937  1.00  0.00     0.134 A
HETATM    5  N3  UNL     1      38.755   1.269  37.869  1.00  0.00    -0.176 N
ATOM      6  H3  UNL     1      38.454   1.661  36.977  1.00  0.00     0.186 HD
HETATM    7  C10 UNL     1      39.936   0.631  37.922  1.00  0.00     0.677 A
HETATM    8  N4  UNL     1      40.648   0.530  36.861  1.00  0.00    -0.234 N
ATOM      9  H41 UNL     1      41.545   0.046  36.900  1.00  0.00     0.174 HD
ATOM     10  H42 UNL     1      40.310   0.937  35.988  1.00  0.00     0.174 HD
HETATM   11  N5  UNL     1      40.383   0.093  39.076  1.00  0.00    -0.195 N
ATOM     12  H5  UNL     1      41.281  -0.391  39.111  1.00  0.00     0.184 HD
HETATM   13  C11 UNL     1      39.621   0.208  40.179  1.00  0.00     0.036 A
HETATM   14  C12 UNL     1      40.073  -0.370  41.475  1.00  0.00     0.070 C
HETATM   15  C13 UNL     1      38.389   0.873  40.125  1.00  0.00     0.032 A
HETATM   16  C14 UNL     1      37.598   1.001  41.227  1.00  0.00     0.034 A
HETATM   17  C15 UNL     1      36.352   1.683  41.136  1.00  0.00     0.033 A
ENDROOT
BRANCH  17  18
HETATM   18  C16 UNL     1      35.599   1.658  42.362  1.00  0.00     0.037 C
HETATM   19  C17 UNL     1      36.152   2.246  43.636  1.00  0.00     0.070 C
HETATM   20  N6  UNL     1      34.450   1.152  42.460  1.00  0.00    -0.289 N
ATOM     21  H6  UNL     1      34.073   0.749  41.602  1.00  0.00     0.188 HD
BRANCH  20  22
HETATM   22  N7  UNL     1      33.645   1.067  43.547  1.00  0.00    -0.228 N
HETATM   23  N8  UNL     1      32.887   1.876  44.081  1.00  0.00    -0.231 N
ATOM     24  H8  UNL     1      32.396   1.529  44.905  1.00  0.00     0.209 HD
ATOM     25  H7  UNL     1      33.673   0.160  44.011  1.00  0.00     0.210 HD
BRANCH  23  26
HETATM   26  N9  UNL     1      32.600   3.178  43.735  1.00  0.00    -0.301 N
ATOM     27  H9  UNL     1      33.365   3.769  43.409  1.00  0.00     0.183 HD
BRANCH  26  28
HETATM   28  C18 UNL     1      31.271   3.756  43.809  1.00  0.00     0.294 C
BRANCH  28  29
HETATM   29  N10 UNL     1      31.216   4.912  44.680  1.00  0.00    -0.220 N
HETATM   30  N11 UNL     1      31.675   6.114  44.288  1.00  0.00    -0.257 N
HETATM   31  C19 UNL     1      31.496   6.975  45.292  1.00  0.00     0.240 A
ATOM     32  H11 UNL     1      32.088   6.330  43.381  1.00  0.00     0.191 HD
HETATM   33  N12 UNL     1      30.933   6.298  46.281  1.00  0.00    -0.272 N
HETATM   34  C20 UNL     1      30.746   5.020  45.936  1.00  0.00     0.345 A
ATOM     35  H12 UNL     1      30.677   6.698  47.183  1.00  0.00     0.174 HD
HETATM   36  O5  UNL     1      30.235   4.076  46.622  1.00  0.00    -0.245 OA
BRANCH  31  37
HETATM   37  O4  UNL     1      31.853   8.319  45.247  1.00  0.00    -0.331 OA
ATOM     38  H4  UNL     1      31.274   9.036  45.478  1.00  0.00     0.221 HD
ENDBRANCH  31  37
ENDBRANCH  28  29
ENDBRANCH  26  28
ENDBRANCH  23  26
ENDBRANCH  20  22
ENDBRANCH  17  18
BRANCH   1  39
HETATM   39  N1  UNL     1      34.761   2.973  39.793  1.00  0.00    -0.326 N
HETATM   40  C4  UNL     1      34.506   4.343  40.086  1.00  0.00     0.225 C
HETATM   41  C5  UNL     1      33.028   4.480  40.266  1.00  0.00     0.074 C
HETATM   42  C6  UNL     1      32.452   3.399  39.397  1.00  0.00     0.025 C
HETATM   43  C7  UNL     1      33.575   2.422  39.172  1.00  0.00     0.128 C
BRANCH  40  44
HETATM   44  C3  UNL     1      34.883   5.213  38.895  1.00  0.00     0.315 C
HETATM   45  O2  UNL     1      35.837   4.883  38.156  1.00  0.00    -0.260 OA
BRANCH  44  46
HETATM   46  O1  UNL     1      34.205   6.377  38.585  1.00  0.00    -0.318 OA
BRANCH  46  47
HETATM   47  C2  UNL     1      34.691   7.656  38.946  1.00  0.00     0.174 C
HETATM   48  C1  UNL     1      34.051   8.224  40.169  1.00  0.00     0.034 C
ENDBRANCH  46  47
ENDBRANCH  44  46
ENDBRANCH  40  44
BRANCH  40  49
HETATM   49  O3  UNL     1      35.137   4.852  41.217  1.00  0.00    -0.362 OA
ATOM     50  H3  UNL     1      35.714   4.182  41.565  1.00  0.00     0.213 HD
ENDBRANCH  40  49
ENDBRANCH   1  39
TORSDOF 11
ENDMDL