MODEL 5
REMARK VINA RESULT: -9.490656593      5.437     11.596
REMARK  11 active torsions:
REMARK  status: ('A' for Active; 'I' for Inactive)
REMARK    1  A    between atoms: O1_2  and  N1_3
REMARK    2  A    between atoms: N1_3  and  C2_5
REMARK    3  A    between atoms: C2_5  and  C3_6
REMARK    4  A    between atoms: C2_5  and  C17_41
REMARK       I    between atoms: C3_6  and  N2_8
REMARK       I    between atoms: N2_8  and  C4_10
REMARK    5  A    between atoms: C4_10  and  C5_12
REMARK    6  A    between atoms: C8_15  and  N3_16
REMARK    7  A    between atoms: N3_16  and  C9_18
REMARK    8  A    between atoms: C9_18  and  N4_19
REMARK    9  A    between atoms: C15_31  and  N9_32
REMARK   10  A    between atoms: C16_35  and  N10_36
REMARK   11  A    between atoms: C19_44  and  N12_45
ROOT
HETATM    1  N4  UNL     1      35.325   0.556  43.751  1.00  0.00    -0.308 N
HETATM    2  C10 UNL     1      34.182   0.435  44.440  1.00  0.00     0.203 A
HETATM    3  N5  UNL     1      34.120  -0.078  45.678  1.00  0.00    -0.288 N
ATOM      4  H5  UNL     1      33.226  -0.151  46.164  1.00  0.00     0.188 HD
HETATM    5  N6  UNL     1      35.249  -0.493  46.264  1.00  0.00    -0.244 N
HETATM    6  C11 UNL     1      35.413  -1.033  47.465  1.00  0.00     0.159 A
HETATM    7  C12 UNL     1      36.758  -1.287  47.591  1.00  0.00     0.133 A
HETATM    8  C13 UNL     1      37.482  -1.863  48.685  1.00  0.00     0.119 C
HETATM    9  N7  UNL     1      38.069  -2.345  49.568  1.00  0.00    -0.190 NA
HETATM   10  N8  UNL     1      37.376  -0.881  46.433  1.00  0.00    -0.328 N
ATOM     11  H8  UNL     1      38.373  -0.938  46.228  1.00  0.00     0.168 HD
HETATM   12  C14 UNL     1      36.404  -0.387  45.607  1.00  0.00     0.172 A
HETATM   13  C15 UNL     1      36.490   0.142  44.325  1.00  0.00     0.150 A
ENDROOT
BRANCH  13  14
HETATM   14  N9  UNL     1      37.629   0.211  43.771  1.00  0.00    -0.382 N
ATOM     15  H92 UNL     1      37.977   1.125  43.483  1.00  0.00     0.157 HD
ATOM     16  H91 UNL     1      38.232  -0.590  43.587  1.00  0.00     0.157 HD
ENDBRANCH  13  14
BRANCH   1  17
HETATM   17  C9  UNL     1      35.363   1.066  42.377  1.00  0.00     0.254 C
BRANCH  17  18
HETATM   18  N3  UNL     1      34.112   1.662  42.039  1.00  0.00    -0.370 N
ATOM     19  H3  UNL     1      33.267   1.090  42.046  1.00  0.00     0.161 HD
BRANCH  18  20
HETATM   20  C8  UNL     1      34.017   3.053  41.690  1.00  0.00     0.073 A
HETATM   21  C7  UNL     1      34.879   3.648  40.806  1.00  0.00     0.035 A
HETATM   22  C6  UNL     1      34.697   5.004  40.465  1.00  0.00     0.038 A
HETATM   23  C5  UNL     1      33.685   5.699  41.010  1.00  0.00     0.102 A
HETATM   24  N11 UNL     1      32.843   5.094  41.887  1.00  0.00    -0.337 N
HETATM   25  C16 UNL     1      32.978   3.811  42.236  1.00  0.00     0.126 A
ATOM     26  H11 UNL     1      32.081   5.637  42.294  1.00  0.00     0.168 HD
BRANCH  23  27
HETATM   27  C4  UNL     1      33.376   7.119  40.613  1.00  0.00     0.275 C
HETATM   28  N2  UNL     1      34.075   7.664  39.561  1.00  0.00    -0.287 N
HETATM   29  C3  UNL     1      33.925   8.850  38.861  1.00  0.00     0.279 C
ATOM     30  H2  UNL     1      34.849   7.085  39.235  1.00  0.00     0.172 HD
HETATM   31  O2  UNL     1      34.617   8.945  37.778  1.00  0.00    -0.265 OA
HETATM   32  O3  UNL     1      32.472   7.595  41.341  1.00  0.00    -0.266 OA
BRANCH  29  33
HETATM   33  C2  UNL     1      33.080   9.985  39.199  1.00  0.00     0.149 C
BRANCH  33  34
HETATM   34  N1  UNL     1      31.882   9.820  39.152  1.00  0.00    -0.260 N
ATOM     35  H1  UNL     1      31.513   9.669  40.091  1.00  0.00     0.194 HD
BRANCH  34  36
HETATM   36  O1  UNL     1      30.867   9.773  38.238  1.00  0.00    -0.285 OA
HETATM   37  C1  UNL     1      31.096  10.196  36.879  1.00  0.00     0.237 C
ENDBRANCH  34  36
ENDBRANCH  33  34
BRANCH  33  38
HETATM   38  C17 UNL     1      33.698  11.317  39.601  1.00  0.00     0.075 A
HETATM   39  C18 UNL     1      32.912  12.212  40.298  1.00  0.00     0.085 A
HETATM   40  S1  UNL     1      33.962  13.548  40.491  1.00  0.00    -0.064 SA
HETATM   41  C19 UNL     1      35.312  12.931  39.700  1.00  0.00     0.142 A
HETATM   42  N13 UNL     1      34.903  11.695  39.309  1.00  0.00    -0.335 N
ATOM     43  H13 UNL     1      35.532  11.078  38.796  1.00  0.00     0.168 HD
BRANCH  41  44
HETATM   44  N12 UNL     1      36.492  13.469  39.483  1.00  0.00    -0.380 N
ATOM     45 2H12 UNL     1      36.784  13.969  38.643  1.00  0.00     0.158 HD
ATOM     46 1H12 UNL     1      37.322  13.503  40.074  1.00  0.00     0.158 HD
ENDBRANCH  41  44
ENDBRANCH  33  38
ENDBRANCH  29  33
ENDBRANCH  23  27
BRANCH  25  47
HETATM   47  N10 UNL     1      32.185   3.215  43.056  1.00  0.00    -0.384 N
ATOM     48 2H10 UNL     1      32.351   2.273  43.409  1.00  0.00     0.157 HD
ATOM     49 1H10 UNL     1      31.358   3.730  43.360  1.00  0.00     0.157 HD
ENDBRANCH  25  47
ENDBRANCH  18  20
ENDBRANCH  17  18
ENDBRANCH   1  17
TORSDOF 11
ENDMDL