MODEL 1
REMARK VINA RESULT: -9.173319359      0.000      0.000
REMARK  12 active torsions:
REMARK  status: ('A' for Active; 'I' for Inactive)
REMARK    1  A    between atoms: C3_4  and  S1_5
REMARK    2  A    between atoms: S1_5  and  S2_6
REMARK    3  A    between atoms: S2_6  and  C4_7
REMARK    4  A    between atoms: C5_13  and  N4_14
REMARK    5  A    between atoms: N4_14  and  C6_16
REMARK    6  A    between atoms: C8_22  and  N7_23
REMARK    7  A    between atoms: N7_23  and  N8_25
REMARK    8  A    between atoms: N8_25  and  N9_26
REMARK    9  A    between atoms: N13_39  and  N14_41
REMARK   10  A    between atoms: N14_41  and  C12_43
REMARK   11  A    between atoms: C12_43  and  C13_44
REMARK       I    between atoms: C13_44  and  N15_46
REMARK   12  A    between atoms: N15_46  and  N16_48
ROOT
HETATM    1  C4  UNL     1      34.320   2.679  37.617  1.00  0.00     0.150 A
HETATM    2  N2  UNL     1      33.437   1.992  36.875  1.00  0.00    -0.231 N
ATOM      3  H2  UNL     1      33.506   1.852  35.867  1.00  0.00     0.197 HD
HETATM    4  O1  UNL     1      32.483   1.534  37.626  1.00  0.00    -0.154 OA
HETATM    5  N3  UNL     1      32.712   1.900  38.846  1.00  0.00    -0.222 N
ATOM      6  H3  UNL     1      32.117   1.675  39.643  1.00  0.00     0.198 HD
HETATM    7  C5  UNL     1      33.861   2.629  38.911  1.00  0.00     0.179 A
ENDROOT
BRANCH   7   8
HETATM    8  N4  UNL     1      34.373   3.147  39.946  1.00  0.00    -0.172 N
ATOM      9  H4  UNL     1      35.252   3.648  39.821  1.00  0.00     0.186 HD
BRANCH   8  10
HETATM   10  C6  UNL     1      33.850   3.099  41.251  1.00  0.00     0.688 A
HETATM   11  N5  UNL     1      33.021   4.101  41.653  1.00  0.00    -0.173 N
HETATM   12  C7  UNL     1      32.473   4.118  42.875  1.00  0.00     0.169 A
ATOM     13  H5  UNL     1      32.812   4.861  41.005  1.00  0.00     0.186 HD
HETATM   14  N6  UNL     1      31.638   4.971  43.505  1.00  0.00    -0.171 N
HETATM   15  C9  UNL     1      32.746   3.103  43.764  1.00  0.00     0.162 A
HETATM   16  C8  UNL     1      31.381   4.531  44.741  1.00  0.00     0.711 A
ATOM     17  H6  UNL     1      31.258   5.825  43.097  1.00  0.00     0.186 HD
HETATM   18  N10 UNL     1      32.071   3.386  44.878  1.00  0.00    -0.180 N
ATOM     19  H10 UNL     1      32.077   2.812  45.720  1.00  0.00     0.184 HD
HETATM   20  C10 UNL     1      33.588   2.074  43.371  1.00  0.00     0.290 A
HETATM   21  O2  UNL     1      33.825   1.155  44.201  1.00  0.00    -0.265 OA
HETATM   22  N11 UNL     1      34.102   2.117  42.134  1.00  0.00    -0.154 N
ATOM     23  H11 UNL     1      34.722   1.360  41.846  1.00  0.00     0.187 HD
BRANCH  16  24
HETATM   24  N7  UNL     1      30.532   5.187  45.697  1.00  0.00    -0.045 N
ATOM     25  H7  UNL     1      29.642   4.759  45.957  1.00  0.00     0.223 HD
BRANCH  24  26
HETATM   26  N8  UNL     1      30.863   6.262  46.210  1.00  0.00    -0.229 NA
BRANCH  26  27
HETATM   27  N9  UNL     1      31.272   7.296  46.701  1.00  0.00    -0.260 N
ATOM     28  H92 UNL     1      31.590   7.352  45.733  1.00  0.00     0.193 HD
ATOM     29  H91 UNL     1      31.584   8.143  47.176  1.00  0.00     0.193 HD
ENDBRANCH  26  27
ENDBRANCH  24  26
ENDBRANCH  16  24
ENDBRANCH   8  10
ENDBRANCH   7   8
BRANCH   1  30
HETATM   30  S2  UNL     1      35.744   3.474  36.912  1.00  0.00    -0.027 SA
BRANCH  30  31
HETATM   31  S1  UNL     1      37.388   2.190  36.631  1.00  0.00    -0.031 SA
BRANCH  31  32
HETATM   32  C3  UNL     1      37.961   1.572  38.221  1.00  0.00     0.113 A
HETATM   33  C2  UNL     1      39.135   0.898  38.453  1.00  0.00     0.146 A
HETATM   34  N1  UNL     1      39.221   0.605  39.764  1.00  0.00    -0.194 N
HETATM   35  C1  UNL     1      40.351  -0.117  40.375  1.00  0.00     0.175 C
HETATM   36  C11 UNL     1      38.130   1.077  40.378  1.00  0.00     0.699 A
HETATM   37  N12 UNL     1      37.373   1.665  39.407  1.00  0.00    -0.182 N
HETATM   38  N13 UNL     1      37.834   1.005  41.631  1.00  0.00    -0.136 N
ATOM     39  H12 UNL     1      36.473   2.117  39.571  1.00  0.00     0.185 HD
ATOM     40  H13 UNL     1      36.948   1.429  41.908  1.00  0.00     0.205 HD
BRANCH  38  41
HETATM   41  N14 UNL     1      38.562   0.431  42.631  1.00  0.00    -0.313 N
ATOM     42  H14 UNL     1      39.318  -0.215  42.405  1.00  0.00     0.181 HD
BRANCH  41  43
HETATM   43  C12 UNL     1      38.259   0.740  44.024  1.00  0.00     0.244 C
BRANCH  43  44
HETATM   44  C13 UNL     1      36.996   0.075  44.447  1.00  0.00     0.254 C
HETATM   45  O3  UNL     1      36.394  -0.727  43.711  1.00  0.00    -0.270 OA
HETATM   46  N15 UNL     1      36.468   0.367  45.723  1.00  0.00    -0.275 N
ATOM     47  H15 UNL     1      36.959   1.026  46.326  1.00  0.00     0.189 HD
BRANCH  46  48
HETATM   48  N16 UNL     1      35.291  -0.223  46.178  1.00  0.00    -0.343 N
ATOM     49 2H16 UNL     1      35.365  -1.018  46.813  1.00  0.00     0.176 HD
ATOM     50 1H16 UNL     1      34.375   0.120  45.890  1.00  0.00     0.176 HD
ENDBRANCH  46  48
ENDBRANCH  43  44
ENDBRANCH  41  43
ENDBRANCH  38  41
ENDBRANCH  31  32
ENDBRANCH  30  31
ENDBRANCH   1  30
TORSDOF 12
ENDMDL