MODEL 4
REMARK VINA RESULT: -8.361536577      1.360      2.014
REMARK  17 active torsions:
REMARK  status: ('A' for Active; 'I' for Inactive)
REMARK    1  A    between atoms: C2_2  and  C3_6
REMARK    2  A    between atoms: C3_6  and  C4_7
REMARK    3  A    between atoms: C3_6  and  C6_10
REMARK    4  A    between atoms: C6_10  and  C7_12
REMARK    5  A    between atoms: C7_12  and  O4_14
REMARK    6  A    between atoms: O4_14  and  C8_15
REMARK    7  A    between atoms: C8_15  and  C9_16
REMARK    8  A    between atoms: C12_20  and  O6_21
REMARK    9  A    between atoms: C14_24  and  O7_25
REMARK   10  A    between atoms: C15_27  and  C16_28
REMARK   11  A    between atoms: C16_28  and  O8_29
REMARK   12  A    between atoms: O8_29  and  C17_30
REMARK   13  A    between atoms: C20_34  and  O10_35
REMARK   14  A    between atoms: C20_34  and  C21_37
REMARK   15  A    between atoms: C21_37  and  N2_38
REMARK   16  A    between atoms: N2_38  and  O11_40
REMARK   17  A    between atoms: C22_42  and  O12_43
ROOT
HETATM    1  C9  UNL     1      36.881   0.915  44.030  1.00  0.00     0.070 C
HETATM    2  C10 UNL     1      37.489   0.612  42.748  1.00  0.00     0.200 C
HETATM    3  O5  UNL     1      38.352  -0.296  42.702  1.00  0.00    -0.286 OA
HETATM    4  C11 UNL     1      37.043   1.403  41.573  1.00  0.00     0.059 A
HETATM    5  C12 UNL     1      37.851   1.206  40.446  1.00  0.00     0.083 A
HETATM    6  C13 UNL     1      37.675   2.028  39.350  1.00  0.00     0.075 A
HETATM    7  C14 UNL     1      36.754   2.988  39.363  1.00  0.00     0.081 A
HETATM    8  C15 UNL     1      35.906   3.204  40.515  1.00  0.00     0.031 A
HETATM    9  C19 UNL     1      36.041   2.411  41.629  1.00  0.00     0.020 A
HETATM   10  C20 UNL     1      35.180   2.317  42.753  1.00  0.00     0.170 C
HETATM   11  C22 UNL     1      35.925   1.975  43.975  1.00  0.00     0.104 C
ENDROOT
BRANCH   1  12
HETATM   12  C8  UNL     1      37.180   0.273  45.168  1.00  0.00     0.164 C
BRANCH  12  13
HETATM   13  O4  UNL     1      36.277  -0.285  46.022  1.00  0.00    -0.284 OA
BRANCH  13  14
HETATM   14  C7  UNL     1      36.251   0.132  47.341  1.00  0.00     0.335 C
HETATM   15  O3  UNL     1      36.194   1.377  47.608  1.00  0.00    -0.256 OA
BRANCH  14  16
HETATM   16  C6  UNL     1      36.289  -0.851  48.402  1.00  0.00     0.240 C
HETATM   17  O2  UNL     1      36.604  -0.486  49.558  1.00  0.00    -0.285 OA
BRANCH  16  18
HETATM   18  C3  UNL     1      35.951  -2.276  48.096  1.00  0.00     0.180 C
BRANCH  18  19
HETATM   19  C2  UNL     1      37.120  -3.162  48.335  1.00  0.00    -0.005 C
HETATM   20  C1  UNL     1      37.071  -4.602  47.962  1.00  0.00     0.064 C
HETATM   21  N1  UNL     1      38.216  -2.731  48.870  1.00  0.00    -0.405 N
ATOM     22  H12 UNL     1      39.018  -3.339  49.034  1.00  0.00     0.155 HD
ATOM     23  H11 UNL     1      38.249  -1.744  49.126  1.00  0.00     0.155 HD
ENDBRANCH  18  19
BRANCH  18  24
HETATM   24  C4  UNL     1      34.763  -2.717  48.844  1.00  0.00     0.140 C
HETATM   25  C5  UNL     1      34.800  -3.457  50.115  1.00  0.00     0.092 C
HETATM   26  O1  UNL     1      33.642  -2.452  48.383  1.00  0.00    -0.297 OA
ENDBRANCH  18  24
ENDBRANCH  16  18
ENDBRANCH  14  16
ENDBRANCH  13  14
ENDBRANCH  12  13
ENDBRANCH   1  12
BRANCH  11  27
HETATM   27  O12 UNL     1      35.740   2.644  45.084  1.00  0.00    -0.360 OA
ATOM     28  H12 UNL     1      35.590   3.578  44.991  1.00  0.00     0.217 HD
ENDBRANCH  11  27
BRANCH  10  29
HETATM   29  O10 UNL     1      34.560   0.999  42.348  1.00  0.00    -0.373 OA
ATOM     30  H10 UNL     1      34.143   0.835  43.185  1.00  0.00     0.212 HD
ENDBRANCH  10  29
BRANCH  10  31
HETATM   31  C21 UNL     1      33.998   2.921  43.275  1.00  0.00     0.136 C
BRANCH  31  32
HETATM   32  N2  UNL     1      32.787   2.149  43.403  1.00  0.00    -0.281 N
ATOM     33  H2  UNL     1      32.827   1.170  43.691  1.00  0.00     0.193 HD
BRANCH  32  34
HETATM   34  O11 UNL     1      31.643   2.712  43.149  1.00  0.00    -0.290 OA
ATOM     35  H11 UNL     1      30.907   2.172  42.884  1.00  0.00     0.244 HD
ENDBRANCH  32  34
ENDBRANCH  31  32
ENDBRANCH  10  31
BRANCH   5  36
HETATM   36  O6  UNL     1      38.812   0.255  40.336  1.00  0.00    -0.360 OA
ATOM     37  H6  UNL     1      39.696   0.407  40.022  1.00  0.00     0.217 HD
ENDBRANCH   5  36
BRANCH   8  38
HETATM   38  C16 UNL     1      34.970   4.253  40.295  1.00  0.00     0.160 C
BRANCH  38  39
HETATM   39  O8  UNL     1      33.870   4.334  39.568  1.00  0.00    -0.290 OA
BRANCH  39  40
HETATM   40  C17 UNL     1      32.921   3.324  39.552  1.00  0.00     0.259 C
HETATM   41  C18 UNL     1      32.861   2.303  38.480  1.00  0.00     0.126 C
HETATM   42  O9  UNL     1      32.098   3.291  40.485  1.00  0.00    -0.265 OA
ENDBRANCH  39  40
ENDBRANCH  38  39
ENDBRANCH   8  38
BRANCH   7  43
HETATM   43  O7  UNL     1      36.528   3.858  38.289  1.00  0.00    -0.360 OA
ATOM     44  H7  UNL     1      35.858   4.531  38.292  1.00  0.00     0.217 HD
ENDBRANCH   7  43
TORSDOF 17
ENDMDL