MODEL 5
REMARK VINA RESULT: -8.861719429      1.246      2.158
REMARK  13 active torsions:
REMARK  status: ('A' for Active; 'I' for Inactive)
REMARK    1  A    between atoms: N1_1  and  C1_4
REMARK    2  A    between atoms: C3_8  and  N3_9
REMARK    3  A    between atoms: C4_16  and  N6_17
REMARK    4  A    between atoms: N6_17  and  C5_19
REMARK    5  A    between atoms: C5_19  and  C6_20
REMARK    6  A    between atoms: C6_20  and  N7_21
REMARK    7  A    between atoms: N7_21  and  C7_24
REMARK    8  A    between atoms: C7_24  and  C8_25
REMARK    9  A    between atoms: C10_27  and  C11_28
REMARK   10  A    between atoms: C11_28  and  O2_29
REMARK   11  A    between atoms: O2_29  and  C12_30
REMARK   12  A    between atoms: C12_30  and  C13_32
REMARK   13  A    between atoms: C14_33  and  O4_34
ROOT
HETATM    1  N7  UNL     1      31.728   3.339  43.169  1.00  0.00    -0.068 N
ATOM      2  H71 UNL     1      32.158   2.586  42.631  1.00  0.00     0.277 HD
ATOM      3  H72 UNL     1      30.754   3.159  42.926  1.00  0.00     0.277 HD
ENDROOT
BRANCH   1   4
HETATM    4  C6  UNL     1      32.162   4.631  42.722  1.00  0.00     0.253 C
BRANCH   4   5
HETATM    5  C5  UNL     1      33.294   4.711  41.773  1.00  0.00     0.165 C
BRANCH   5   6
HETATM    6  N6  UNL     1      32.933   4.719  40.404  1.00  0.00    -0.222 N
ATOM      7  H6  UNL     1      32.338   5.497  40.121  1.00  0.00     0.177 HD
BRANCH   6   8
HETATM    8  C4  UNL     1      33.235   3.911  39.474  1.00  0.00     0.723 A
HETATM    9  N5  UNL     1      34.359   4.182  38.754  1.00  0.00    -0.004 N
HETATM   10  C2  UNL     1      34.782   3.428  37.748  1.00  0.00     0.214 A
HETATM   11  O1  UNL     1      35.189   5.179  38.922  1.00  0.00    -0.131 OA
HETATM   12  N2  UNL     1      34.083   2.322  37.395  1.00  0.00    -0.170 N
HETATM   13  C3  UNL     1      35.937   4.021  37.293  1.00  0.00     0.169 A
HETATM   14  C1  UNL     1      32.969   2.012  38.078  1.00  0.00     0.692 A
ATOM     15  H2  UNL     1      34.398   1.735  36.623  1.00  0.00     0.186 HD
HETATM   16  N10 UNL     1      32.556   2.809  39.108  1.00  0.00    -0.020 N
ATOM     17  H10 UNL     1      31.706   2.561  39.616  1.00  0.00     0.203 HD
HETATM   18  N4  UNL     1      36.153   5.103  38.049  1.00  0.00    -0.221 N
ATOM     19  H4  UNL     1      36.934   5.754  37.958  1.00  0.00     0.198 HD
BRANCH  14  20
HETATM   20  N1  UNL     1      32.290   0.962  37.740  1.00  0.00    -0.234 N
ATOM     21  H12 UNL     1      32.166   0.714  36.759  1.00  0.00     0.174 HD
ATOM     22  H11 UNL     1      31.886   0.373  38.469  1.00  0.00     0.174 HD
ENDBRANCH  14  20
BRANCH  13  23
HETATM   23  N3  UNL     1      36.689   3.626  36.319  1.00  0.00    -0.381 N
ATOM     24  H32 UNL     1      36.432   2.929  35.619  1.00  0.00     0.157 HD
ATOM     25  H31 UNL     1      37.635   3.940  36.102  1.00  0.00     0.157 HD
ENDBRANCH  13  23
ENDBRANCH   6   8
ENDBRANCH   5   6
ENDBRANCH   4   5
ENDBRANCH   1   4
BRANCH   1  26
HETATM   26  C7  UNL     1      31.969   3.191  44.607  1.00  0.00     0.299 C
BRANCH  26  27
HETATM   27  C8  UNL     1      33.215   2.380  44.803  1.00  0.00     0.103 A
HETATM   28  C9  UNL     1      34.515   2.766  44.895  1.00  0.00     0.065 A
HETATM   29  C10 UNL     1      35.291   1.650  45.093  1.00  0.00     0.059 A
HETATM   30  N9  UNL     1      34.408   0.602  45.105  1.00  0.00    -0.263 N
HETATM   31  O6  UNL     1      33.195   1.053  44.934  1.00  0.00    -0.240 OA
ATOM     32  H9  UNL     1      34.659  -0.379  45.229  1.00  0.00     0.194 HD
BRANCH  29  33
HETATM   33  C11 UNL     1      36.756   1.499  45.297  1.00  0.00     0.238 C
BRANCH  33  34
HETATM   34  O2  UNL     1      37.448   1.423  44.096  1.00  0.00    -0.311 OA
BRANCH  34  35
HETATM   35  C12 UNL     1      37.338   0.409  43.184  1.00  0.00     0.302 C
HETATM   36  O3  UNL     1      36.868  -0.695  43.513  1.00  0.00    -0.259 OA
BRANCH  35  37
HETATM   37  C13 UNL     1      37.793   0.709  41.819  1.00  0.00     0.141 A
HETATM   38  C14 UNL     1      37.059   1.510  40.975  1.00  0.00     0.161 A
HETATM   39  N8  UNL     1      37.426   1.723  39.699  1.00  0.00    -0.335 N
HETATM   40  C15 UNL     1      38.539   1.156  39.191  1.00  0.00     0.048 A
ATOM     41  H8  UNL     1      36.854   2.323  39.105  1.00  0.00     0.168 HD
HETATM   42  C16 UNL     1      38.892   1.363  37.850  1.00  0.00     0.030 A
HETATM   43  C20 UNL     1      39.285   0.355  40.021  1.00  0.00     0.042 A
HETATM   44  C17 UNL     1      40.020   0.736  37.395  1.00  0.00     0.002 A
HETATM   45  C18 UNL     1      40.797  -0.074  38.193  1.00  0.00     0.001 A
HETATM   46  C19 UNL     1      40.419  -0.251  39.489  1.00  0.00     0.018 A
HETATM   47  C21 UNL     1      38.935   0.113  41.347  1.00  0.00     0.204 A
HETATM   48  O5  UNL     1      39.662  -0.628  42.053  1.00  0.00    -0.286 OA
BRANCH  38  49
HETATM   49  O4  UNL     1      35.903   2.098  41.502  1.00  0.00    -0.345 OA
ATOM     50  H4  UNL     1      35.878   3.047  41.533  1.00  0.00     0.219 HD
ENDBRANCH  38  49
ENDBRANCH  35  37
ENDBRANCH  34  35
ENDBRANCH  33  34
ENDBRANCH  29  33
ENDBRANCH  26  27
ENDBRANCH   1  26
TORSDOF 13
ENDMDL