MODEL 1
REMARK VINA RESULT: -9.918305504      0.000      0.000
REMARK  11 active torsions:
REMARK  status: ('A' for Active; 'I' for Inactive)
REMARK    1  A    between atoms: N1_1  and  C1_4
REMARK    2  A    between atoms: C2_9  and  C3_10
REMARK    3  A    between atoms: N4_11  and  N5_13
REMARK       I    between atoms: N5_13  and  C4_15
REMARK    4  A    between atoms: C4_15  and  C5_17
REMARK    5  A    between atoms: C7_19  and  N6_20
REMARK    6  A    between atoms: N6_20  and  C8_22
REMARK    7  A    between atoms: C11_25  and  C12_26
REMARK       I    between atoms: C12_26  and  N7_28
REMARK    8  A    between atoms: N7_28  and  N8_30
REMARK    9  A    between atoms: N8_30  and  C13_32
REMARK   10  A    between atoms: C13_32  and  C14_33
REMARK   11  A    between atoms: C18_39  and  N10_40
ROOT
HETATM    1  C5  UNL     1      35.124   0.270  45.065  1.00  0.00     0.287 C
HETATM    2  C6  UNL     1      36.307   0.175  44.120  1.00  0.00     0.119 C
HETATM    3  C7  UNL     1      36.598   1.517  43.539  1.00  0.00     0.082 C
HETATM    4  N11 UNL     1      36.148   2.601  44.039  1.00  0.00    -0.357 N
ATOM      5  H11 UNL     1      36.393   3.479  43.581  1.00  0.00     0.162 HD
HETATM    6  C19 UNL     1      35.325   2.658  45.194  1.00  0.00     0.356 C
HETATM    7  N12 UNL     1      35.252   1.432  45.923  1.00  0.00    -0.046 N
ATOM      8 1H12 UNL     1      36.048   1.334  46.552  1.00  0.00     0.280 HD
ATOM      9 2H12 UNL     1      34.500   1.462  46.611  1.00  0.00     0.280 HD
ENDROOT
BRANCH   3  10
HETATM   10  N6  UNL     1      37.400   1.556  42.377  1.00  0.00    -0.326 N
ATOM     11  H6  UNL     1      38.384   1.299  42.456  1.00  0.00     0.169 HD
BRANCH  10  12
HETATM   12  C8  UNL     1      36.897   1.937  41.096  1.00  0.00     0.149 A
HETATM   13  C9  UNL     1      37.524   1.709  39.910  1.00  0.00     0.059 A
HETATM   14  C10 UNL     1      36.675   2.246  38.939  1.00  0.00     0.047 A
HETATM   15  C11 UNL     1      35.579   2.773  39.574  1.00  0.00     0.147 A
HETATM   16  O5  UNL     1      35.753   2.565  40.866  1.00  0.00    -0.288 OA
BRANCH  15  17
HETATM   17  C12 UNL     1      34.408   3.448  38.978  1.00  0.00     0.294 C
HETATM   18  O2  UNL     1      33.957   3.117  37.865  1.00  0.00    -0.264 OA
HETATM   19  N7  UNL     1      33.805   4.485  39.703  1.00  0.00    -0.257 N
ATOM     20  H7  UNL     1      34.190   4.739  40.612  1.00  0.00     0.191 HD
BRANCH  19  21
HETATM   21  N8  UNL     1      32.723   5.162  39.233  1.00  0.00    -0.260 N
ATOM     22  H8  UNL     1      31.917   4.537  39.204  1.00  0.00     0.197 HD
BRANCH  21  23
HETATM   23  C13 UNL     1      32.401   6.243  38.844  1.00  0.00     0.007 C
BRANCH  23  24
HETATM   24  C14 UNL     1      32.031   7.496  38.394  1.00  0.00     0.130 A
HETATM   25  N9  UNL     1      31.390   7.880  37.264  1.00  0.00    -0.356 N
HETATM   26  C15 UNL     1      31.035   9.097  36.906  1.00  0.00     0.089 A
ATOM     27  H9  UNL     1      31.153   7.134  36.609  1.00  0.00     0.166 HD
HETATM   28  C16 UNL     1      31.334  10.130  37.753  1.00  0.00     0.020 A
HETATM   29  C17 UNL     1      31.987   9.861  38.935  1.00  0.00     0.040 A
HETATM   30  C18 UNL     1      32.338   8.579  39.270  1.00  0.00     0.139 A
BRANCH  30  31
HETATM   31  N10 UNL     1      33.007   8.360  40.493  1.00  0.00    -0.113 N
HETATM   32  O3  UNL     1      34.269   8.462  40.567  1.00  0.00    -0.532 OA
HETATM   33  O4  UNL     1      32.386   8.036  41.657  1.00  0.00    -0.532 OA
ENDBRANCH  30  31
ENDBRANCH  23  24
ENDBRANCH  21  23
ENDBRANCH  19  21
ENDBRANCH  15  17
ENDBRANCH  10  12
ENDBRANCH   3  10
BRANCH   1  34
HETATM   34  C4  UNL     1      35.062  -0.937  45.915  1.00  0.00     0.267 C
HETATM   35  N5  UNL     1      34.032  -1.139  46.875  1.00  0.00    -0.269 N
ATOM     36  H5  UNL     1      33.308  -0.428  46.976  1.00  0.00     0.190 HD
HETATM   37  O1  UNL     1      35.947  -1.837  45.806  1.00  0.00    -0.269 OA
BRANCH  35  38
HETATM   38  N4  UNL     1      33.977  -2.261  47.672  1.00  0.00    -0.306 N
HETATM   39  C3  UNL     1      34.736  -2.376  48.707  1.00  0.00     0.157 C
ATOM     40  H4  UNL     1      33.327  -3.012  47.439  1.00  0.00     0.186 HD
BRANCH  39  41
HETATM   41  C2  UNL     1      34.693  -3.554  49.566  1.00  0.00     0.152 A
HETATM   42  N3  UNL     1      34.215  -4.783  49.243  1.00  0.00    -0.270 N
HETATM   43  N2  UNL     1      34.341  -5.596  50.271  1.00  0.00    -0.131 N
ATOM     44  H3  UNL     1      33.817  -5.038  48.339  1.00  0.00     0.189 HD
HETATM   45  C1  UNL     1      34.905  -4.877  51.258  1.00  0.00     0.692 A
ATOM     46  H2  UNL     1      34.067  -6.578  50.311  1.00  0.00     0.205 HD
HETATM   47  N13 UNL     1      35.119  -3.627  50.828  1.00  0.00    -0.173 N
ATOM     48  H13 UNL     1      35.534  -2.868  51.368  1.00  0.00     0.186 HD
BRANCH  45  49
HETATM   49  N1  UNL     1      35.181  -5.348  52.422  1.00  0.00    -0.233 N
ATOM     50  H12 UNL     1      35.969  -5.946  52.667  1.00  0.00     0.174 HD
ATOM     51  H11 UNL     1      34.622  -5.168  53.257  1.00  0.00     0.174 HD
ENDBRANCH  45  49
ENDBRANCH  39  41
ENDBRANCH  35  38
ENDBRANCH   1  34
TORSDOF 11
ENDMDL