MODEL 1
REMARK VINA RESULT: -10.164450130      0.000      0.000
REMARK  8 active torsions:
REMARK  status: ('A' for Active; 'I' for Inactive)
REMARK    1  A    between atoms: C2_4  and  C3_5
REMARK    2  A    between atoms: C3_5  and  N2_6
REMARK    3  A    between atoms: C5_11  and  S1_12
REMARK    4  A    between atoms: S1_12  and  C6_13
REMARK    5  A    between atoms: C6_13  and  C7_14
REMARK    6  A    between atoms: C9_17  and  C10_18
REMARK    7  A    between atoms: C10_18  and  O2_20
REMARK    8  A    between atoms: C17_36  and  C18_37
ROOT
HETATM    1  C7  UNL     1      35.439   2.412  43.037  1.00  0.00     0.031 C
HETATM    2  C8  UNL     1      34.105   2.861  43.088  1.00  0.00     0.090 C
HETATM    3  N4  UNL     1      33.828   4.032  42.379  1.00  0.00    -0.099 NA
HETATM    4  C9  UNL     1      33.037   2.292  43.740  1.00  0.00     0.135 C
HETATM    5  N5  UNL     1      33.014   1.004  44.202  1.00  0.00    -0.334 N
ATOM      6  H5  UNL     1      32.162   0.464  44.051  1.00  0.00     0.168 HD
HETATM    7  C12 UNL     1      34.050   0.386  44.852  1.00  0.00     0.153 A
HETATM    8  N6  UNL     1      33.933  -0.630  45.719  1.00  0.00    -0.174 N
ATOM      9  H6  UNL     1      33.055  -1.073  45.991  1.00  0.00     0.186 HD
HETATM   10  C13 UNL     1      35.145  -0.973  46.174  1.00  0.00     0.680 A
HETATM   11  N7  UNL     1      35.432  -1.902  47.016  1.00  0.00    -0.234 N
ATOM     12  H71 UNL     1      36.354  -2.164  47.362  1.00  0.00     0.174 HD
ATOM     13  H72 UNL     1      34.723  -2.498  47.443  1.00  0.00     0.174 HD
HETATM   14  N8  UNL     1      36.094  -0.175  45.602  1.00  0.00    -0.180 N
HETATM   15  C14 UNL     1      37.520  -0.212  45.841  1.00  0.00     0.176 C
HETATM   16  C15 UNL     1      35.422   0.659  44.790  1.00  0.00     0.146 A
HETATM   17  C16 UNL     1      36.036   1.649  44.014  1.00  0.00     0.212 C
HETATM   18  O3  UNL     1      37.247   1.873  44.222  1.00  0.00    -0.285 OA
ENDROOT
BRANCH   1  19
HETATM   19  C6  UNL     1      36.254   2.872  41.908  1.00  0.00     0.125 C
BRANCH  19  20
HETATM   20  S1  UNL     1      35.497   2.513  40.346  1.00  0.00    -0.106 SA
BRANCH  20  21
HETATM   21  C5  UNL     1      35.335   3.852  39.239  1.00  0.00     0.106 A
HETATM   22  N3  UNL     1      36.155   4.890  39.171  1.00  0.00    -0.185 N
HETATM   23  C4  UNL     1      35.985   5.927  38.284  1.00  0.00     0.680 A
ATOM     24  H3  UNL     1      36.951   4.922  39.808  1.00  0.00     0.185 HD
HETATM   25  N2  UNL     1      36.830   6.892  38.291  1.00  0.00    -0.221 N
HETATM   26  N10 UNL     1      34.944   5.908  37.434  1.00  0.00    -0.178 N
ATOM     27  H2  UNL     1      37.610   6.879  38.947  1.00  0.00     0.178 HD
HETATM   28  C19 UNL     1      34.073   4.881  37.453  1.00  0.00     0.151 A
ATOM     29  H10 UNL     1      34.814   6.674  36.774  1.00  0.00     0.185 HD
HETATM   30  C17 UNL     1      34.263   3.864  38.345  1.00  0.00     0.116 A
HETATM   31  N9  UNL     1      32.976   4.869  36.553  1.00  0.00    -0.081 NA
BRANCH  25  32
HETATM   32  C3  UNL     1      36.681   7.991  37.374  1.00  0.00     0.182 C
BRANCH  32  33
HETATM   33  C2  UNL     1      35.752   8.994  37.972  1.00  0.00     0.075 C
HETATM   34  N1  UNL     1      34.810   9.483  37.272  1.00  0.00    -0.405 N
HETATM   35  C1  UNL     1      34.633   9.077  35.910  1.00  0.00     0.145 C
ATOM     36  H1  UNL     1      34.176  10.168  37.683  1.00  0.00     0.158 HD
ENDBRANCH  32  33
ENDBRANCH  25  32
BRANCH  30  37
HETATM   37  C18 UNL     1      33.338   2.768  38.379  1.00  0.00     0.215 C
HETATM   38  O4  UNL     1      33.521   1.770  37.652  1.00  0.00    -0.644 OA
HETATM   39  O5  UNL     1      32.241   2.800  39.203  1.00  0.00    -0.644 OA
ENDBRANCH  30  37
ENDBRANCH  20  21
ENDBRANCH  19  20
ENDBRANCH   1  19
BRANCH   4  40
HETATM   40  C10 UNL     1      31.843   3.109  43.958  1.00  0.00     0.311 C
HETATM   41  O1  UNL     1      30.964   3.191  43.082  1.00  0.00    -0.258 OA
BRANCH  40  42
HETATM   42  O2  UNL     1      31.655   3.811  45.140  1.00  0.00    -0.321 OA
HETATM   43  C11 UNL     1      30.828   4.942  45.193  1.00  0.00     0.213 C
ENDBRANCH  40  42
ENDBRANCH   4  40
TORSDOF 8
ENDMDL