MODEL 3
REMARK VINA RESULT: -9.697696161      1.487      1.634
REMARK  11 active torsions:
REMARK  status: ('A' for Active; 'I' for Inactive)
REMARK    1  A    between atoms: C2_2  and  O1_3
REMARK    2  A    between atoms: O1_3  and  C3_4
REMARK    3  A    between atoms: C3_4  and  C4_6
REMARK    4  A    between atoms: C6_8  and  C7_9
REMARK    5  A    between atoms: C7_9  and  O3_10
REMARK    6  A    between atoms: C7_9  and  C8_12
REMARK    7  A    between atoms: C8_12  and  C10_14
REMARK    8  A    between atoms: C12_23  and  N5_24
REMARK    9  A    between atoms: N7_30  and  N8_32
REMARK   10  A    between atoms: N11_37  and  N12_38
REMARK       I    between atoms: N12_38  and  C15_40
REMARK   11  A    between atoms: C19_45  and  O5_46
ROOT
HETATM    1  C10 UNL     1      34.025   3.464  40.071  1.00  0.00     0.144 A
HETATM    2  N1  UNL     1      33.130   4.219  40.596  1.00  0.00    -0.271 N
ATOM      3  H1  UNL     1      32.707   4.945  40.017  1.00  0.00     0.190 HD
HETATM    4  N2  UNL     1      32.700   4.094  41.947  1.00  0.00    -0.205 N
ATOM      5  H2  UNL     1      31.984   4.728  42.301  1.00  0.00     0.210 HD
HETATM    6  N3  UNL     1      33.229   3.130  42.797  1.00  0.00     0.109 N
HETATM    7  C11 UNL     1      34.169   2.318  42.281  1.00  0.00     0.757 A
HETATM    8  N4  UNL     1      34.735   1.355  43.048  1.00  0.00    -0.018 N
ATOM      9  H4  UNL     1      35.447   0.746  42.645  1.00  0.00     0.203 HD
HETATM   10  C12 UNL     1      34.372   1.189  44.331  1.00  0.00     0.705 A
HETATM   11  N6  UNL     1      33.445   1.986  44.846  1.00  0.00    -0.018 N
ATOM     12  H6  UNL     1      33.165   1.866  45.819  1.00  0.00     0.203 HD
HETATM   13  C13 UNL     1      32.848   2.982  44.083  1.00  0.00     0.749 A
HETATM   14  N7  UNL     1      32.005   3.661  44.638  1.00  0.00    -0.127 N
ATOM     15  H7  UNL     1      31.940   3.312  45.594  1.00  0.00     0.205 HD
HETATM   16  N11 UNL     1      34.582   2.473  40.912  1.00  0.00    -0.066 N
ENDROOT
BRANCH   1  17
HETATM   17  C8  UNL     1      34.505   3.556  38.662  1.00  0.00     0.086 C
HETATM   18  C9  UNL     1      33.304   3.946  37.791  1.00  0.00     0.021 C
BRANCH  17  19
HETATM   19  C7  UNL     1      35.567   4.556  38.474  1.00  0.00     0.162 C
BRANCH  19  20
HETATM   20  C6  UNL     1      35.068   5.880  38.094  1.00  0.00    -0.028 A
HETATM   21  C5  UNL     1      34.601   6.775  39.013  1.00  0.00     0.030 A
HETATM   22  C4  UNL     1      34.146   8.037  38.660  1.00  0.00     0.073 A
HETATM   23  C19 UNL     1      34.153   8.420  37.358  1.00  0.00     0.084 A
HETATM   24  C18 UNL     1      34.621   7.525  36.420  1.00  0.00     0.038 A
HETATM   25  C17 UNL     1      35.078   6.275  36.740  1.00  0.00     0.012 A
BRANCH  22  26
HETATM   26  C3  UNL     1      33.673   8.962  39.678  1.00  0.00     0.296 C
HETATM   27  O2  UNL     1      34.482   9.503  40.491  1.00  0.00    -0.259 OA
BRANCH  26  28
HETATM   28  O1  UNL     1      32.336   9.299  39.816  1.00  0.00    -0.318 OA
BRANCH  28  29
HETATM   29  C2  UNL     1      31.289   8.439  39.415  1.00  0.00     0.174 C
HETATM   30  C1  UNL     1      30.478   9.157  38.342  1.00  0.00     0.034 C
ENDBRANCH  28  29
ENDBRANCH  26  28
ENDBRANCH  22  26
BRANCH  23  31
HETATM   31  O5  UNL     1      33.696   9.696  36.968  1.00  0.00    -0.355 OA
HETATM   32  C20 UNL     1      33.015   9.917  35.757  1.00  0.00     0.210 C
ENDBRANCH  23  31
ENDBRANCH  19  20
BRANCH  19  33
HETATM   33  O3  UNL     1      36.576   4.214  37.568  1.00  0.00    -0.390 OA
ATOM     34  H3  UNL     1      37.340   3.965  38.074  1.00  0.00     0.210 HD
ENDBRANCH  19  33
ENDBRANCH  17  19
ENDBRANCH   1  17
BRANCH  16  35
HETATM   35  N12 UNL     1      35.568   1.615  40.451  1.00  0.00    -0.248 N
HETATM   36  C15 UNL     1      36.921   2.015  40.576  1.00  0.00     0.233 C
HETATM   37  C16 UNL     1      37.990   1.117  40.087  1.00  0.00     0.119 C
HETATM   38  O4  UNL     1      37.238   3.124  41.096  1.00  0.00    -0.272 OA
ATOM     39  H12 UNL     1      35.326   0.718  40.032  1.00  0.00     0.191 HD
ENDBRANCH  16  35
BRANCH  10  40
HETATM   40  N5  UNL     1      34.955   0.246  45.018  1.00  0.00    -0.234 N
ATOM     41  H52 UNL     1      35.014  -0.720  44.694  1.00  0.00     0.174 HD
ATOM     42  H51 UNL     1      35.366   0.490  45.919  1.00  0.00     0.174 HD
ENDBRANCH  10  40
BRANCH  14  43
HETATM   43  N8  UNL     1      31.158   4.629  44.549  1.00  0.00    -0.262 N
HETATM   44  C14 UNL     1      30.295   5.051  45.412  1.00  0.00     0.216 C
HETATM   45  N9  UNL     1      30.232   4.381  46.667  1.00  0.00    -0.065 NA
HETATM   46  N10 UNL     1      29.449   6.136  45.094  1.00  0.00    -0.065 NA
ATOM     47  H8  UNL     1      31.172   5.137  43.664  1.00  0.00     0.190 HD
ENDBRANCH  14  43
TORSDOF 11
ENDMDL