MODEL 3
REMARK VINA RESULT: -4.286166325      0.860      1.998
REMARK  0 active torsions:
REMARK  status: ('A' for Active; 'I' for Inactive)
ROOT
HETATM    1  C1  UNL     1      26.305   6.580   6.230  1.00  0.00     0.004 C
HETATM    2  C2  UNL     1      25.976   5.141   5.902  1.00  0.00     0.026 C
HETATM    3  C3  UNL     1      25.799   4.943   4.426  1.00  0.00     0.167 C
HETATM    4  O1  UNL     1      26.878   5.435   3.681  1.00  0.00    -0.391 OA
HETATM    5  C4  UNL     1      26.871   6.834   3.899  1.00  0.00     0.167 C
HETATM    6  C5  UNL     1      27.461   6.981   5.307  1.00  0.00     0.026 C
ENDROOT
TORSDOF 0
ENDMDL