MODEL 1
REMARK VINA RESULT: -5.199296290      0.000      0.000
REMARK  0 active torsions:
REMARK  status: ('A' for Active; 'I' for Inactive)
ROOT
HETATM    1  C1  UNL     1      27.446   6.444   3.657  1.00  0.00     0.015 C
HETATM    2  C2  UNL     1      26.299   6.574   4.646  1.00  0.00    -0.040 A
HETATM    3  C3  UNL     1      25.174   5.668   4.229  1.00  0.00     0.010 C
HETATM    4  C4  UNL     1      26.158   4.593   4.732  1.00  0.00     0.006 C
HETATM    5  C5  UNL     1      26.265   5.557   5.860  1.00  0.00    -0.006 A
HETATM    6  C6  UNL     1      26.792   6.870   5.955  1.00  0.00     0.015 A
ENDROOT
TORSDOF 0
ENDMDL