MODEL 5
REMARK VINA RESULT: -3.921649159      1.149      1.972
REMARK  0 active torsions:
REMARK  status: ('A' for Active; 'I' for Inactive)
ROOT
HETATM    1  C1  UNL     1      24.893   5.707   3.853  1.00  0.00     0.015 C
HETATM    2  C2  UNL     1      26.366   5.521   4.061  1.00  0.00    -0.048 A
HETATM    3  C3  UNL     1      26.631   4.439   5.092  1.00  0.00     0.015 C
HETATM    4  C4  UNL     1      27.195   5.293   2.835  1.00  0.00     0.008 A
HETATM    5  C5  UNL     1      27.900   6.623   3.001  1.00  0.00     0.001 A
HETATM    6  C6  UNL     1      27.105   6.812   4.283  1.00  0.00     0.008 A
ENDROOT
TORSDOF 0
ENDMDL