MODEL 2
REMARK VINA RESULT: -5.319803648      1.305      1.760
REMARK  0 active torsions:
REMARK  status: ('A' for Active; 'I' for Inactive)
ROOT
HETATM    1  C1  UNL     1      27.357   4.671   2.409  1.00  0.00     0.036 C
HETATM    2  C2  UNL     1      26.630   4.425   3.670  1.00  0.00    -0.028 C
HETATM    3  C3  UNL     1      26.388   5.371   4.571  1.00  0.00    -0.084 C
HETATM    4  C4  UNL     1      26.689   6.826   4.683  1.00  0.00     0.034 C
HETATM    5  C5  UNL     1      26.677   6.642   6.194  1.00  0.00     0.009 C
HETATM    6  C6  UNL     1      25.717   5.485   5.894  1.00  0.00     0.034 C
ENDROOT
TORSDOF 0
ENDMDL