MODEL 4
REMARK VINA RESULT: -4.819315572      0.979      3.300
REMARK  0 active torsions:
REMARK  status: ('A' for Active; 'I' for Inactive)
ROOT
HETATM    1  C1  UNL     1      25.854   5.234   6.219  1.00  0.00     0.012 C
HETATM    2  C2  UNL     1      26.096   5.635   5.106  1.00  0.00    -0.113 C
HETATM    3  C3  UNL     1      26.409   6.130   3.745  1.00  0.00     0.064 C
HETATM    4  C4  UNL     1      27.680   6.973   3.712  1.00  0.00     0.017 C
HETATM    5  C5  UNL     1      28.066   6.239   2.462  1.00  0.00     0.002 C
HETATM    6  C6  UNL     1      27.133   5.121   2.885  1.00  0.00     0.017 C
ENDROOT
TORSDOF 0
ENDMDL