MODEL 3
REMARK VINA RESULT: -4.922129633      0.928      1.930
REMARK  0 active torsions:
REMARK  status: ('A' for Active; 'I' for Inactive)
ROOT
HETATM    1  C1  UNL     1      27.781   7.248   3.568  1.00  0.00     0.019 C
HETATM    2  C2  UNL     1      27.172   6.640   4.559  1.00  0.00    -0.062 C
HETATM    3  C3  UNL     1      26.928   6.914   5.984  1.00  0.00     0.043 C
HETATM    4  C4  UNL     1      25.841   5.873   5.950  1.00  0.00     0.043 C
HETATM    5  C5  UNL     1      26.447   5.390   4.696  1.00  0.00    -0.062 C
HETATM    6  C6  UNL     1      26.335   4.261   4.017  1.00  0.00     0.019 C
ENDROOT
TORSDOF 0
ENDMDL