MODEL 2
REMARK VINA RESULT: -4.249523542      0.966      2.493
REMARK  0 active torsions:
REMARK  status: ('A' for Active; 'I' for Inactive)
ROOT
HETATM    1  C1  UNL     1      27.117   5.195   2.928  1.00  0.00     0.032 C
HETATM    2  C2  UNL     1      27.401   6.455   3.719  1.00  0.00     0.039 C
HETATM    3  C3  UNL     1      26.213   6.551   4.619  1.00  0.00     0.251 A
HETATM    4  C4  UNL     1      26.267   5.884   5.905  1.00  0.00     0.308 A
HETATM    5  N1  UNL     1      25.604   5.257   4.699  1.00  0.00     0.097 N
HETATM    6  C5  UNL     1      26.423   4.333   3.952  1.00  0.00     0.273 C
ENDROOT
TORSDOF 0
ENDMDL