MODEL 4
REMARK VINA RESULT: -4.726039754      0.852      2.738
REMARK  0 active torsions:
REMARK  status: ('A' for Active; 'I' for Inactive)
ROOT
HETATM    1  C1  UNL     1      26.796   6.867   6.006  1.00  0.00     0.011 C
HETATM    2  C2  UNL     1      26.393   6.494   4.569  1.00  0.00    -0.009 A
HETATM    3  C3  UNL     1      25.157   5.753   4.316  1.00  0.00     0.015 A
HETATM    4  C4  UNL     1      26.568   5.202   4.172  1.00  0.00    -0.037 A
HETATM    5  C5  UNL     1      27.116   5.076   2.710  1.00  0.00     0.010 A
HETATM    6  C6  UNL     1      26.730   3.978   3.615  1.00  0.00     0.010 A
ENDROOT
TORSDOF 0
ENDMDL