MODEL 3
REMARK VINA RESULT: -4.410538420      1.088      1.693
REMARK  0 active torsions:
REMARK  status: ('A' for Active; 'I' for Inactive)
ROOT
HETATM    1  C1  UNL     1      26.701   6.614   6.152  1.00  0.00     0.015 C
HETATM    2  C2  UNL     1      26.199   6.093   5.042  1.00  0.00    -0.080 A
HETATM    3  C3  UNL     1      25.135   5.797   4.057  1.00  0.00     0.047 A
HETATM    4  C4  UNL     1      26.462   5.273   3.776  1.00  0.00    -0.021 A
HETATM    5  C5  UNL     1      26.762   3.827   4.072  1.00  0.00     0.020 C
HETATM    6  C6  UNL     1      27.421   5.963   2.833  1.00  0.00     0.020 C
ENDROOT
TORSDOF 0
ENDMDL