MODEL 1
REMARK VINA RESULT: -3.753094023      0.000      0.000
REMARK  0 active torsions:
REMARK  status: ('A' for Active; 'I' for Inactive)
ROOT
HETATM    1  C1  UNL     1      26.186   5.360   6.022  1.00  0.00     0.011 C
HETATM    2  C2  UNL     1      25.336   5.268   4.754  1.00  0.00     0.011 C
HETATM    3  C3  UNL     1      26.437   5.246   3.683  1.00  0.00     0.074 C
HETATM    4  S1  UNL     1      27.314   6.780   4.209  1.00  0.00    -0.169 SA
HETATM    5  C4  UNL     1      26.637   6.823   5.924  1.00  0.00     0.074 C
ENDROOT
TORSDOF 0
ENDMDL