MODEL 4
REMARK VINA RESULT: -7.353776282      0.835      1.222
REMARK  10 active torsions:
REMARK  status: ('A' for Active; 'I' for Inactive)
REMARK    1  A    between atoms: N1_1  and  C1_4
REMARK    2  A    between atoms: C2_7  and  N3_8
REMARK    3  A    between atoms: C3_11  and  C4_12
REMARK       I    between atoms: C4_12  and  N5_14
REMARK    4  A    between atoms: N5_14  and  C5_16
REMARK    5  A    between atoms: C5_16  and  C6_17
REMARK    6  A    between atoms: C6_17  and  C7_18
REMARK    7  A    between atoms: C8_23  and  C9_24
REMARK    8  A    between atoms: C12_27  and  N8_28
REMARK    9  A    between atoms: C15_39  and  N13_40
REMARK   10  A    between atoms: C19_51  and  C20_52
ROOT
HETATM    1  N3  UNL     1       3.280  10.523  13.005  1.00  0.00    -0.071 N
HETATM    2  N4  UNL     1       4.272   9.662  13.245  1.00  0.00    -0.258 N
ATOM      3  H4  UNL     1       5.267   9.852  13.123  1.00  0.00     0.190 HD
HETATM    4  C3  UNL     1       3.745   8.508  13.675  1.00  0.00     0.191 A
HETATM    5  N7  UNL     1       2.408   8.694  13.687  1.00  0.00    -0.324 N
ATOM      6  H7  UNL     1       1.725   7.991  13.969  1.00  0.00     0.169 HD
HETATM    7  C8  UNL     1       2.105   9.929  13.278  1.00  0.00     0.129 A
ENDROOT
BRANCH   7   8
HETATM    8  C9  UNL     1       0.732  10.467  13.168  1.00  0.00     0.082 C
HETATM    9  C10 UNL     1      -0.230   9.448  12.676  1.00  0.00     0.018 C
HETATM   10  C11 UNL     1      -1.652   9.615  13.058  1.00  0.00     0.057 C
HETATM   11  C12 UNL     1      -1.940  10.523  14.207  1.00  0.00     0.308 C
HETATM   12  N14 UNL     1      -1.045  11.706  14.113  1.00  0.00    -0.052 N
HETATM   13  C17 UNL     1       0.284  11.163  14.435  1.00  0.00     0.247 C
ATOM     14 2H14 UNL     1      -1.094  12.202  13.223  1.00  0.00     0.279 HD
ATOM     15 1H14 UNL     1      -1.330  12.496  14.693  1.00  0.00     0.279 HD
BRANCH  11  16
HETATM   16  N8  UNL     1      -3.272  11.037  14.217  1.00  0.00    -0.239 N
HETATM   17  N9  UNL     1      -4.015  11.318  13.142  1.00  0.00    -0.236 N
HETATM   18  N10 UNL     1      -5.180  11.771  13.486  1.00  0.00    -0.269 N
ATOM     19  H9  UNL     1      -3.706  11.193  12.178  1.00  0.00     0.208 HD
HETATM   20  C13 UNL     1      -5.259  11.810  14.839  1.00  0.00     0.154 A
ATOM     21  H10 UNL     1      -5.919  12.053  12.841  1.00  0.00     0.190 HD
HETATM   22  N11 UNL     1      -6.215  12.186  15.700  1.00  0.00    -0.335 N
HETATM   23  C16 UNL     1      -4.026  11.335  15.280  1.00  0.00     0.143 A
HETATM   24  C14 UNL     1      -5.948  12.093  17.021  1.00  0.00     0.183 A
ATOM     25  H11 UNL     1      -7.115  12.533  15.369  1.00  0.00     0.168 HD
HETATM   26  N12 UNL     1      -4.766  11.636  17.473  1.00  0.00    -0.337 N
HETATM   27  C15 UNL     1      -3.779  11.248  16.633  1.00  0.00     0.132 A
ATOM     28  H12 UNL     1      -4.610  11.582  18.480  1.00  0.00     0.168 HD
BRANCH  27  29
HETATM   29  N13 UNL     1      -2.654  10.810  17.118  1.00  0.00    -0.383 N
ATOM     30 2H13 UNL     1      -2.066  11.364  17.740  1.00  0.00     0.157 HD
ATOM     31 1H13 UNL     1      -2.327   9.875  16.873  1.00  0.00     0.157 HD
ENDBRANCH  27  29
ENDBRANCH  11  16
ENDBRANCH   7   8
BRANCH   1  32
HETATM   32  C2  UNL     1       3.450  11.860  12.533  1.00  0.00     0.706 A
HETATM   33  N2  UNL     1       3.857  12.056  11.272  1.00  0.00    -0.174 N
HETATM   34  C1  UNL     1       4.047  13.273  10.734  1.00  0.00     0.131 A
ATOM     35  H2  UNL     1       4.032  11.238  10.689  1.00  0.00     0.186 HD
HETATM   36  C19 UNL     1       3.809  14.375  11.529  1.00  0.00     0.089 A
HETATM   37  C18 UNL     1       3.392  14.157  12.821  1.00  0.00     0.126 A
HETATM   38  N15 UNL     1       3.217  12.922  13.310  1.00  0.00    -0.199 N
ATOM     39  H15 UNL     1       2.906  12.792  14.272  1.00  0.00     0.183 HD
BRANCH  34  40
HETATM   40  N1  UNL     1       4.443  13.434   9.510  1.00  0.00    -0.384 N
ATOM     41  H12 UNL     1       4.291  14.327   9.040  1.00  0.00     0.157 HD
ATOM     42  H11 UNL     1       4.911  12.694   8.988  1.00  0.00     0.157 HD
ENDBRANCH  34  40
BRANCH  36  43
HETATM   43  C20 UNL     1       4.000  15.727  10.998  1.00  0.00     0.270 C
HETATM   44  N16 UNL     1       3.022  16.392  10.240  1.00  0.00    -0.057 NA
HETATM   45  O3  UNL     1       5.094  16.310  11.239  1.00  0.00    -0.271 OA
ENDBRANCH  36  43
ENDBRANCH   1  32
BRANCH   4  46
HETATM   46  C4  UNL     1       4.468   7.280  14.057  1.00  0.00     0.287 C
HETATM   47  O1  UNL     1       3.795   6.315  14.491  1.00  0.00    -0.264 OA
HETATM   48  N5  UNL     1       5.855   7.205  13.934  1.00  0.00    -0.354 N
ATOM     49  H5  UNL     1       6.350   8.022  13.575  1.00  0.00     0.162 HD
BRANCH  48  50
HETATM   50  C5  UNL     1       6.629   6.048  14.282  1.00  0.00     0.132 C
BRANCH  50  51
HETATM   51  C6  UNL     1       6.790   5.047  13.162  1.00  0.00     0.119 C
BRANCH  51  52
HETATM   52  C7  UNL     1       7.512   5.629  12.012  1.00  0.00     0.232 C
HETATM   53  N6  UNL     1       7.736   4.846  10.861  1.00  0.00    -0.062 NA
HETATM   54  O2  UNL     1       7.913   6.807  12.075  1.00  0.00    -0.277 OA
ENDBRANCH  51  52
ENDBRANCH  50  51
ENDBRANCH  48  50
ENDBRANCH   4  46
TORSDOF 10
ENDMDL