MODEL 2
REMARK VINA RESULT: -6.929399201      1.400      2.782
REMARK  17 active torsions:
REMARK  status: ('A' for Active; 'I' for Inactive)
REMARK    1  A    between atoms: C2_2  and  O2_4
REMARK    2  A    between atoms: O2_4  and  C3_5
REMARK    3  A    between atoms: C3_5  and  C4_6
REMARK    4  A    between atoms: C4_6  and  O3_7
REMARK    5  A    between atoms: C4_6  and  C5_9
REMARK    6  A    between atoms: C4_6  and  C6_12
REMARK    7  A    between atoms: C5_9  and  O4_10
REMARK    8  A    between atoms: C6_12  and  O5_14
REMARK    9  A    between atoms: C6_12  and  C8_16
REMARK   10  A    between atoms: C8_16  and  O7_18
REMARK   11  A    between atoms: O7_18  and  C9_19
REMARK   12  A    between atoms: C11_21  and  O8_22
REMARK   13  A    between atoms: C12_24  and  O9_26
REMARK   14  A    between atoms: C15_29  and  O10_30
REMARK   15  A    between atoms: C17_33  and  O11_34
REMARK   16  A    between atoms: C18_36  and  C20_38
REMARK   17  A    between atoms: C24_43  and  O13_44
ROOT
HETATM    1  C9  UNL     1       1.700   9.815  13.285  1.00  0.00     0.169 C
HETATM    2  C10 UNL     1       0.583  10.025  14.319  1.00  0.00     0.070 C
HETATM    3  C11 UNL     1       1.241  10.726  15.465  1.00  0.00     0.155 C
HETATM    4  C12 UNL     1       1.657  12.148  15.054  1.00  0.00     0.092 C
HETATM    5  C13 UNL     1       0.402  12.924  14.975  1.00  0.00     0.049 C
HETATM    6  C14 UNL     1       2.575  12.096  13.940  1.00  0.00     0.124 C
HETATM    7  C15 UNL     1       2.309  11.091  12.850  1.00  0.00     0.099 C
HETATM    8  C16 UNL     1       1.490  11.839  11.811  1.00  0.00     0.085 C
HETATM    9  C17 UNL     1       1.877  13.278  11.927  1.00  0.00     0.127 C
HETATM   10  C18 UNL     1       2.708  13.816  10.822  1.00  0.00     0.017 C
HETATM   11  C19 UNL     1       2.561  12.993   9.547  1.00  0.00     0.021 C
HETATM   12  C23 UNL     1       4.103  13.693  11.349  1.00  0.00     0.184 C
HETATM   13  O12 UNL     1       4.081  13.322  12.644  1.00  0.00    -0.351 OA
HETATM   14  C24 UNL     1       2.776  13.340  13.128  1.00  0.00     0.204 C
ENDROOT
BRANCH   1  15
HETATM   15  O7  UNL     1       2.699   9.091  14.018  1.00  0.00    -0.310 OA
BRANCH  15  16
HETATM   16  C8  UNL     1       2.957   7.765  13.848  1.00  0.00     0.297 C
HETATM   17  O6  UNL     1       2.071   7.067  13.261  1.00  0.00    -0.262 OA
BRANCH  16  18
HETATM   18  C6  UNL     1       4.210   7.134  14.319  1.00  0.00     0.176 C
HETATM   19  C7  UNL     1       4.221   7.254  15.830  1.00  0.00     0.060 C
BRANCH  18  20
HETATM   20  C4  UNL     1       5.379   7.822  13.684  1.00  0.00     0.140 C
BRANCH  20  21
HETATM   21  C3  UNL     1       6.075   8.769  14.644  1.00  0.00     0.222 C
BRANCH  21  22
HETATM   22  O2  UNL     1       5.883  10.118  14.270  1.00  0.00    -0.319 OA
BRANCH  22  23
HETATM   23  C2  UNL     1       5.763  11.116  15.205  1.00  0.00     0.254 C
HETATM   24  C1  UNL     1       5.118  10.891  16.516  1.00  0.00     0.126 C
HETATM   25  O1  UNL     1       6.209  12.255  14.944  1.00  0.00    -0.266 OA
ENDBRANCH  22  23
ENDBRANCH  21  22
ENDBRANCH  20  21
BRANCH  20  26
HETATM   26  O3  UNL     1       5.037   8.566  12.576  1.00  0.00    -0.382 OA
ATOM     27  H3  UNL     1       4.529   9.304  12.892  1.00  0.00     0.211 HD
ENDBRANCH  20  26
BRANCH  20  28
HETATM   28  C5  UNL     1       6.401   6.776  13.309  1.00  0.00     0.207 C
BRANCH  28  29
HETATM   29  O4  UNL     1       7.467   7.411  12.632  1.00  0.00    -0.398 OA
ATOM     30  H4  UNL     1       7.998   6.745  12.213  1.00  0.00     0.209 HD
ENDBRANCH  28  29
ENDBRANCH  20  28
ENDBRANCH  18  20
BRANCH  18  31
HETATM   31  O5  UNL     1       4.275   5.789  13.951  1.00  0.00    -0.377 OA
ATOM     32  H5  UNL     1       4.087   5.276  14.729  1.00  0.00     0.211 HD
ENDBRANCH  18  31
ENDBRANCH  16  18
ENDBRANCH  15  16
ENDBRANCH   1  15
BRANCH   7  33
HETATM   33  O10 UNL     1       3.515  10.775  12.211  1.00  0.00    -0.386 OA
ATOM     34  H10 UNL     1       4.122  11.481  12.397  1.00  0.00     0.210 HD
ENDBRANCH   7  33
BRANCH   3  35
HETATM   35  O8  UNL     1       0.307  10.812  16.501  1.00  0.00    -0.392 OA
ATOM     36  H8  UNL     1      -0.133  11.651  16.424  1.00  0.00     0.210 HD
ENDBRANCH   3  35
BRANCH   4  37
HETATM   37  O9  UNL     1       2.351  12.639  16.192  1.00  0.00    -0.387 OA
ATOM     38  H9  UNL     1       1.747  12.483  16.909  1.00  0.00     0.210 HD
ENDBRANCH   4  37
BRANCH  14  39
HETATM   39  O13 UNL     1       2.648  14.515  13.857  1.00  0.00    -0.362 OA
ATOM     40  H13 UNL     1       2.141  15.188  13.418  1.00  0.00     0.213 HD
ENDBRANCH  14  39
BRANCH   9  41
HETATM   41  O11 UNL     1       0.738  14.045  12.036  1.00  0.00    -0.383 OA
ATOM     42  H11 UNL     1       0.907  14.907  11.674  1.00  0.00     0.210 HD
ENDBRANCH   9  41
BRANCH  10  43
HETATM   43  C20 UNL     1       2.477  15.262  10.487  1.00  0.00    -0.009 C
HETATM   44  C21 UNL     1       1.638  15.521   9.296  1.00  0.00     0.010 C
HETATM   45  C22 UNL     1       3.831  15.918  10.317  1.00  0.00     0.010 C
ENDBRANCH  10  43
TORSDOF 17
ENDMDL