MODEL 4
REMARK VINA RESULT: -6.762132533      1.982      2.767
REMARK  13 active torsions:
REMARK  status: ('A' for Active; 'I' for Inactive)
REMARK    1  A    between atoms: N1_2  and  N2_3
REMARK    2  A    between atoms: N1_2  and  S1_7
REMARK    3  A    between atoms: N2_3  and  O1_5
REMARK    4  A    between atoms: S1_7  and  N3_10
REMARK       I    between atoms: N3_10  and  C2_12
REMARK    5  A    between atoms: C2_12  and  C3_14
REMARK    6  A    between atoms: C3_14  and  N4_15
REMARK    7  A    between atoms: C5_20  and  N5_21
REMARK    8  A    between atoms: C6_25  and  N6_26
REMARK       I    between atoms: N6_26  and  C7_28
REMARK       I    between atoms: C7_28  and  N7_30
REMARK    9  A    between atoms: N7_30  and  O6_32
REMARK   10  A    between atoms: O6_32  and  C8_33
REMARK   11  A    between atoms: C8_33  and  C9_35
REMARK   12  A    between atoms: N8_42  and  O8_44
REMARK   13  A    between atoms: C16_46  and  C17_47
ROOT
HETATM    1  C3  UNL     1       3.099  14.783  13.816  1.00  0.00     0.224 C
HETATM    2  C4  UNL     1       2.714  13.703  12.907  1.00  0.00     0.085 C
HETATM    3  C5  UNL     1       2.733  12.297  13.310  1.00  0.00     0.214 C
HETATM    4  C6  UNL     1       3.485  11.948  14.541  1.00  0.00     0.165 C
HETATM    5  C15 UNL     1       4.449  13.022  14.846  1.00  0.00     0.052 C
HETATM    6  N8  UNL     1       5.689  12.879  14.914  1.00  0.00    -0.274 N
ATOM      7  H8  UNL     1       6.194  13.737  15.138  1.00  0.00     0.193 HD
HETATM    8  C16 UNL     1       3.820  14.345  15.072  1.00  0.00     0.182 C
ENDROOT
BRANCH   1   9
HETATM    9  C2  UNL     1       3.879  15.827  13.088  1.00  0.00     0.270 C
HETATM   10  N3  UNL     1       3.627  17.208  13.235  1.00  0.00    -0.234 N
ATOM     11  H3  UNL     1       2.884  17.515  13.863  1.00  0.00     0.183 HD
HETATM   12  O4  UNL     1       4.790  15.467  12.319  1.00  0.00    -0.270 OA
BRANCH  10  13
HETATM   13  S1  UNL     1       4.543  18.387  12.381  1.00  0.00     0.342 S
HETATM   14  O2  UNL     1       3.798  19.710  12.500  1.00  0.00    -0.181 OA
HETATM   15  O3  UNL     1       5.906  18.575  13.007  1.00  0.00    -0.181 OA
BRANCH  13  16
HETATM   16  N1  UNL     1       4.681  18.025  10.720  1.00  0.00    -0.186 N
HETATM   17  C1  UNL     1       3.545  18.213   9.852  1.00  0.00     0.195 C
BRANCH  16  18
HETATM   18  N2  UNL     1       5.882  17.556  10.215  1.00  0.00    -0.198 N
ATOM     19  H2  UNL     1       6.697  18.167  10.165  1.00  0.00     0.216 HD
BRANCH  18  20
HETATM   20  O1  UNL     1       5.949  16.372   9.821  1.00  0.00    -0.274 OA
ATOM     21  H1  UNL     1       5.587  16.149   8.971  1.00  0.00     0.246 HD
ENDBRANCH  18  20
ENDBRANCH  16  18
ENDBRANCH  13  16
ENDBRANCH  10  13
ENDBRANCH   1   9
BRANCH   1  22
HETATM   22  N4  UNL     1       1.878  15.455  14.295  1.00  0.00    -0.060 N
ATOM     23  H43 UNL     1       2.021  16.435  14.539  1.00  0.00     0.275 HD
ATOM     24  H42 UNL     1       1.184  15.610  13.564  1.00  0.00     0.275 HD
ATOM     25  H41 UNL     1       1.535  14.888  15.070  1.00  0.00     0.275 HD
ENDBRANCH   1  22
BRANCH   8  26
HETATM   26  C17 UNL     1       4.685  15.364  15.627  1.00  0.00     0.185 C
HETATM   27  O9  UNL     1       5.929  15.294  15.528  1.00  0.00    -0.647 OA
HETATM   28  O10 UNL     1       4.141  16.450  16.287  1.00  0.00    -0.647 OA
ENDBRANCH   8  26
BRANCH   3  29
HETATM   29  N5  UNL     1       3.175  11.392  12.248  1.00  0.00    -0.073 N
ATOM     30  H53 UNL     1       4.185  11.253  12.290  1.00  0.00     0.274 HD
ATOM     31  H52 UNL     1       2.864  10.439  12.433  1.00  0.00     0.274 HD
ATOM     32  H51 UNL     1       2.889  11.690  11.316  1.00  0.00     0.274 HD
ENDBRANCH   3  29
BRANCH   4  33
HETATM   33  N6  UNL     1       4.126  10.653  14.502  1.00  0.00    -0.330 N
HETATM   34  C7  UNL     1       3.454   9.447  14.728  1.00  0.00     0.341 C
HETATM   35  O5  UNL     1       2.222   9.492  14.975  1.00  0.00    -0.245 OA
HETATM   36  N7  UNL     1       4.099   8.200  14.690  1.00  0.00    -0.207 N
ATOM     37  H7  UNL     1       5.098   8.142  14.490  1.00  0.00     0.200 HD
ATOM     38  H6  UNL     1       5.125  10.615  14.297  1.00  0.00     0.165 HD
BRANCH  36  39
HETATM   39  O6  UNL     1       3.380   7.074  14.921  1.00  0.00    -0.191 OA
BRANCH  39  40
HETATM   40  C8  UNL     1       3.150   6.076  13.989  1.00  0.00     0.315 C
HETATM   41  O7  UNL     1       4.027   5.207  13.799  1.00  0.00    -0.257 OA
BRANCH  40  42
HETATM   42  C9  UNL     1       1.879   6.046  13.231  1.00  0.00     0.041 A
HETATM   43  C10 UNL     1       1.244   7.198  12.856  1.00  0.00     0.017 A
HETATM   44  C11 UNL     1       0.050   7.123  12.149  1.00  0.00     0.001 A
HETATM   45  C12 UNL     1      -0.524   5.903  11.810  1.00  0.00     0.000 A
HETATM   46  C13 UNL     1       0.142   4.758  12.201  1.00  0.00     0.001 A
HETATM   47  C14 UNL     1       1.323   4.833  12.900  1.00  0.00     0.017 A
ENDBRANCH  40  42
ENDBRANCH  39  40
ENDBRANCH  36  39
ENDBRANCH   4  33
BRANCH   6  48
HETATM   48  O8  UNL     1       6.483  11.809  14.747  1.00  0.00    -0.290 OA
ATOM     49  H8  UNL     1       7.273  11.527  15.193  1.00  0.00     0.244 HD
ENDBRANCH   6  48
TORSDOF 13
ENDMDL