MODEL 2
REMARK VINA RESULT: -8.978221301      4.315      6.768
REMARK  12 active torsions:
REMARK  status: ('A' for Active; 'I' for Inactive)
REMARK    1  A    between atoms: N1_1  and  C1_4
REMARK    2  A    between atoms: C2_7  and  N3_8
REMARK    3  A    between atoms: N3_8  and  C3_10
REMARK    4  A    between atoms: C3_10  and  C4_11
REMARK    5  A    between atoms: C4_11  and  N4_12
REMARK       I    between atoms: N4_12  and  C5_14
REMARK    6  A    between atoms: C5_14  and  C6_16
REMARK    7  A    between atoms: C9_20  and  O3_21
REMARK    8  A    between atoms: C12_31  and  N8_32
REMARK    9  A    between atoms: C13_35  and  C14_36
REMARK   10  A    between atoms: C15_41  and  C16_42
REMARK   11  A    between atoms: C19_45  and  C20_46
REMARK   12  A    between atoms: C20_46  and  N12_47
ROOT
HETATM    1  C1  UNL     1       0.320   6.018  12.227  1.00  0.00     0.727 A
HETATM    2  N2  UNL     1      -0.762   6.199  11.458  1.00  0.00    -0.020 N
ATOM      3  H2  UNL     1      -1.219   5.384  11.048  1.00  0.00     0.203 HD
HETATM    4  C2  UNL     1      -1.262   7.412  11.209  1.00  0.00     0.707 A
HETATM    5  N6  UNL     1      -0.664   8.491  11.744  1.00  0.00    -0.019 N
ATOM      6  H6  UNL     1      -1.041   9.420  11.557  1.00  0.00     0.203 HD
HETATM    7  C11 UNL     1       0.427   8.360  12.526  1.00  0.00     0.748 A
HETATM    8  N7  UNL     1       1.222   9.230  13.187  1.00  0.00    -0.016 N
ATOM      9  H7  UNL     1       1.109  10.244  13.202  1.00  0.00     0.203 HD
HETATM   10  C12 UNL     1       2.191   8.536  13.826  1.00  0.00     0.736 A
HETATM   11  N13 UNL     1       1.951   7.246  13.530  1.00  0.00    -0.093 N
ATOM     12  H13 UNL     1       2.512   6.463  13.865  1.00  0.00     0.207 HD
HETATM   13  N14 UNL     1       0.909   7.129  12.760  1.00  0.00     0.106 N
ENDROOT
BRANCH  10  14
HETATM   14  N8  UNL     1       3.223   9.035  14.669  1.00  0.00    -0.065 N
HETATM   15  N9  UNL     1       2.908   9.978  15.593  1.00  0.00    -0.258 N
HETATM   16  C13 UNL     1       3.987  10.319  16.298  1.00  0.00     0.189 A
ATOM     17  H9  UNL     1       1.976  10.371  15.730  1.00  0.00     0.190 HD
HETATM   18  N11 UNL     1       4.980   9.582  15.807  1.00  0.00    -0.321 N
HETATM   19  C15 UNL     1       4.496   8.780  14.788  1.00  0.00     0.157 A
ATOM     20  H11 UNL     1       5.947   9.605  16.132  1.00  0.00     0.169 HD
BRANCH  16  21
HETATM   21  C14 UNL     1       4.043  11.302  17.380  1.00  0.00     0.300 C
HETATM   22  N10 UNL     1       3.609  12.626  17.128  1.00  0.00    -0.054 NA
HETATM   23  O4  UNL     1       4.478  10.952  18.525  1.00  0.00    -0.268 OA
ENDBRANCH  16  21
BRANCH  19  24
HETATM   24  C16 UNL     1       5.317   7.845  14.053  1.00  0.00     0.011 A
HETATM   25  C17 UNL     1       5.570   6.575  14.394  1.00  0.00     0.016 A
HETATM   26  C18 UNL     1       6.410   5.762  13.605  1.00  0.00     0.010 A
HETATM   27  C19 UNL     1       6.998   6.241  12.463  1.00  0.00    -0.033 A
HETATM   28  C21 UNL     1       6.742   7.531  12.116  1.00  0.00     0.010 A
HETATM   29  C22 UNL     1       5.920   8.320  12.890  1.00  0.00     0.016 A
BRANCH  27  30
HETATM   30  C20 UNL     1       7.892   5.372  11.626  1.00  0.00     0.268 C
BRANCH  30  31
HETATM   31  N12 UNL     1       8.508   6.155  10.575  1.00  0.00    -0.075 N
ATOM     32 3H12 UNL     1       8.833   5.571   9.805  1.00  0.00     0.274 HD
ATOM     33 2H12 UNL     1       7.823   6.710  10.062  1.00  0.00     0.274 HD
ATOM     34 1H12 UNL     1       9.256   6.732  10.959  1.00  0.00     0.274 HD
ENDBRANCH  30  31
ENDBRANCH  27  30
ENDBRANCH  19  24
ENDBRANCH  10  14
BRANCH   1  35
HETATM   35  N1  UNL     1       0.788   4.831  12.455  1.00  0.00    -0.232 N
ATOM     36  H12 UNL     1       0.628   4.063  11.802  1.00  0.00     0.174 HD
ATOM     37  H11 UNL     1       1.330   4.631  13.295  1.00  0.00     0.174 HD
ENDBRANCH   1  35
BRANCH   4  38
HETATM   38  N3  UNL     1      -2.304   7.532  10.465  1.00  0.00    -0.224 N
ATOM     39  H3  UNL     1      -2.529   6.798   9.794  1.00  0.00     0.177 HD
BRANCH  38  40
HETATM   40  C3  UNL     1      -3.162   8.692  10.566  1.00  0.00     0.157 C
BRANCH  40  41
HETATM   41  C4  UNL     1      -3.430   9.323   9.242  1.00  0.00     0.143 C
BRANCH  41  42
HETATM   42  N4  UNL     1      -2.585  10.416   8.890  1.00  0.00    -0.354 N
HETATM   43  C5  UNL     1      -2.340  10.877   7.589  1.00  0.00     0.268 C
HETATM   44  O1  UNL     1      -2.918  10.278   6.627  1.00  0.00    -0.266 OA
ATOM     45  H4  UNL     1      -2.117  10.905   9.653  1.00  0.00     0.162 HD
BRANCH  43  46
HETATM   46  C6  UNL     1      -1.475  11.990   7.234  1.00  0.00     0.104 A
HETATM   47  C7  UNL     1      -0.426  11.811   6.387  1.00  0.00     0.093 A
HETATM   48  C8  UNL     1       0.406  12.864   6.041  1.00  0.00     0.208 A
HETATM   49  O2  UNL     1       1.384  12.686   5.248  1.00  0.00    -0.285 OA
HETATM   50  C9  UNL     1       0.162  14.107   6.565  1.00  0.00     0.131 A
HETATM   51  C10 UNL     1      -0.900  14.282   7.421  1.00  0.00     0.129 A
HETATM   52  N5  UNL     1      -1.676  13.233   7.725  1.00  0.00    -0.359 N
ATOM     53  H5  UNL     1      -2.461  13.380   8.361  1.00  0.00     0.165 HD
BRANCH  50  54
HETATM   54  O3  UNL     1       0.975  15.186   6.240  1.00  0.00    -0.356 OA
ATOM     55  H3  UNL     1       1.290  15.777   6.914  1.00  0.00     0.218 HD
ENDBRANCH  50  54
ENDBRANCH  43  46
ENDBRANCH  41  42
ENDBRANCH  40  41
ENDBRANCH  38  40
ENDBRANCH   4  38
TORSDOF 12
ENDMDL