MODEL 5
REMARK VINA RESULT: -7.065885188      3.847      6.878
REMARK  12 active torsions:
REMARK  status: ('A' for Active; 'I' for Inactive)
REMARK       I    between atoms: N2_4  and  C3_6
REMARK       I    between atoms: C3_6  and  N3_7
REMARK       I    between atoms: C3_6  and  N4_11
REMARK    1  A    between atoms: C6_21  and  C7_22
REMARK    2  A    between atoms: C8_23  and  C9_24
REMARK    3  A    between atoms: N7_26  and  C11_27
REMARK    4  A    between atoms: C13_33  and  N10_34
REMARK    5  A    between atoms: N10_34  and  C14_36
REMARK    6  A    between atoms: C14_36  and  C15_37
REMARK    7  A    between atoms: C15_37  and  C16_38
REMARK    8  A    between atoms: C16_38  and  C17_39
REMARK    9  A    between atoms: C17_39  and  N11_41
REMARK   10  A    between atoms: C17_39  and  C19_45
REMARK   11  A    between atoms: C20_48  and  C21_49
REMARK   12  A    between atoms: C21_49  and  O3_50
ROOT
HETATM    1  C9  UNL     1       0.736   6.477  12.534  1.00  0.00     0.120 A
HETATM    2  C10 UNL     1      -0.349   6.736  11.728  1.00  0.00     0.160 A
HETATM    3  N7  UNL     1      -0.917   5.549  11.391  1.00  0.00    -0.233 N
HETATM    4  N12 UNL     1      -0.228   4.583  11.961  1.00  0.00    -0.234 N
ATOM      5  H12 UNL     1      -0.423   3.584  11.888  1.00  0.00     0.209 HD
HETATM    6  N13 UNL     1       0.771   5.139  12.652  1.00  0.00    -0.276 N
ATOM      7  H13 UNL     1       1.464   4.621  13.193  1.00  0.00     0.189 HD
ENDROOT
BRANCH   1   8
HETATM    8  C8  UNL     1       1.609   7.496  13.041  1.00  0.00    -0.037 C
HETATM    9  C7  UNL     1       2.375   8.351  13.427  1.00  0.00    -0.023 C
BRANCH   9  10
HETATM   10  C6  UNL     1       3.317   9.362  13.829  1.00  0.00     0.163 A
HETATM   11  N6  UNL     1       4.572   8.995  14.234  1.00  0.00    -0.343 N
HETATM   12  C5  UNL     1       5.472   9.872  14.668  1.00  0.00     0.124 A
ATOM     13  H6  UNL     1       4.827   8.008  14.202  1.00  0.00     0.167 HD
HETATM   14  C4  UNL     1       5.140  11.226  14.720  1.00  0.00     0.109 A
HETATM   15  N5  UNL     1       5.791  12.313  15.116  1.00  0.00    -0.186 N
HETATM   16  C22 UNL     1       3.907  11.591  14.321  1.00  0.00     0.154 A
HETATM   17  C2  UNL     1       4.974  13.438  14.983  1.00  0.00     0.685 A
ATOM     18  H5  UNL     1       6.748  12.325  15.465  1.00  0.00     0.184 HD
HETATM   19  N1  UNL     1       3.824  12.945  14.488  1.00  0.00    -0.170 N
HETATM   20  N2  UNL     1       5.355  14.564  15.320  1.00  0.00    -0.173 N
HETATM   21  C1  UNL     1       2.614  13.675  14.130  1.00  0.00     0.177 C
HETATM   22  C3  UNL     1       4.967  15.859  15.416  1.00  0.00     0.494 C
ATOM     23  H2  UNL     1       6.318  14.493  15.648  1.00  0.00     0.181 HD
HETATM   24  N3  UNL     1       3.671  15.986  16.122  1.00  0.00    -0.032 N
HETATM   25  N4  UNL     1       4.930  16.651  14.192  1.00  0.00    -0.032 N
ATOM     26  H33 UNL     1       2.950  15.412  15.684  1.00  0.00     0.278 HD
ATOM     27  H32 UNL     1       3.698  15.536  17.037  1.00  0.00     0.278 HD
ATOM     28  H31 UNL     1       3.379  16.961  16.194  1.00  0.00     0.278 HD
ATOM     29  H43 UNL     1       5.841  16.607  13.735  1.00  0.00     0.278 HD
ATOM     30  H42 UNL     1       4.346  16.177  13.503  1.00  0.00     0.278 HD
ATOM     31  H41 UNL     1       4.637  17.626  14.264  1.00  0.00     0.278 HD
HETATM   32  N14 UNL     1       3.020  10.656  13.884  1.00  0.00    -0.319 N
ATOM     33  H14 UNL     1       2.092  10.960  13.588  1.00  0.00     0.169 HD
ENDBRANCH   9  10
ENDBRANCH   1   8
BRANCH   3  34
HETATM   34  C11 UNL     1      -2.040   5.491  10.532  1.00  0.00     0.141 A
HETATM   35  N8  UNL     1      -1.849   5.274   9.223  1.00  0.00    -0.336 N
HETATM   36  C12 UNL     1      -2.904   5.220   8.360  1.00  0.00     0.183 A
ATOM     37  H8  UNL     1      -0.901   5.146   8.868  1.00  0.00     0.168 HD
HETATM   38  N9  UNL     1      -4.167   5.384   8.793  1.00  0.00    -0.338 N
HETATM   39  C13 UNL     1      -4.442   5.605  10.083  1.00  0.00     0.114 A
ATOM     40  H9  UNL     1      -4.933   5.340   8.121  1.00  0.00     0.168 HD
HETATM   41  C20 UNL     1      -3.337   5.656  10.959  1.00  0.00     0.055 A
BRANCH  39  42
HETATM   42  N10 UNL     1      -5.583   5.760  10.556  1.00  0.00    -0.376 N
ATOM     43  H10 UNL     1      -5.861   5.116  11.297  1.00  0.00     0.161 HD
BRANCH  42  44
HETATM   44  C14 UNL     1      -6.550   6.746  10.170  1.00  0.00     0.121 C
BRANCH  44  45
HETATM   45  C15 UNL     1      -6.016   8.076  10.590  1.00  0.00     0.023 C
BRANCH  45  46
HETATM   46  C16 UNL     1      -5.828   9.119   9.583  1.00  0.00     0.051 C
BRANCH  46  47
HETATM   47  C17 UNL     1      -4.529   9.297   8.895  1.00  0.00     0.206 C
HETATM   48  C18 UNL     1      -3.402   9.161   9.886  1.00  0.00     0.058 C
BRANCH  47  49
HETATM   49  N11 UNL     1      -4.545  10.821   8.621  1.00  0.00    -0.061 N
ATOM     50 3H11 UNL     1      -5.320  11.155   8.049  1.00  0.00     0.275 HD
ATOM     51 2H11 UNL     1      -4.767  11.408   9.425  1.00  0.00     0.275 HD
ATOM     52 1H11 UNL     1      -3.615  10.957   8.222  1.00  0.00     0.275 HD
ENDBRANCH  47  49
BRANCH  47  53
HETATM   53  C19 UNL     1      -4.302   8.667   7.609  1.00  0.00     0.210 C
HETATM   54  O1  UNL     1      -3.256   9.031   6.957  1.00  0.00    -0.646 OA
HETATM   55  O2  UNL     1      -5.064   7.712   6.996  1.00  0.00    -0.646 OA
ENDBRANCH  47  53
ENDBRANCH  46  47
ENDBRANCH  45  46
ENDBRANCH  44  45
ENDBRANCH  42  44
ENDBRANCH  39  42
BRANCH  41  56
HETATM   56  C21 UNL     1      -3.574   5.907  12.408  1.00  0.00     0.210 C
BRANCH  56  57
HETATM   57  O3  UNL     1      -4.067   4.732  13.027  1.00  0.00    -0.396 OA
ATOM     58  H3  UNL     1      -4.966   4.579  12.761  1.00  0.00     0.209 HD
ENDBRANCH  56  57
ENDBRANCH  41  56
ENDBRANCH   3  34
TORSDOF 12
ENDMDL