MODEL 3
REMARK VINA RESULT: -8.112609652      2.851      7.070
REMARK  13 active torsions:
REMARK  status: ('A' for Active; 'I' for Inactive)
REMARK    1  A    between atoms: C3_7  and  C4_8
REMARK       I    between atoms: C4_8  and  N3_10
REMARK    2  A    between atoms: N3_10  and  N4_11
REMARK    3  A    between atoms: N4_11  and  C5_13
REMARK    4  A    between atoms: C5_13  and  N5_15
REMARK    5  A    between atoms: N5_15  and  C6_17
REMARK    6  A    between atoms: C6_17  and  C7_18
REMARK    7  A    between atoms: C6_17  and  C9_22
REMARK    8  A    between atoms: C7_18  and  C8_19
REMARK       I    between atoms: C9_22  and  N6_24
REMARK    9  A    between atoms: N6_24  and  C10_26
REMARK   10  A    between atoms: C13_29  and  O5_30
REMARK   11  A    between atoms: N8_34  and  N9_35
REMARK   12  A    between atoms: N9_35  and  C15_37
REMARK   13  A    between atoms: N11_44  and  N12_45
ROOT
HETATM    1  C10 UNL     1       4.173  10.460  13.588  1.00  0.00     0.104 C
HETATM    2  C11 UNL     1       5.289  11.077  14.358  1.00  0.00     0.033 C
HETATM    3  C12 UNL     1       5.751  10.129  15.426  1.00  0.00     0.081 C
HETATM    4  C13 UNL     1       5.421   8.680  15.110  1.00  0.00     0.239 C
HETATM    5  C14 UNL     1       6.287   7.883  16.030  1.00  0.00     0.122 C
HETATM    6  N7  UNL     1       6.962   7.287  16.765  1.00  0.00    -0.192 NA
HETATM    7  N8  UNL     1       5.470   8.339  13.762  1.00  0.00    -0.277 N
HETATM    8  C19 UNL     1       4.502   9.137  12.987  1.00  0.00     0.172 C
ENDROOT
BRANCH   4   9
HETATM    9  O5  UNL     1       4.080   8.531  15.574  1.00  0.00    -0.358 OA
ATOM     10  H5  UNL     1       3.664   8.011  14.897  1.00  0.00     0.213 HD
ENDBRANCH   4   9
BRANCH   7  11
HETATM   11  N9  UNL     1       6.654   8.130  13.132  1.00  0.00    -0.284 N
ATOM     12  H9  UNL     1       7.328   8.896  13.114  1.00  0.00     0.188 HD
BRANCH  11  13
HETATM   13  C15 UNL     1       7.023   6.877  12.475  1.00  0.00     0.115 A
HETATM   14  N10 UNL     1       7.438   6.737  11.275  1.00  0.00    -0.372 N
HETATM   15  C16 UNL     1       7.711   5.378  10.971  1.00  0.00     0.148 A
ATOM     16  H10 UNL     1       7.557   7.507  10.616  1.00  0.00     0.161 HD
HETATM   17  C17 UNL     1       7.417   4.652  12.233  1.00  0.00    -0.004 A
HETATM   18  C18 UNL     1       7.013   5.574  13.085  1.00  0.00     0.047 A
ENDBRANCH  11  13
ENDBRANCH   7  11
BRANCH   1  19
HETATM   19  N6  UNL     1       3.619  11.371  12.645  1.00  0.00    -0.353 N
HETATM   20  C9  UNL     1       4.113  11.538  11.322  1.00  0.00     0.241 C
HETATM   21  O4  UNL     1       5.102  10.930  10.938  1.00  0.00    -0.271 OA
ATOM     22  H6  UNL     1       2.821  11.937  12.935  1.00  0.00     0.163 HD
BRANCH  20  23
HETATM   23  C6  UNL     1       3.368  12.471  10.428  1.00  0.00     0.186 C
BRANCH  23  24
HETATM   24  N5  UNL     1       2.269  13.151  10.952  1.00  0.00    -0.352 N
ATOM     25  H5  UNL     1       2.427  13.844  11.683  1.00  0.00     0.162 HD
BRANCH  24  26
HETATM   26  C5  UNL     1       0.950  12.923  10.514  1.00  0.00     0.197 C
HETATM   27  S1  UNL     1       0.125  14.113   9.775  1.00  0.00    -0.039 SA
BRANCH  26  28
HETATM   28  N4  UNL     1       0.302  11.681  10.737  1.00  0.00    -0.205 N
ATOM     29  H4  UNL     1      -0.354  11.393  10.011  1.00  0.00     0.204 HD
BRANCH  28  30
HETATM   30  N3  UNL     1       0.426  10.857  11.736  1.00  0.00    -0.276 NA
HETATM   31  C4  UNL     1       0.557   9.981  12.801  1.00  0.00     0.382 C
HETATM   32  O1  UNL     1       0.912  10.156  13.937  1.00  0.00    -0.246 OA
BRANCH  31  33
HETATM   33  C3  UNL     1       0.170   8.557  12.476  1.00  0.00     0.228 A
HETATM   34  N2  UNL     1      -0.908   8.187  11.734  1.00  0.00    -0.277 N
HETATM   35  N1  UNL     1      -0.894   6.889  11.582  1.00  0.00    -0.286 N
ATOM     36  H2  UNL     1      -1.612   8.820  11.357  1.00  0.00     0.189 HD
HETATM   37  C2  UNL     1       0.190   6.389  12.211  1.00  0.00     0.115 A
ATOM     38  H1  UNL     1      -1.589   6.344  11.071  1.00  0.00     0.188 HD
HETATM   39  C1  UNL     1       0.584   4.946  12.290  1.00  0.00     0.092 C
HETATM   40  N11 UNL     1       0.831   7.424  12.757  1.00  0.00    -0.226 N
BRANCH  40  41
HETATM   41  N12 UNL     1       1.952   7.389  13.556  1.00  0.00    -0.335 N
ATOM     42 2H12 UNL     1       2.828   6.955  13.266  1.00  0.00     0.177 HD
ATOM     43 1H12 UNL     1       2.075   7.818  14.474  1.00  0.00     0.177 HD
ENDBRANCH  40  41
ENDBRANCH  31  33
ENDBRANCH  28  30
ENDBRANCH  26  28
ENDBRANCH  24  26
ENDBRANCH  23  24
BRANCH  23  44
HETATM   44  C7  UNL     1       4.418  13.569  10.039  1.00  0.00     0.147 C
BRANCH  44  45
HETATM   45  C8  UNL     1       4.193  14.804  10.796  1.00  0.00     0.175 C
HETATM   46  O2  UNL     1       3.710  15.807  10.195  1.00  0.00    -0.648 OA
HETATM   47  O3  UNL     1       4.496  14.904  12.135  1.00  0.00    -0.648 OA
ENDBRANCH  44  45
ENDBRANCH  23  44
ENDBRANCH  20  23
ENDBRANCH   1  19
TORSDOF 13
ENDMDL