MODEL 4
REMARK VINA RESULT: -6.052409372      2.891      5.992
REMARK  17 active torsions:
REMARK  status: ('A' for Active; 'I' for Inactive)
REMARK    1  A    between atoms: N1_1  and  N2_4
REMARK    2  A    between atoms: N2_4  and  N3_5
REMARK    3  A    between atoms: N3_5  and  C1_7
REMARK    4  A    between atoms: C1_7  and  C2_8
REMARK    5  A    between atoms: C5_11  and  N4_12
REMARK    6  A    between atoms: C6_16  and  O1_17
REMARK    7  A    between atoms: O1_17  and  C7_18
REMARK    8  A    between atoms: C8_19  and  N5_20
REMARK    9  A    between atoms: C10_25  and  N6_26
REMARK   10  A    between atoms: C11_30  and  O2_31
REMARK   11  A    between atoms: O2_31  and  C12_32
REMARK   12  A    between atoms: C13_33  and  N7_34
REMARK   13  A    between atoms: C15_39  and  N8_40
REMARK   14  A    between atoms: C17_45  and  N9_46
REMARK   15  A    between atoms: C18_50  and  O3_51
REMARK   16  A    between atoms: O3_51  and  C19_52
REMARK   17  A    between atoms: C23_59  and  N11_60
ROOT
HETATM    1  C7  UNL     1      -1.578  10.047  13.655  1.00  0.00     0.186 C
HETATM    2  C8  UNL     1      -2.519  10.498  14.781  1.00  0.00     0.217 C
HETATM    3  C9  UNL     1      -1.788  11.158  15.910  1.00  0.00     0.071 C
HETATM    4  C10 UNL     1      -0.692  12.082  15.547  1.00  0.00     0.217 C
HETATM    5  C11 UNL     1       0.152  11.503  14.424  1.00  0.00     0.184 C
HETATM    6  C18 UNL     1      -0.813  11.287  13.273  1.00  0.00     0.184 C
ENDROOT
BRANCH   5   7
HETATM    7  O2  UNL     1       1.247  12.260  14.135  1.00  0.00    -0.372 OA
BRANCH   7   8
HETATM    8  C12 UNL     1       2.372  11.683  14.677  1.00  0.00     0.182 C
HETATM    9  C13 UNL     1       3.576  12.349  14.002  1.00  0.00     0.216 C
HETATM   10  C14 UNL     1       4.810  11.814  14.647  1.00  0.00     0.068 C
HETATM   11  C15 UNL     1       4.579  10.814  15.740  1.00  0.00     0.187 C
HETATM   12  C16 UNL     1       3.659   9.698  15.344  1.00  0.00     0.068 C
HETATM   13  C17 UNL     1       2.458  10.199  14.563  1.00  0.00     0.216 C
BRANCH   9  14
HETATM   14  N7  UNL     1       3.566  12.028  12.608  1.00  0.00    -0.072 N
ATOM     15  H73 UNL     1       2.631  11.801  12.269  1.00  0.00     0.274 HD
ATOM     16  H72 UNL     1       3.738  12.844  12.021  1.00  0.00     0.274 HD
ATOM     17  H71 UNL     1       4.235  11.277  12.436  1.00  0.00     0.274 HD
ENDBRANCH   9  14
BRANCH  11  18
HETATM   18  N8  UNL     1       5.886  10.214  16.052  1.00  0.00    -0.075 N
ATOM     19  H83 UNL     1       6.595  10.903  16.301  1.00  0.00     0.274 HD
ATOM     20  H82 UNL     1       5.891   9.699  16.932  1.00  0.00     0.274 HD
ATOM     21  H81 UNL     1       6.147   9.641  15.250  1.00  0.00     0.274 HD
ENDBRANCH  11  18
BRANCH  13  22
HETATM   22  N9  UNL     1       2.621   9.709  13.211  1.00  0.00    -0.072 N
ATOM     23  H93 UNL     1       1.760   9.267  12.887  1.00  0.00     0.274 HD
ATOM     24  H92 UNL     1       2.675  10.488  12.556  1.00  0.00     0.274 HD
ATOM     25  H91 UNL     1       3.413   9.080  13.082  1.00  0.00     0.274 HD
ENDBRANCH  13  22
ENDBRANCH   7   8
ENDBRANCH   5   7
BRANCH   4  26
HETATM   26  N6  UNL     1      -1.139  13.418  15.211  1.00  0.00    -0.072 N
ATOM     27  H63 UNL     1      -1.786  13.392  14.423  1.00  0.00     0.274 HD
ATOM     28  H62 UNL     1      -1.763  13.780  15.933  1.00  0.00     0.274 HD
ATOM     29  H61 UNL     1      -0.380  14.075  15.031  1.00  0.00     0.274 HD
ENDBRANCH   4  26
BRANCH   6  30
HETATM   30  O3  UNL     1      -0.119  11.232  12.096  1.00  0.00    -0.373 OA
BRANCH  30  31
HETATM   31  C19 UNL     1      -0.693  11.957  11.064  1.00  0.00     0.155 C
HETATM   32  C20 UNL     1       0.036  13.197  10.674  1.00  0.00     0.061 C
HETATM   33  C21 UNL     1       1.297  12.799   9.948  1.00  0.00     0.235 C
HETATM   34  N10 UNL     1       0.914  12.396   8.608  1.00  0.00    -0.073 N
HETATM   35  C22 UNL     1      -0.403  11.832   8.579  1.00  0.00     0.267 C
ATOM     36 2H10 UNL     1       1.002  13.170   7.949  1.00  0.00     0.277 HD
ATOM     37 1H10 UNL     1       1.600  11.761   8.201  1.00  0.00     0.277 HD
HETATM   38  C23 UNL     1      -0.740  11.066   9.845  1.00  0.00     0.237 C
BRANCH  38  39
HETATM   39  N11 UNL     1      -2.084  10.540   9.642  1.00  0.00    -0.071 N
ATOM     40 3H11 UNL     1      -2.160  10.023   8.766  1.00  0.00     0.274 HD
ATOM     41 2H11 UNL     1      -2.293   9.779  10.288  1.00  0.00     0.274 HD
ATOM     42 1H11 UNL     1      -2.777  11.287   9.702  1.00  0.00     0.274 HD
ENDBRANCH  38  39
ENDBRANCH  30  31
ENDBRANCH   6  30
BRANCH   1  43
HETATM   43  O1  UNL     1      -2.275   9.508  12.614  1.00  0.00    -0.349 OA
BRANCH  43  44
HETATM   44  C6  UNL     1      -2.087   8.183  12.367  1.00  0.00     0.291 C
HETATM   45  C5  UNL     1      -3.345   7.530  11.875  1.00  0.00     0.238 C
HETATM   46  C4  UNL     1      -3.114   6.030  12.020  1.00  0.00     0.040 C
HETATM   47  C3  UNL     1      -1.819   5.618  11.442  1.00  0.00     0.036 C
HETATM   48  C2  UNL     1      -0.760   6.641  11.325  1.00  0.00     0.145 C
HETATM   49  O4  UNL     1      -1.148   7.948  11.348  1.00  0.00    -0.352 OA
BRANCH  45  50
HETATM   50  N4  UNL     1      -4.549   7.948  12.504  1.00  0.00    -0.070 N
ATOM     51  H43 UNL     1      -5.327   7.958  11.844  1.00  0.00     0.274 HD
ATOM     52  H42 UNL     1      -4.895   7.238  13.149  1.00  0.00     0.274 HD
ATOM     53  H41 UNL     1      -4.446   8.850  12.967  1.00  0.00     0.274 HD
ENDBRANCH  45  50
BRANCH  48  54
HETATM   54  C1  UNL     1       0.362   6.438  12.352  1.00  0.00     0.187 C
BRANCH  54  55
HETATM   55  N3  UNL     1       0.703   5.047  12.472  1.00  0.00    -0.250 N
ATOM     56  H3  UNL     1       0.131   4.334  12.018  1.00  0.00     0.197 HD
BRANCH  55  57
HETATM   57  N2  UNL     1       1.689   4.727  13.125  1.00  0.00    -0.248 NA
BRANCH  57  58
HETATM   58  N1  UNL     1       2.778   4.589  13.654  1.00  0.00    -0.261 N
ATOM     59  H12 UNL     1       3.208   5.143  12.914  1.00  0.00     0.193 HD
ATOM     60  H11 UNL     1       3.586   4.365  14.234  1.00  0.00     0.193 HD
ENDBRANCH  57  58
ENDBRANCH  55  57
ENDBRANCH  54  55
ENDBRANCH  48  54
ENDBRANCH  43  44
ENDBRANCH   1  43
BRANCH   2  61
HETATM   61  N5  UNL     1      -3.567  11.318  14.229  1.00  0.00    -0.072 N
ATOM     62  H53 UNL     1      -3.546  12.269  14.596  1.00  0.00     0.274 HD
ATOM     63  H52 UNL     1      -3.408  11.538  13.246  1.00  0.00     0.274 HD
ATOM     64  H51 UNL     1      -4.468  10.865  14.383  1.00  0.00     0.274 HD
ENDBRANCH   2  61
TORSDOF 17
ENDMDL