MODEL 5
REMARK VINA RESULT: -7.319452396      1.218      2.032
REMARK  8 active torsions:
REMARK  status: ('A' for Active; 'I' for Inactive)
REMARK    1  A    between atoms: O1_2  and  C2_3
REMARK    2  A    between atoms: N6_27  and  C13_28
REMARK    3  A    between atoms: N8_37  and  C21_38
REMARK    4  A    between atoms: C21_38  and  C22_39
REMARK    5  A    between atoms: C22_39  and  N9_40
REMARK    6  A    between atoms: N9_40  and  C23_42
REMARK    7  A    between atoms: C23_42  and  C24_43
REMARK    8  A    between atoms: C24_43  and  N10_44
ROOT
HETATM    1  C2  UNL     1       3.204  13.457  13.309  1.00  0.00     0.561 C
HETATM    2  N1  UNL     1       2.122  14.327  12.935  1.00  0.00    -0.020 N
ATOM      3  H11 UNL     1       1.268  14.084  13.436  1.00  0.00     0.282 HD
ATOM      4  H12 UNL     1       1.813  14.138  11.982  1.00  0.00     0.282 HD
HETATM    5  C3  UNL     1       2.449  15.728  13.110  1.00  0.00     0.239 C
HETATM    6  C4  UNL     1       1.806  16.222  14.412  1.00  0.00     0.055 C
HETATM    7  C5  UNL     1       0.444  16.795  14.150  1.00  0.00     0.234 C
HETATM    8  N2  UNL     1      -0.643  15.924  14.517  1.00  0.00    -0.073 N
ATOM      9  H21 UNL     1      -0.827  15.246  13.778  1.00  0.00     0.277 HD
ATOM     10  H22 UNL     1      -1.529  16.429  14.509  1.00  0.00     0.277 HD
HETATM   11  C6  UNL     1      -0.448  15.254  15.786  1.00  0.00     0.259 C
HETATM   12  C7  UNL     1      -1.826  14.904  16.371  1.00  0.00     0.206 C
HETATM   13  O2  UNL     1      -2.668  14.380  15.394  1.00  0.00    -0.323 OA
HETATM   14  C8  UNL     1      -3.597  13.387  15.467  1.00  0.00     0.227 C
HETATM   15  N3  UNL     1      -4.973  13.682  15.226  1.00  0.00    -0.056 NA
HETATM   16  N4  UNL     1      -3.288  12.191  15.745  1.00  0.00    -0.357 N
ATOM     17  H4  UNL     1      -4.079  11.548  15.768  1.00  0.00     0.162 HD
HETATM   18  C9  UNL     1      -2.034  11.589  16.028  1.00  0.00     0.150 C
HETATM   19  C10 UNL     1      -1.185  11.401  14.778  1.00  0.00     0.252 C
HETATM   20  N5  UNL     1      -1.957  10.765  13.733  1.00  0.00    -0.072 N
ATOM     21  H51 UNL     1      -2.229  11.430  13.009  1.00  0.00     0.277 HD
ATOM     22  H52 UNL     1      -2.886  10.501  14.060  1.00  0.00     0.277 HD
HETATM   23  C11 UNL     1      -1.253   9.642  13.182  1.00  0.00     0.252 C
HETATM   24  C12 UNL     1      -0.146  10.144  12.281  1.00  0.00     0.150 C
HETATM   25  N6  UNL     1       1.153   9.739  12.750  1.00  0.00    -0.378 N
HETATM   26  C19 UNL     1       2.184  10.683  13.023  1.00  0.00     0.153 C
HETATM   27  C20 UNL     1       2.225  11.807  12.006  1.00  0.00     0.298 C
HETATM   28  N8  UNL     1       3.492  12.542  12.185  1.00  0.00     0.151 N
ENDROOT
BRANCH  28  29
HETATM   29  C21 UNL     1       3.688  13.375  11.023  1.00  0.00     0.322 C
BRANCH  29  30
HETATM   30  C22 UNL     1       2.872  12.937   9.814  1.00  0.00     0.085 C
BRANCH  30  31
HETATM   31  N9  UNL     1       2.002  13.939   9.346  1.00  0.00    -0.399 N
ATOM     32  H9  UNL     1       2.337  14.895   9.224  1.00  0.00     0.158 HD
BRANCH  31  33
HETATM   33  C23 UNL     1       0.663  13.611   9.045  1.00  0.00     0.138 C
BRANCH  33  34
HETATM   34  C24 UNL     1      -0.340  14.425   9.785  1.00  0.00     0.141 C
BRANCH  34  35
HETATM   35  N10 UNL     1      -1.540  13.786  10.174  1.00  0.00    -0.365 N
HETATM   36  C25 UNL     1      -1.779  13.472  11.397  1.00  0.00     0.197 C
HETATM   37  N11 UNL     1      -0.821  13.771  12.389  1.00  0.00    -0.067 NA
HETATM   38  N12 UNL     1      -2.997  12.832  11.726  1.00  0.00    -0.067 NA
ATOM     39  H10 UNL     1      -2.237  13.568   9.462  1.00  0.00     0.161 HD
ENDBRANCH  34  35
ENDBRANCH  33  34
ENDBRANCH  31  33
ENDBRANCH  30  31
ENDBRANCH  29  30
ENDBRANCH  28  29
BRANCH   1  40
HETATM   40  O1  UNL     1       4.355  14.167  13.649  1.00  0.00    -0.342 OA
HETATM   41  C1  UNL     1       4.987  13.681  14.774  1.00  0.00     0.206 C
ENDBRANCH   1  40
BRANCH  25  42
HETATM   42  C13 UNL     1       1.400   8.352  12.929  1.00  0.00     0.030 A
HETATM   43  C14 UNL     1       2.518   7.944  13.643  1.00  0.00     0.031 A
HETATM   44  C15 UNL     1       2.832   6.617  13.849  1.00  0.00     0.029 A
HETATM   45  C16 UNL     1       1.991   5.682  13.316  1.00  0.00     0.046 A
HETATM   46  N7  UNL     1       2.289   4.309  13.510  1.00  0.00    -0.102 NA
HETATM   47  C17 UNL     1       0.885   6.061  12.610  1.00  0.00     0.029 A
HETATM   48  C18 UNL     1       0.587   7.381  12.415  1.00  0.00     0.031 A
ENDBRANCH  25  42
TORSDOF 8
ENDMDL