MODEL 2
REMARK VINA RESULT: -6.985563106      2.282      2.528
REMARK  9 active torsions:
REMARK  status: ('A' for Active; 'I' for Inactive)
REMARK    1  A    between atoms: C5_7  and  C6_8
REMARK    2  A    between atoms: C8_14  and  N2_15
REMARK    3  A    between atoms: N2_15  and  C9_17
REMARK    4  A    between atoms: C9_17  and  O3_18
REMARK    5  A    between atoms: C9_17  and  C10_20
REMARK    6  A    between atoms: C10_20  and  C11_21
REMARK    7  A    between atoms: C10_20  and  N3_23
REMARK       I    between atoms: N3_23  and  C12_25
REMARK    8  A    between atoms: C12_25  and  C13_27
REMARK    9  A    between atoms: C18_40  and  C19_41
ROOT
HETATM    1  C1  UNL     1       0.932  15.309  10.717  1.00  0.00     0.030 C
HETATM    2  C2  UNL     1       0.345  14.284  11.630  1.00  0.00     0.043 C
HETATM    3  C3  UNL     1      -1.169  14.526  11.601  1.00  0.00     0.030 C
HETATM    4  S1  UNL     1       0.876  14.680  13.317  1.00  0.00    -0.086 SA
HETATM    5  S2  UNL     1       2.647  15.807  13.398  1.00  0.00    -0.094 SA
HETATM    6  C4  UNL     1       4.079  14.718  13.403  1.00  0.00     0.118 C
HETATM    7  C5  UNL     1       4.414  14.188  14.774  1.00  0.00     0.156 C
HETATM    8  N1  UNL     1       5.248  13.008  14.681  1.00  0.00    -0.347 N
ATOM      9  H1  UNL     1       6.245  13.099  14.879  1.00  0.00     0.163 HD
HETATM   10  C7  UNL     1       4.744  11.730  14.327  1.00  0.00     0.250 C
HETATM   11  O2  UNL     1       5.599  10.850  13.950  1.00  0.00    -0.271 OA
HETATM   12  C8  UNL     1       3.337  11.322  14.351  1.00  0.00     0.266 C
HETATM   13  C17 UNL     1       2.985  10.619  13.043  1.00  0.00     0.267 C
HETATM   14  O6  UNL     1       3.677   9.614  12.688  1.00  0.00    -0.269 OA
HETATM   15  N5  UNL     1       1.907  11.072  12.229  1.00  0.00    -0.271 N
ATOM     16  H5  UNL     1       1.538  10.448  11.511  1.00  0.00     0.189 HD
HETATM   17  N6  UNL     1       1.350  12.309  12.375  1.00  0.00    -0.317 N
ATOM     18  H6  UNL     1       1.432  12.821  13.253  1.00  0.00     0.181 HD
HETATM   19  C18 UNL     1       0.649  12.865  11.261  1.00  0.00     0.218 C
ENDROOT
BRANCH  12  20
HETATM   20  N2  UNL     1       2.998  10.469  15.401  1.00  0.00    -0.375 N
ATOM     21  H2  UNL     1       2.037  10.128  15.430  1.00  0.00     0.157 HD
BRANCH  20  22
HETATM   22  C9  UNL     1       3.848  10.044  16.407  1.00  0.00     0.244 C
BRANCH  22  23
HETATM   23  O3  UNL     1       4.763  11.067  16.810  1.00  0.00    -0.375 OA
ATOM     24  H3  UNL     1       4.400  11.627  17.486  1.00  0.00     0.212 HD
ENDBRANCH  22  23
BRANCH  22  25
HETATM   25  C10 UNL     1       4.634   8.795  16.333  1.00  0.00     0.194 C
BRANCH  25  26
HETATM   26  C11 UNL     1       3.881   7.811  17.259  1.00  0.00     0.260 C
HETATM   27  O4  UNL     1       4.544   6.942  17.783  1.00  0.00    -0.304 OA
ENDBRANCH  25  26
BRANCH  25  28
HETATM   28  N3  UNL     1       4.648   8.119  15.057  1.00  0.00    -0.344 N
HETATM   29  C12 UNL     1       5.855   7.674  14.469  1.00  0.00     0.249 C
HETATM   30  O5  UNL     1       6.942   7.892  15.127  1.00  0.00    -0.271 OA
ATOM     31  H3  UNL     1       3.767   7.958  14.569  1.00  0.00     0.163 HD
BRANCH  29  32
HETATM   32  C13 UNL     1       6.024   6.984  13.187  1.00  0.00     0.277 C
HETATM   33  C14 UNL     1       5.969   5.497  13.304  1.00  0.00     0.044 C
HETATM   34  C15 UNL     1       7.410   5.091  12.954  1.00  0.00     0.030 C
HETATM   35  C16 UNL     1       7.722   6.142  11.912  1.00  0.00     0.233 C
HETATM   36  N4  UNL     1       7.246   7.363  12.514  1.00  0.00    -0.062 N
ATOM     37  H42 UNL     1       7.137   8.136  11.858  1.00  0.00     0.278 HD
ATOM     38  H41 UNL     1       7.928   7.823  13.118  1.00  0.00     0.278 HD
ENDBRANCH  29  32
ENDBRANCH  25  28
ENDBRANCH  22  25
ENDBRANCH  20  22
ENDBRANCH  12  20
BRANCH   7  39
HETATM   39  C6  UNL     1       5.098  15.269  15.534  1.00  0.00     0.257 C
HETATM   40  O1  UNL     1       6.305  15.160  15.696  1.00  0.00    -0.305 OA
ENDBRANCH   7  39
BRANCH  19  41
HETATM   41  C19 UNL     1       1.345  12.706   9.978  1.00  0.00     0.199 C
HETATM   42  O7  UNL     1       0.621  12.607   8.951  1.00  0.00    -0.646 OA
HETATM   43  O8  UNL     1       2.691  12.653   9.775  1.00  0.00    -0.646 OA
ENDBRANCH  19  41
TORSDOF 9
ENDMDL