MODEL 1
REMARK VINA RESULT: -7.280519347      0.000      0.000
REMARK  12 active torsions:
REMARK  status: ('A' for Active; 'I' for Inactive)
REMARK    1  A    between atoms: C2_3  and  C3_4
REMARK    2  A    between atoms: C3_4  and  O1_5
REMARK    3  A    between atoms: C3_4  and  C5_8
REMARK       I    between atoms: C5_8  and  N3_10
REMARK    4  A    between atoms: N3_10  and  C6_12
REMARK    5  A    between atoms: C6_12  and  C7_13
REMARK       I    between atoms: C7_13  and  N4_15
REMARK    6  A    between atoms: N4_15  and  C8_17
REMARK    7  A    between atoms: C12_30  and  N9_31
REMARK    8  A    between atoms: N9_31  and  N10_33
REMARK    9  A    between atoms: N10_33  and  C13_35
REMARK   10  A    between atoms: C13_35  and  C14_36
REMARK   11  A    between atoms: C14_36  and  O4_37
REMARK   12  A    between atoms: C17_43  and  N12_44
ROOT
HETATM    1  O1  UNL     1       3.533   7.978  15.875  1.00  0.00    -0.260 OA
HETATM    2  C4  UNL     1       4.000   7.268  16.915  1.00  0.00     0.229 C
HETATM    3  N2  UNL     1       4.388   6.672  17.818  1.00  0.00    -0.164 NA
ENDROOT
BRANCH   1   4
HETATM    4  C3  UNL     1       3.912   7.819  14.530  1.00  0.00     0.301 C
BRANCH   4   5
HETATM    5  C2  UNL     1       2.745   7.281  13.801  1.00  0.00     0.126 A
HETATM    6  N1  UNL     1       2.436   5.996  13.541  1.00  0.00    -0.323 N
HETATM    7  C1  UNL     1       3.241   4.876  13.951  1.00  0.00     0.159 C
HETATM    8  C19 UNL     1       1.281   6.009  12.854  1.00  0.00     0.140 A
HETATM    9  C16 UNL     1       0.862   7.320  12.685  1.00  0.00     0.122 A
HETATM   10  N14 UNL     1       0.550   4.989  12.360  1.00  0.00    -0.336 N
HETATM   11  N11 UNL     1       1.784   8.061  13.277  1.00  0.00    -0.337 N
HETATM   12  C17 UNL     1      -0.305   7.590  12.007  1.00  0.00     0.131 A
ATOM     13  H11 UNL     1       1.768   9.079  13.329  1.00  0.00     0.167 HD
HETATM   14  N13 UNL     1      -1.006   6.548  11.529  1.00  0.00    -0.337 N
HETATM   15  C18 UNL     1      -0.584   5.281  11.703  1.00  0.00     0.183 A
ATOM     16  H13 UNL     1      -1.875   6.721  11.023  1.00  0.00     0.168 HD
ATOM     17  H14 UNL     1       0.850   4.022  12.481  1.00  0.00     0.168 HD
BRANCH  12  18
HETATM   18  N12 UNL     1      -0.720   8.794  11.833  1.00  0.00    -0.383 N
ATOM     19 2H12 UNL     1      -0.095   9.586  11.983  1.00  0.00     0.157 HD
ATOM     20 1H12 UNL     1      -1.677   8.993  11.543  1.00  0.00     0.157 HD
ENDBRANCH  12  18
ENDBRANCH   4   5
BRANCH   4  21
HETATM   21  C5  UNL     1       4.467   9.037  13.927  1.00  0.00     0.256 C
HETATM   22  O2  UNL     1       4.454   9.246  12.686  1.00  0.00    -0.270 OA
HETATM   23  N3  UNL     1       5.050  10.039  14.746  1.00  0.00    -0.350 N
ATOM     24  H3  UNL     1       5.072   9.893  15.755  1.00  0.00     0.163 HD
BRANCH  23  25
HETATM   25  C6  UNL     1       5.614  11.260  14.207  1.00  0.00     0.225 C
BRANCH  25  26
HETATM   26  C7  UNL     1       4.629  12.368  14.217  1.00  0.00     0.240 C
HETATM   27  O3  UNL     1       4.413  12.948  15.311  1.00  0.00    -0.271 OA
HETATM   28  N4  UNL     1       3.948  12.765  13.035  1.00  0.00    -0.311 N
ATOM     29  H4  UNL     1       4.423  13.324  12.325  1.00  0.00     0.170 HD
BRANCH  28  30
HETATM   30  C8  UNL     1       2.720  12.409  12.875  1.00  0.00     0.128 A
HETATM   31  N5  UNL     1       1.964  11.995  13.909  1.00  0.00    -0.318 N
HETATM   32  C9  UNL     1       0.689  11.636  13.677  1.00  0.00     0.179 A
ATOM     33  H5  UNL     1       2.352  11.955  14.852  1.00  0.00     0.170 HD
HETATM   34  S1  UNL     1      -0.186  11.143  14.965  1.00  0.00    -0.040 SA
HETATM   35  N6  UNL     1       0.132  11.670  12.454  1.00  0.00    -0.318 N
HETATM   36  C10 UNL     1       0.836  12.072  11.383  1.00  0.00     0.126 A
ATOM     37  H6  UNL     1      -0.841  11.385  12.338  1.00  0.00     0.170 HD
HETATM   38  N7  UNL     1       0.327  12.123  10.146  1.00  0.00    -0.338 N
HETATM   39  C15 UNL     1       2.163  12.449  11.611  1.00  0.00     0.098 A
HETATM   40  C11 UNL     1       1.100  12.539   9.129  1.00  0.00     0.183 A
ATOM     41  H7  UNL     1      -0.641  11.848   9.977  1.00  0.00     0.168 HD
HETATM   42  N8  UNL     1       2.375  12.904   9.326  1.00  0.00    -0.337 N
HETATM   43  C12 UNL     1       2.924  12.870  10.541  1.00  0.00     0.138 A
ATOM     44  H8  UNL     1       2.935  13.214   8.532  1.00  0.00     0.168 HD
BRANCH  43  45
HETATM   45  N9  UNL     1       4.144  13.210  10.783  1.00  0.00    -0.289 N
ATOM     46  H9  UNL     1       4.629  12.851  11.606  1.00  0.00     0.188 HD
BRANCH  45  47
HETATM   47  N10 UNL     1       4.791  14.078   9.903  1.00  0.00    -0.333 N
ATOM     48  H10 UNL     1       5.030  13.732   8.974  1.00  0.00     0.180 HD
BRANCH  47  49
HETATM   49  C13 UNL     1       5.137  15.429  10.232  1.00  0.00     0.165 C
BRANCH  49  50
HETATM   50  C14 UNL     1       4.223  16.021  11.287  1.00  0.00     0.185 C
BRANCH  50  51
HETATM   51  O4  UNL     1       4.625  15.634  12.555  1.00  0.00    -0.399 OA
ATOM     52  H4  UNL     1       3.905  15.705  13.171  1.00  0.00     0.209 HD
ENDBRANCH  50  51
ENDBRANCH  49  50
ENDBRANCH  47  49
ENDBRANCH  45  47
ENDBRANCH  43  45
ENDBRANCH  28  30
ENDBRANCH  25  26
ENDBRANCH  23  25
ENDBRANCH   4  21
ENDBRANCH   1   4
TORSDOF 12
ENDMDL