MODEL 2
REMARK VINA RESULT: -6.297533576      2.265      4.889
REMARK  7 active torsions:
REMARK  status: ('A' for Active; 'I' for Inactive)
REMARK    1  A    between atoms: C2_2  and  C3_3
REMARK    2  A    between atoms: C3_3  and  C4_4
REMARK    3  A    between atoms: C4_4  and  O1_6
REMARK    4  A    between atoms: C8_12  and  C9_13
REMARK    5  A    between atoms: C19_25  and  O6_26
REMARK    6  A    between atoms: O6_26  and  N1_27
REMARK    7  A    between atoms: C22_32  and  O7_33
ROOT
HETATM    1  C3  UNL     1      19.127  46.057  19.587  1.00  0.00     0.081 C
HETATM    2  C6  UNL     1      19.238  44.549  19.231  1.00  0.00     0.271 C
HETATM    3  O2  UNL     1      19.105  43.969  18.167  1.00  0.00    -0.264 OA
HETATM    4  O3  UNL     1      19.536  44.001  20.457  1.00  0.00    -0.310 OA
HETATM    5  C7  UNL     1      20.462  44.894  21.053  1.00  0.00     0.168 C
HETATM    6  C8  UNL     1      21.738  44.124  21.197  1.00  0.00    -0.043 C
HETATM    7  C13 UNL     1      22.996  44.808  21.232  1.00  0.00     0.061 C
HETATM    8  C14 UNL     1      23.226  45.388  22.647  1.00  0.00     0.151 C
HETATM    9  O4  UNL     1      22.275  46.329  23.001  1.00  0.00    -0.314 OA
HETATM   10  C15 UNL     1      21.261  46.966  22.281  1.00  0.00     0.271 C
HETATM   11  O5  UNL     1      20.354  47.396  23.021  1.00  0.00    -0.264 OA
HETATM   12  C16 UNL     1      21.176  47.165  20.794  1.00  0.00     0.081 C
HETATM   13  C17 UNL     1      20.819  48.597  20.591  1.00  0.00     0.029 C
HETATM   14  C18 UNL     1      20.503  46.097  20.129  1.00  0.00     0.061 C
HETATM   15  C19 UNL     1      22.657  47.197  20.358  1.00  0.00     0.181 C
HETATM   16  C20 UNL     1      23.389  45.948  20.413  1.00  0.00     0.022 C
HETATM   17  C21 UNL     1      23.715  45.526  18.995  1.00  0.00     0.021 C
HETATM   18  C22 UNL     1      24.791  46.199  21.029  1.00  0.00     0.140 C
HETATM   19  C23 UNL     1      24.632  45.872  22.495  1.00  0.00     0.007 C
HETATM   20  C24 UNL     1      25.646  44.796  22.874  1.00  0.00     0.020 C
HETATM   21  C25 UNL     1      24.944  47.045  23.400  1.00  0.00     0.020 C
ENDROOT
BRANCH   1  22
HETATM   22  C2  UNL     1      17.955  45.983  20.455  1.00  0.00     0.018 C
HETATM   23  C1  UNL     1      16.630  45.543  20.024  1.00  0.00     0.006 C
ENDBRANCH   1  22
BRANCH   1  24
HETATM   24  C4  UNL     1      18.941  46.625  18.215  1.00  0.00     0.133 C
HETATM   25  C5  UNL     1      18.331  47.967  18.063  1.00  0.00     0.040 C
BRANCH  24  26
HETATM   26  O1  UNL     1      20.148  46.628  17.493  1.00  0.00    -0.395 OA
ATOM     27  H1  UNL     1      20.254  47.432  16.997  1.00  0.00     0.210 HD
ENDBRANCH  24  26
ENDBRANCH   1  24
BRANCH   6  28
HETATM   28  C9  UNL     1      21.586  42.757  20.681  1.00  0.00     0.008 C
HETATM   29  C10 UNL     1      22.229  41.643  20.787  1.00  0.00    -0.087 C
HETATM   30  C11 UNL     1      23.443  41.298  21.523  1.00  0.00     0.043 C
HETATM   31  C12 UNL     1      21.631  40.451  20.006  1.00  0.00     0.043 C
ENDBRANCH   6  28
BRANCH  15  32
HETATM   32  O6  UNL     1      23.267  48.208  21.084  1.00  0.00    -0.280 OA
BRANCH  32  33
HETATM   33  N1  UNL     1      23.990  49.067  20.323  1.00  0.00    -0.311 N
ATOM     34  H12 UNL     1      23.551  49.712  19.665  1.00  0.00     0.184 HD
ATOM     35  H11 UNL     1      24.997  49.003  20.474  1.00  0.00     0.184 HD
ENDBRANCH  32  33
ENDBRANCH  15  32
BRANCH  18  36
HETATM   36  O7  UNL     1      25.761  45.410  20.472  1.00  0.00    -0.394 OA
ATOM     37  H7  UNL     1      26.463  45.207  21.081  1.00  0.00     0.210 HD
ENDBRANCH  18  36
TORSDOF 7
ENDMDL