MODEL 5
REMARK VINA RESULT: -5.870998955      2.490      4.902
REMARK  8 active torsions:
REMARK  status: ('A' for Active; 'I' for Inactive)
REMARK    1  A    between atoms: C4_4  and  O1_5
REMARK    2  A    between atoms: C12_15  and  O3_16
REMARK    3  A    between atoms: O3_16  and  C13_17
REMARK    4  A    between atoms: C15_20  and  O5_21
REMARK    5  A    between atoms: O5_21  and  C16_22
REMARK    6  A    between atoms: C16_22  and  O6_23
REMARK    7  A    between atoms: C19_26  and  O7_27
REMARK    8  A    between atoms: C21_30  and  O8_32
ROOT
HETATM    1  C1  UNL     1      23.459  40.970  21.630  1.00  0.00     0.024 C
HETATM    2  C2  UNL     1      23.411  42.188  21.050  1.00  0.00    -0.038 C
HETATM    3  C3  UNL     1      24.680  42.568  20.394  1.00  0.00     0.074 C
HETATM    4  C4  UNL     1      25.259  43.893  20.264  1.00  0.00     0.179 C
HETATM    5  O2  UNL     1      25.881  44.657  21.174  1.00  0.00    -0.320 OA
HETATM    6  C5  UNL     1      25.154  45.383  22.165  1.00  0.00     0.066 C
HETATM    7  C6  UNL     1      26.112  45.563  23.321  1.00  0.00     0.046 C
HETATM    8  C7  UNL     1      24.036  44.506  22.428  1.00  0.00     0.039 C
HETATM    9  C8  UNL     1      22.871  44.308  23.187  1.00  0.00     0.013 C
HETATM   10  C9  UNL     1      21.744  43.846  22.227  1.00  0.00     0.028 C
HETATM   11  C10 UNL     1      22.140  42.903  21.168  1.00  0.00    -0.063 C
HETATM   12  C11 UNL     1      21.757  43.363  19.746  1.00  0.00     0.070 C
HETATM   13  C12 UNL     1      20.276  43.108  19.451  1.00  0.00     0.165 C
HETATM   14  C15 UNL     1      19.538  44.386  19.801  1.00  0.00     0.162 C
HETATM   15  C18 UNL     1      19.734  44.625  21.255  1.00  0.00     0.066 A
HETATM   16  C19 UNL     1      20.135  45.928  21.726  1.00  0.00     0.081 A
HETATM   17  C20 UNL     1      21.494  46.262  22.339  1.00  0.00     0.068 A
HETATM   18  C21 UNL     1      22.319  47.356  21.798  1.00  0.00     0.061 C
HETATM   19  C22 UNL     1      22.436  47.524  20.332  1.00  0.00     0.046 C
HETATM   20  C23 UNL     1      23.697  47.416  22.420  1.00  0.00     0.041 C
HETATM   21  C24 UNL     1      24.792  46.759  21.644  1.00  0.00     0.041 C
HETATM   22  C25 UNL     1      21.207  45.074  21.577  1.00  0.00     0.017 A
ENDROOT
BRANCH  13  23
HETATM   23  O3  UNL     1      20.069  42.699  18.131  1.00  0.00    -0.313 OA
BRANCH  23  24
HETATM   24  C13 UNL     1      20.747  41.588  17.648  1.00  0.00     0.255 C
HETATM   25  C14 UNL     1      20.764  40.282  18.356  1.00  0.00     0.126 C
HETATM   26  O4  UNL     1      21.386  41.659  16.565  1.00  0.00    -0.266 OA
ENDBRANCH  23  24
ENDBRANCH  13  23
BRANCH  14  27
HETATM   27  O5  UNL     1      18.257  44.416  19.375  1.00  0.00    -0.359 OA
BRANCH  27  28
HETATM   28  C16 UNL     1      17.262  44.577  20.293  1.00  0.00     0.337 C
BRANCH  28  29
HETATM   29  O6  UNL     1      16.801  45.911  20.163  1.00  0.00    -0.372 OA
HETATM   30  C17 UNL     1      16.536  46.162  18.801  1.00  0.00     0.204 C
ENDBRANCH  28  29
ENDBRANCH  27  28
ENDBRANCH  14  27
BRANCH  16  31
HETATM   31  O7  UNL     1      19.676  46.964  20.992  1.00  0.00    -0.388 OA
ATOM     32  H7  UNL     1      18.854  46.803  20.544  1.00  0.00     0.210 HD
ENDBRANCH  16  31
BRANCH   4  33
HETATM   33  O1  UNL     1      24.692  44.661  19.199  1.00  0.00    -0.341 OA
ATOM     34  H1  UNL     1      25.063  44.459  18.348  1.00  0.00     0.220 HD
ENDBRANCH   4  33
BRANCH  18  35
HETATM   35  O8  UNL     1      21.652  48.550  22.223  1.00  0.00    -0.390 OA
ATOM     36  H8  UNL     1      22.026  49.236  21.682  1.00  0.00     0.210 HD
ENDBRANCH  18  35
TORSDOF 8
ENDMDL