MODEL 1
REMARK VINA RESULT: -5.917335992      0.000      0.000
REMARK  8 active torsions:
REMARK  status: ('A' for Active; 'I' for Inactive)
REMARK    1  A    between atoms: C2_2  and  O1_3
REMARK    2  A    between atoms: O1_3  and  C3_4
REMARK    3  A    between atoms: C8_9  and  O2_10
REMARK    4  A    between atoms: C10_13  and  O3_14
REMARK    5  A    between atoms: C13_18  and  C14_19
REMARK    6  A    between atoms: C18_23  and  O5_24
REMARK    7  A    between atoms: C19_26  and  O6_27
REMARK    8  A    between atoms: C20_29  and  O7_30
ROOT
HETATM    1  C3  UNL     1      21.505  44.580  19.473  1.00  0.00     0.054 C
HETATM    2  C4  UNL     1      20.392  44.067  18.730  1.00  0.00     0.029 C
HETATM    3  C5  UNL     1      19.080  44.229  18.884  1.00  0.00    -0.017 C
HETATM    4  C6  UNL     1      18.453  45.050  19.956  1.00  0.00     0.033 C
HETATM    5  C7  UNL     1      17.182  44.312  20.417  1.00  0.00     0.017 C
HETATM    6  C8  UNL     1      18.171  46.486  19.586  1.00  0.00     0.128 C
HETATM    7  C9  UNL     1      18.575  47.499  20.587  1.00  0.00     0.067 C
HETATM    8  C10 UNL     1      19.805  48.359  20.265  1.00  0.00     0.153 C
HETATM    9  C12 UNL     1      20.893  47.580  19.775  1.00  0.00     0.167 C
HETATM   10  O4  UNL     1      21.783  48.092  18.796  1.00  0.00    -0.370 OA
HETATM   11  C13 UNL     1      22.289  46.824  18.339  1.00  0.00     0.077 C
HETATM   12  C17 UNL     1      23.817  47.302  18.397  1.00  0.00     0.074 C
HETATM   13  C18 UNL     1      24.147  47.633  19.798  1.00  0.00     0.159 C
HETATM   14  C19 UNL     1      23.115  47.613  20.813  1.00  0.00     0.126 C
HETATM   15  C20 UNL     1      23.390  46.589  21.926  1.00  0.00     0.196 C
HETATM   16  C22 UNL     1      21.854  46.398  21.873  1.00  0.00     0.125 A
HETATM   17  C23 UNL     1      21.246  45.778  22.905  1.00  0.00     0.211 A
HETATM   18  O8  UNL     1      21.239  47.146  22.863  1.00  0.00    -0.371 OA
HETATM   19  C24 UNL     1      21.859  46.819  20.537  1.00  0.00     0.072 C
HETATM   20  C25 UNL     1      22.207  45.829  19.377  1.00  0.00     0.095 C
ENDROOT
BRANCH   1  21
HETATM   21  O1  UNL     1      22.449  43.493  19.480  1.00  0.00    -0.355 OA
BRANCH  21  22
HETATM   22  C2  UNL     1      22.117  42.492  20.344  1.00  0.00     0.170 C
HETATM   23  C1  UNL     1      22.751  42.627  21.710  1.00  0.00     0.034 C
ENDBRANCH  21  22
ENDBRANCH   1  21
BRANCH  11  24
HETATM   24  C14 UNL     1      22.114  46.607  16.901  1.00  0.00     0.013 C
HETATM   25  C15 UNL     1      20.741  46.893  16.362  1.00  0.00     0.012 C
HETATM   26  C16 UNL     1      23.044  47.441  15.999  1.00  0.00     0.012 C
ENDBRANCH  11  24
BRANCH  14  27
HETATM   27  O6  UNL     1      22.905  48.840  21.444  1.00  0.00    -0.383 OA
ATOM     28  H6  UNL     1      22.098  48.892  21.942  1.00  0.00     0.210 HD
ENDBRANCH  14  27
BRANCH   6  29
HETATM   29  O2  UNL     1      16.741  46.555  19.543  1.00  0.00    -0.395 OA
ATOM     30  H2  UNL     1      16.528  47.246  20.160  1.00  0.00     0.210 HD
ENDBRANCH   6  29
BRANCH  13  31
HETATM   31  O5  UNL     1      25.258  46.870  20.251  1.00  0.00    -0.392 OA
ATOM     32  H5  UNL     1      25.629  46.358  19.542  1.00  0.00     0.210 HD
ENDBRANCH  13  31
BRANCH   8  33
HETATM   33  O3  UNL     1      19.964  49.210  21.325  1.00  0.00    -0.388 OA
HETATM   34  C11 UNL     1      18.806  49.487  22.025  1.00  0.00     0.202 C
ENDBRANCH   8  33
BRANCH  15  35
HETATM   35  O7  UNL     1      23.835  47.117  23.109  1.00  0.00    -0.384 OA
HETATM   36  C21 UNL     1      25.009  46.622  23.595  1.00  0.00     0.202 C
ENDBRANCH  15  35
TORSDOF 8
ENDMDL