MODEL 2
REMARK VINA RESULT: -6.241400790      1.865      2.720
REMARK  7 active torsions:
REMARK  status: ('A' for Active; 'I' for Inactive)
REMARK    1  A    between atoms: C2_2  and  C3_3
REMARK    2  A    between atoms: C3_3  and  N1_4
REMARK    3  A    between atoms: C10_12  and  O2_13
REMARK    4  A    between atoms: C15_20  and  C16_21
REMARK    5  A    between atoms: C16_21  and  O4_22
REMARK    6  A    between atoms: C17_24  and  O5_25
REMARK    7  A    between atoms: C19_28  and  C20_29
ROOT
HETATM    1  N1  UNL     1      24.723  46.103  20.995  1.00  0.00    -0.362 N
HETATM    2  C4  UNL     1      23.799  46.750  20.112  1.00  0.00     0.126 C
HETATM    3  C5  UNL     1      22.689  45.884  19.597  1.00  0.00     0.038 C
HETATM    4  C6  UNL     1      21.445  45.739  20.362  1.00  0.00     0.044 C
HETATM    5  C7  UNL     1      21.336  46.790  21.476  1.00  0.00     0.079 C
HETATM    6  C8  UNL     1      22.130  46.390  22.685  1.00  0.00     0.264 C
HETATM    7  O1  UNL     1      21.892  45.140  23.053  1.00  0.00    -0.352 OA
HETATM    8  C9  UNL     1      21.625  44.119  22.259  1.00  0.00     0.167 C
HETATM    9  C10 UNL     1      22.777  43.175  22.374  1.00  0.00     0.148 C
HETATM   10  C11 UNL     1      24.151  43.681  22.153  1.00  0.00     0.039 C
HETATM   11  C12 UNL     1      24.565  44.841  23.013  1.00  0.00     0.063 C
HETATM   12  C13 UNL     1      24.480  46.187  22.378  1.00  0.00     0.135 C
HETATM   13  C14 UNL     1      25.543  47.046  23.115  1.00  0.00     0.071 C
HETATM   14  O3  UNL     1      23.356  46.904  22.588  1.00  0.00    -0.331 OA
HETATM   15  C15 UNL     1      21.055  44.372  20.877  1.00  0.00     0.050 C
HETATM   16  C17 UNL     1      19.531  44.358  21.107  1.00  0.00     0.135 C
HETATM   17  C18 UNL     1      18.627  44.492  19.983  1.00  0.00     0.074 C
HETATM   18  C19 UNL     1      17.980  45.868  19.780  1.00  0.00     0.106 A
HETATM   19  O6  UNL     1      18.216  46.785  20.749  1.00  0.00    -0.355 OA
HETATM   20  C23 UNL     1      19.045  46.913  19.687  1.00  0.00     0.150 A
HETATM   21  C24 UNL     1      18.803  48.168  18.869  1.00  0.00     0.058 C
HETATM   22  C25 UNL     1      20.320  46.253  19.450  1.00  0.00     0.173 C
HETATM   23  O7  UNL     1      20.506  46.084  18.247  1.00  0.00    -0.294 OA
ENDROOT
BRANCH   1  24
HETATM   24  C3  UNL     1      26.016  45.865  20.505  1.00  0.00     0.060 C
BRANCH  24  25
HETATM   25  C2  UNL     1      26.171  45.505  19.069  1.00  0.00     0.040 C
HETATM   26  C1  UNL     1      26.095  43.973  18.987  1.00  0.00     0.010 C
ENDBRANCH  24  25
ENDBRANCH   1  24
BRANCH  15  27
HETATM   27  C16 UNL     1      21.248  43.269  19.933  1.00  0.00     0.180 C
BRANCH  27  28
HETATM   28  O4  UNL     1      20.713  42.044  20.023  1.00  0.00    -0.400 OA
ATOM     29  H4  UNL     1      21.190  41.223  20.070  1.00  0.00     0.209 HD
ENDBRANCH  27  28
ENDBRANCH  15  27
BRANCH   9  30
HETATM   30  O2  UNL     1      22.837  42.842  23.769  1.00  0.00    -0.393 OA
ATOM     31  H2  UNL     1      22.808  41.893  23.791  1.00  0.00     0.210 HD
ENDBRANCH   9  30
BRANCH  16  32
HETATM   32  O5  UNL     1      19.171  45.003  22.274  1.00  0.00    -0.394 OA
ATOM     33  H5  UNL     1      18.801  45.863  22.111  1.00  0.00     0.210 HD
ENDBRANCH  16  32
BRANCH  18  34
HETATM   34  C20 UNL     1      16.734  45.958  18.968  1.00  0.00     0.016 C
HETATM   35  C21 UNL     1      16.865  45.370  17.582  1.00  0.00     0.012 C
HETATM   36  C22 UNL     1      15.597  45.212  19.648  1.00  0.00     0.012 C
ENDBRANCH  18  34
TORSDOF 7
ENDMDL