MODEL 2
REMARK VINA RESULT: -6.905839308      1.622      3.721
REMARK  6 active torsions:
REMARK  status: ('A' for Active; 'I' for Inactive)
REMARK    1  A    between atoms: O1_3  and  C3_4
REMARK    2  A    between atoms: C5_7  and  C6_8
REMARK    3  A    between atoms: C13_15  and  O3_16
REMARK    4  A    between atoms: C18_22  and  O4_23
REMARK    5  A    between atoms: C19_26  and  C20_27
REMARK    6  A    between atoms: C20_27  and  O6_28
ROOT
HETATM    1  C1  UNL     1      10.975  46.651  20.635  1.00  0.00     0.044 C
HETATM    2  C2  UNL     1      11.971  46.300  20.056  1.00  0.00     0.043 C
HETATM    3  O1  UNL     1      13.085  45.883  19.398  1.00  0.00    -0.293 OA
ENDROOT
BRANCH   3   4
HETATM    4  C3  UNL     1      13.134  45.452  18.077  1.00  0.00     0.203 C
HETATM    5  C4  UNL     1      13.987  44.182  17.958  1.00  0.00     0.186 C
HETATM    6  O2  UNL     1      15.290  44.405  18.320  1.00  0.00    -0.348 OA
HETATM    7  C25 UNL     1      13.805  43.713  16.570  1.00  0.00    -0.056 C
HETATM    8  C5  UNL     1      15.917  45.409  17.576  1.00  0.00     0.269 C
HETATM    9  O8  UNL     1      15.158  46.537  17.706  1.00  0.00    -0.352 OA
HETATM   10  C21 UNL     1      13.874  46.479  17.248  1.00  0.00     0.165 C
HETATM   11  C22 UNL     1      13.713  46.077  15.809  1.00  0.00     0.036 C
HETATM   12  C23 UNL     1      12.420  46.704  15.309  1.00  0.00     0.017 C
HETATM   13  C24 UNL     1      13.683  44.602  15.605  1.00  0.00    -0.015 C
HETATM   14  C26 UNL     1      13.759  42.274  16.242  1.00  0.00     0.046 C
BRANCH   8  15
HETATM   15  C6  UNL     1      17.259  45.723  18.315  1.00  0.00     0.068 C
HETATM   16  C7  UNL     1      17.400  47.175  18.499  1.00  0.00    -0.018 C
HETATM   17  C8  UNL     1      18.200  47.930  19.172  1.00  0.00     0.007 C
HETATM   18  C9  UNL     1      19.368  47.597  20.077  1.00  0.00     0.079 C
HETATM   19  C10 UNL     1      19.336  48.570  21.255  1.00  0.00     0.051 C
HETATM   20  C11 UNL     1      20.660  47.907  19.409  1.00  0.00     0.044 C
HETATM   21  O7  UNL     1      19.276  46.383  20.717  1.00  0.00    -0.334 OA
HETATM   22  C12 UNL     1      21.218  47.047  18.379  1.00  0.00     0.036 C
HETATM   23  C13 UNL     1      20.342  46.185  17.559  1.00  0.00     0.132 C
HETATM   24  C14 UNL     1      19.727  44.986  18.154  1.00  0.00     0.048 C
HETATM   25  C15 UNL     1      20.374  43.689  17.605  1.00  0.00     0.024 C
HETATM   26  C16 UNL     1      18.294  44.939  17.643  1.00  0.00     0.010 C
HETATM   27  C18 UNL     1      19.801  44.768  19.618  1.00  0.00     0.235 A
HETATM   28  C17 UNL     1      18.288  45.028  16.125  1.00  0.00     0.012 C
HETATM   29  O5  UNL     1      20.755  44.301  20.375  1.00  0.00    -0.305 OA
HETATM   30  C19 UNL     1      20.368  45.599  20.529  1.00  0.00     0.248 A
BRANCH  23  31
HETATM   31  O3  UNL     1      21.153  45.766  16.488  1.00  0.00    -0.395 OA
ATOM     32  H3  UNL     1      21.185  44.819  16.565  1.00  0.00     0.210 HD
ENDBRANCH  23  31
BRANCH  27  33
HETATM   33  O4  UNL     1      18.736  43.861  20.006  1.00  0.00    -0.360 OA
ATOM     34  H4  UNL     1      18.660  43.869  20.953  1.00  0.00     0.213 HD
ENDBRANCH  27  33
BRANCH  30  35
HETATM   35  C20 UNL     1      21.306  45.894  21.662  1.00  0.00     0.238 C
BRANCH  35  36
HETATM   36  O6  UNL     1      20.666  45.796  22.931  1.00  0.00    -0.395 OA
ATOM     37  H6  UNL     1      20.105  46.541  23.108  1.00  0.00     0.209 HD
ENDBRANCH  35  36
ENDBRANCH  30  35
ENDBRANCH   8  15
ENDBRANCH   3   4
TORSDOF 6
ENDMDL