MODEL 4
REMARK VINA RESULT: -5.741022288      2.244      2.983
REMARK  5 active torsions:
REMARK  status: ('A' for Active; 'I' for Inactive)
REMARK    1  A    between atoms: C2_2  and  O2_4
REMARK    2  A    between atoms: O2_4  and  C3_5
REMARK    3  A    between atoms: N1_13  and  C11_14
REMARK    4  A    between atoms: C11_14  and  C12_15
REMARK    5  A    between atoms: N5_34  and  C23_35
ROOT
HETATM    1  C3  UNL     1      12.003  43.862  15.900  1.00  0.00     0.367 C
HETATM    2  C4  UNL     1      13.267  44.626  16.256  1.00  0.00     0.065 C
HETATM    3  C5  UNL     1      13.849  44.199  17.589  1.00  0.00     0.004 C
HETATM    4  C6  UNL     1      13.830  45.274  18.625  1.00  0.00     0.000 C
HETATM    5  C7  UNL     1      15.018  45.226  19.554  1.00  0.00     0.000 C
HETATM    6  C8  UNL     1      16.165  45.951  18.836  1.00  0.00     0.002 C
HETATM    7  C9  UNL     1      17.435  45.853  19.654  1.00  0.00     0.030 C
HETATM    8  C10 UNL     1      18.659  45.638  18.834  1.00  0.00     0.273 C
HETATM    9  N1  UNL     1      19.268  46.858  18.328  1.00  0.00     0.096 N
HETATM   10  C13 UNL     1      18.980  46.970  16.912  1.00  0.00     0.303 C
HETATM   11  C14 UNL     1      20.147  46.574  16.033  1.00  0.00     0.302 C
HETATM   12  N2  UNL     1      19.972  45.263  15.472  1.00  0.00     0.087 N
HETATM   13  C15 UNL     1      20.964  44.340  16.009  1.00  0.00     0.310 C
HETATM   14  C16 UNL     1      19.998  45.204  14.050  1.00  0.00     0.299 C
HETATM   15  C17 UNL     1      18.725  45.598  13.382  1.00  0.00     0.262 C
HETATM   16  N3  UNL     1      17.842  44.446  13.155  1.00  0.00    -0.073 N
ATOM     17  H31 UNL     1      16.924  44.585  13.578  1.00  0.00     0.277 HD
ATOM     18  H32 UNL     1      18.138  43.632  13.694  1.00  0.00     0.277 HD
HETATM   19  C18 UNL     1      17.740  44.143  11.742  1.00  0.00     0.234 C
HETATM   20  C19 UNL     1      16.280  44.105  11.353  1.00  0.00     0.055 C
HETATM   21  C20 UNL     1      15.686  42.809  11.867  1.00  0.00     0.234 C
HETATM   22  N4  UNL     1      15.220  42.911  13.224  1.00  0.00    -0.073 N
ATOM     23  H41 UNL     1      15.183  43.877  13.551  1.00  0.00     0.277 HD
ATOM     24  H42 UNL     1      15.901  42.559  13.896  1.00  0.00     0.277 HD
HETATM   25  C21 UNL     1      13.949  42.246  13.328  1.00  0.00     0.262 C
HETATM   26  C22 UNL     1      13.368  42.337  14.731  1.00  0.00     0.303 C
HETATM   27  N5  UNL     1      12.179  43.132  14.707  1.00  0.00     0.123 N
ENDROOT
BRANCH   1  28
HETATM   28  O2  UNL     1      10.920  44.727  15.979  1.00  0.00    -0.285 OA
BRANCH  28  29
HETATM   29  C2  UNL     1       9.897  44.659  16.882  1.00  0.00     0.256 C
HETATM   30  C1  UNL     1      10.146  44.839  18.325  1.00  0.00     0.126 C
HETATM   31  O1  UNL     1       8.738  44.441  16.479  1.00  0.00    -0.266 OA
ENDBRANCH  28  29
ENDBRANCH   1  28
BRANCH  27  32
HETATM   32  C23 UNL     1      11.084  42.441  14.154  1.00  0.00     0.218 C
HETATM   33  C24 UNL     1      10.501  43.050  12.905  1.00  0.00     0.042 C
HETATM   34  C25 UNL     1      11.285  40.967  13.898  1.00  0.00     0.042 C
ENDBRANCH  27  32
BRANCH   9  35
HETATM   35  C11 UNL     1      18.917  48.010  19.094  1.00  0.00     0.341 C
BRANCH  35  36
HETATM   36  C12 UNL     1      20.093  48.472  19.865  1.00  0.00     0.261 C
HETATM   37  O3  UNL     1      20.071  49.030  20.942  1.00  0.00    -0.305 OA
ENDBRANCH  35  36
ENDBRANCH   9  35
TORSDOF 5
ENDMDL