MODEL 5
REMARK VINA RESULT: -6.550183830      8.349     11.044
REMARK  7 active torsions:
REMARK  status: ('A' for Active; 'I' for Inactive)
REMARK    1  A    between atoms: C9_10  and  O2_12
REMARK    2  A    between atoms: C13_16  and  O3_17
REMARK    3  A    between atoms: C14_19  and  C15_20
REMARK    4  A    between atoms: C15_20  and  N1_21
REMARK    5  A    between atoms: C17_23  and  C18_24
REMARK    6  A    between atoms: C18_24  and  N2_25
REMARK    7  A    between atoms: C26_37  and  O4_38
ROOT
HETATM    1  C1  UNL     1      24.506  44.565  22.495  1.00  0.00     0.023 C
HETATM    2  C2  UNL     1      23.267  44.964  22.466  1.00  0.00    -0.017 C
HETATM    3  C3  UNL     1      22.497  45.552  23.513  1.00  0.00     0.156 C
HETATM    4  O1  UNL     1      22.704  45.547  24.736  1.00  0.00    -0.293 OA
HETATM    5  C4  UNL     1      21.305  46.231  22.837  1.00  0.00     0.097 C
HETATM    6  C5  UNL     1      21.626  46.265  21.375  1.00  0.00     0.016 C
HETATM    7  C6  UNL     1      22.324  44.896  21.287  1.00  0.00     0.034 C
HETATM    8  C7  UNL     1      23.117  44.728  20.054  1.00  0.00     0.021 C
HETATM    9  C8  UNL     1      22.301  45.262  18.908  1.00  0.00     0.056 C
HETATM   10  C9  UNL     1      22.372  44.106  17.891  1.00  0.00     0.061 C
HETATM   11  C10 UNL     1      23.813  43.613  17.795  1.00  0.00     0.046 C
HETATM   12  C11 UNL     1      21.473  43.127  18.526  1.00  0.00     0.041 C
HETATM   13  C12 UNL     1      20.360  44.030  19.070  1.00  0.00     0.042 C
HETATM   14  C13 UNL     1      20.865  45.426  19.161  1.00  0.00     0.078 C
HETATM   15  C14 UNL     1      20.449  46.228  20.413  1.00  0.00     0.040 C
HETATM   16  C21 UNL     1      20.138  47.662  20.015  1.00  0.00    -0.001 C
HETATM   17  C22 UNL     1      19.577  48.558  21.041  1.00  0.00     0.011 C
HETATM   18  C23 UNL     1      21.347  48.417  19.486  1.00  0.00     0.012 C
HETATM   19  C24 UNL     1      22.305  48.614  20.589  1.00  0.00     0.011 C
HETATM   20  C25 UNL     1      23.623  49.217  20.022  1.00  0.00     0.012 C
HETATM   21  C26 UNL     1      22.665  47.270  21.136  1.00  0.00     0.132 C
ENDROOT
BRANCH  15  22
HETATM   22  C15 UNL     1      19.292  45.682  21.127  1.00  0.00     0.104 C
BRANCH  22  23
HETATM   23  N1  UNL     1      18.094  45.200  20.582  1.00  0.00    -0.265 N
HETATM   24  C16 UNL     1      17.251  45.926  19.826  1.00  0.00     0.145 A
HETATM   25  C17 UNL     1      16.139  45.160  19.441  1.00  0.00     0.072 A
HETATM   26  N3  UNL     1      16.349  43.977  19.986  1.00  0.00    -0.287 N
HETATM   27  N4  UNL     1      17.449  44.040  20.614  1.00  0.00    -0.237 N
ATOM     28  H3  UNL     1      15.741  43.162  19.915  1.00  0.00     0.188 HD
ATOM     29  H4  UNL     1      17.820  43.237  21.122  1.00  0.00     0.209 HD
BRANCH  25  30
HETATM   30  C18 UNL     1      14.994  45.579  18.614  1.00  0.00     0.331 C
BRANCH  30  31
HETATM   31  N2  UNL     1      13.813  44.789  18.810  1.00  0.00     0.085 N
HETATM   32  C19 UNL     1      12.688  45.586  19.268  1.00  0.00     0.309 C
HETATM   33  C20 UNL     1      13.441  44.230  17.520  1.00  0.00     0.309 C
ENDBRANCH  30  31
ENDBRANCH  25  30
ENDBRANCH  22  23
ENDBRANCH  15  22
BRANCH  14  34
HETATM   34  O3  UNL     1      20.302  46.104  18.079  1.00  0.00    -0.388 OA
ATOM     35  H3  UNL     1      19.530  46.566  18.385  1.00  0.00     0.210 HD
ENDBRANCH  14  34
BRANCH  21  36
HETATM   36  O4  UNL     1      23.307  47.582  22.368  1.00  0.00    -0.394 OA
ATOM     37  H4  UNL     1      24.167  47.179  22.383  1.00  0.00     0.210 HD
ENDBRANCH  21  36
BRANCH  10  38
HETATM   38  O2  UNL     1      21.958  44.405  16.638  1.00  0.00    -0.390 OA
ATOM     39  H2  UNL     1      22.599  44.838  16.087  1.00  0.00     0.210 HD
ENDBRANCH  10  38
TORSDOF 7
ENDMDL