MODEL 1
REMARK VINA RESULT: -5.548787345      0.000      0.000
REMARK  4 active torsions:
REMARK  status: ('A' for Active; 'I' for Inactive)
REMARK    1  A    between atoms: N2_4  and  N3_6
REMARK    2  A    between atoms: C1_8  and  N4_9
REMARK    3  A    between atoms: N4_9  and  C2_11
REMARK    4  A    between atoms: C2_11  and  C3_12
ROOT
HETATM    1  N3  UNL     1      30.613  28.790  67.866  1.00  0.00    -0.283 N
ATOM      2  H3  UNL     1      29.865  28.849  68.556  1.00  0.00     0.189 HD
HETATM    3  C1  UNL     1      31.473  27.847  68.007  1.00  0.00     0.194 C
ENDROOT
BRANCH   3   4
HETATM    4  N4  UNL     1      32.562  27.648  67.122  1.00  0.00    -0.383 N
ATOM      5  H4  UNL     1      32.445  27.785  66.119  1.00  0.00     0.160 HD
BRANCH   4   6
HETATM    6  C2  UNL     1      33.855  27.243  67.669  1.00  0.00     0.155 C
BRANCH   6   7
HETATM    7  C3  UNL     1      34.643  28.471  67.993  1.00  0.00     0.229 A
HETATM    8  C4  UNL     1      35.962  28.225  68.703  1.00  0.00     0.267 A
HETATM    9  N5  UNL     1      34.836  28.876  69.366  1.00  0.00    -0.066 N
ATOM     10  H52 UNL     1      34.731  29.765  69.854  1.00  0.00     0.277 HD
ATOM     11  H51 UNL     1      34.328  28.685  70.229  1.00  0.00     0.277 HD
ENDBRANCH   6   7
ENDBRANCH   4   6
ENDBRANCH   3   4
BRANCH   1  12
HETATM   12  N2  UNL     1      30.619  29.733  66.855  1.00  0.00    -0.248 N
HETATM   13  N1  UNL     1      29.556  30.123  66.282  1.00  0.00    -0.331 N
ATOM     14  H12 UNL     1      28.674  29.716  66.591  1.00  0.00     0.178 HD
ATOM     15  H11 UNL     1      29.560  30.818  65.536  1.00  0.00     0.178 HD
ATOM     16  H2  UNL     1      31.511  30.129  66.558  1.00  0.00     0.207 HD
ENDBRANCH   1  12
TORSDOF 4
ENDMDL