MODEL 5
REMARK VINA RESULT: -5.437260056      1.507      1.695
REMARK  3 active torsions:
REMARK  status: ('A' for Active; 'I' for Inactive)
REMARK    1  A    between atoms: N2_4  and  N3_6
REMARK    2  A    between atoms: C1_8  and  N4_9
REMARK    3  A    between atoms: N4_9  and  C2_11
ROOT
HETATM    1  N3  UNL     1      35.084  28.232  68.348  1.00  0.00    -0.283 N
ATOM      2  H3  UNL     1      34.589  28.978  68.836  1.00  0.00     0.189 HD
HETATM    3  C1  UNL     1      34.497  27.645  67.358  1.00  0.00     0.195 C
ENDROOT
BRANCH   1   4
HETATM    4  N2  UNL     1      36.365  27.888  68.778  1.00  0.00    -0.248 N
HETATM    5  N1  UNL     1      36.977  28.672  69.568  1.00  0.00    -0.331 N
ATOM      6  H12 UNL     1      36.526  29.534  69.873  1.00  0.00     0.178 HD
ATOM      7  H11 UNL     1      37.915  28.420  69.882  1.00  0.00     0.178 HD
ATOM      8  H2  UNL     1      36.803  27.023  68.463  1.00  0.00     0.207 HD
ENDBRANCH   1   4
BRANCH   3   9
HETATM    9  N4  UNL     1      33.201  27.984  66.914  1.00  0.00    -0.373 N
ATOM     10  H4  UNL     1      32.867  27.547  66.055  1.00  0.00     0.161 HD
BRANCH   9  11
HETATM   11  C2  UNL     1      32.322  28.895  67.577  1.00  0.00     0.159 A
HETATM   12  C3  UNL     1      30.846  28.693  67.302  1.00  0.00     0.113 A
HETATM   13  C4  UNL     1      31.451  28.470  68.671  1.00  0.00     0.152 A
HETATM   14  O1  UNL     1      31.157  28.142  69.802  1.00  0.00    -0.296 OA
ENDBRANCH   9  11
ENDBRANCH   3   9
TORSDOF 3
ENDMDL