MODEL 3
REMARK VINA RESULT: -4.094058590      0.941      1.391
REMARK  4 active torsions:
REMARK  status: ('A' for Active; 'I' for Inactive)
REMARK    1  A    between atoms: C2_2  and  N1_3
REMARK    2  A    between atoms: C3_5  and  C4_6
REMARK    3  A    between atoms: C5_7  and  N2_8
REMARK    4  A    between atoms: N3_10  and  N4_12
ROOT
HETATM    1  C4  UNL     1      33.167  27.984  66.972  1.00  0.00     0.035 C
HETATM    2  C5  UNL     1      31.915  27.929  67.367  1.00  0.00     0.110 C
ENDROOT
BRANCH   2   3
HETATM    3  N2  UNL     1      30.985  28.866  66.841  1.00  0.00    -0.298 N
HETATM    4  N3  UNL     1      30.949  30.060  67.256  1.00  0.00    -0.250 N
ATOM      5  H3  UNL     1      30.275  30.721  66.869  1.00  0.00     0.207 HD
ATOM      6  H2  UNL     1      30.333  28.570  66.114  1.00  0.00     0.187 HD
BRANCH   4   7
HETATM    7  N4  UNL     1      31.833  30.461  68.241  1.00  0.00    -0.331 N
ATOM      8  H42 UNL     1      31.528  30.466  69.214  1.00  0.00     0.178 HD
ATOM      9  H41 UNL     1      32.776  30.747  67.980  1.00  0.00     0.178 HD
ENDBRANCH   4   7
ENDBRANCH   2   3
BRANCH   1  10
HETATM   10  C3  UNL     1      34.117  27.031  67.506  1.00  0.00     0.084 C
HETATM   11  N1  UNL     1      35.039  27.440  68.293  1.00  0.00    -0.399 N
ATOM     12  H1  UNL     1      35.711  26.773  68.672  1.00  0.00     0.158 HD
BRANCH  11  13
HETATM   13  C2  UNL     1      35.138  28.830  68.649  1.00  0.00     0.114 C
HETATM   14  C1  UNL     1      36.438  29.055  69.376  1.00  0.00     0.026 C
ENDBRANCH  11  13
ENDBRANCH   1  10
TORSDOF 4
ENDMDL