MODEL 4
REMARK VINA RESULT: -3.469407811      1.477      3.531
REMARK  4 active torsions:
REMARK  status: ('A' for Active; 'I' for Inactive)
REMARK    1  A    between atoms: C2_2  and  N1_3
REMARK    2  A    between atoms: N1_3  and  C4_5
REMARK    3  A    between atoms: N1_3  and  N3_9
REMARK    4  A    between atoms: N3_9  and  N4_10
ROOT
HETATM    1  N1  UNL     1      33.056  28.400  67.714  1.00  0.00     0.059 N
HETATM    2  C3  UNL     1      33.716  27.892  66.555  1.00  0.00     0.307 C
ENDROOT
BRANCH   1   3
HETATM    3  C2  UNL     1      32.525  27.396  68.601  1.00  0.00     0.265 C
HETATM    4  C1  UNL     1      31.009  27.297  68.540  1.00  0.00     0.037 C
ENDBRANCH   1   3
BRANCH   1   5
HETATM    5  C4  UNL     1      33.898  29.343  68.365  1.00  0.00     0.313 C
HETATM    6  N2  UNL     1      35.079  29.151  68.759  1.00  0.00    -0.383 N
HETATM    7  C5  UNL     1      35.863  27.980  68.662  1.00  0.00     0.146 C
ATOM      8  H2  UNL     1      35.530  29.948  69.208  1.00  0.00     0.159 HD
ENDBRANCH   1   5
BRANCH   1   9
HETATM    9  N3  UNL     1      31.910  29.094  67.228  1.00  0.00     0.071 NA
BRANCH   9  10
HETATM   10  N4  UNL     1      31.696  30.277  67.905  1.00  0.00    -0.322 N
ATOM     11  H42 UNL     1      32.004  31.185  67.555  1.00  0.00     0.174 HD
ATOM     12  H41 UNL     1      31.200  30.131  68.784  1.00  0.00     0.174 HD
ENDBRANCH   9  10
ENDBRANCH   1   9
TORSDOF 4
ENDMDL