MODEL 5
REMARK VINA RESULT: -4.626613423      1.864      4.116
REMARK  5 active torsions:
REMARK  status: ('A' for Active; 'I' for Inactive)
REMARK    1  A    between atoms: C2_2  and  C3_3
REMARK    2  A    between atoms: C3_3  and  N1_4
REMARK    3  A    between atoms: N1_4  and  N2_5
REMARK    4  A    between atoms: N2_5  and  C4_7
REMARK    5  A    between atoms: C5_10  and  N4_11
ROOT
HETATM    1  C4  UNL     1      34.788  28.559  68.259  1.00  0.00     0.163 A
HETATM    2  N3  UNL     1      35.299  27.312  68.170  1.00  0.00    -0.322 N
ATOM      3  H3  UNL     1      35.234  26.348  67.841  1.00  0.00     0.169 HD
HETATM    4  C5  UNL     1      35.981  28.311  68.857  1.00  0.00     0.146 A
ENDROOT
BRANCH   1   5
HETATM    5  N2  UNL     1      33.793  29.291  67.919  1.00  0.00    -0.286 N
ATOM      6  H2  UNL     1      33.733  30.223  68.328  1.00  0.00     0.184 HD
BRANCH   5   7
HETATM    7  N1  UNL     1      32.796  28.912  67.043  1.00  0.00    -0.136 NA
BRANCH   7   8
HETATM    8  C3  UNL     1      31.528  29.311  67.610  1.00  0.00     0.161 C
BRANCH   8   9
HETATM    9  C2  UNL     1      31.057  28.377  68.663  1.00  0.00    -0.019 C
HETATM   10  C1  UNL     1      31.312  27.085  68.595  1.00  0.00     0.008 C
ENDBRANCH   8   9
ENDBRANCH   7   8
ENDBRANCH   5   7
ENDBRANCH   1   5
BRANCH   4  11
HETATM   11  N4  UNL     1      36.976  28.720  69.543  1.00  0.00    -0.382 N
ATOM     12  H42 UNL     1      37.632  29.449  69.823  1.00  0.00     0.157 HD
ATOM     13  H41 UNL     1      37.708  28.536  70.229  1.00  0.00     0.157 HD
ENDBRANCH   4  11
TORSDOF 5
ENDMDL