MODEL 4
REMARK VINA RESULT: -4.602826945      1.209      1.298
REMARK  3 active torsions:
REMARK  status: ('A' for Active; 'I' for Inactive)
REMARK    1  A    between atoms: N1_2  and  C2_4
REMARK    2  A    between atoms: N2_5  and  C3_7
REMARK    3  A    between atoms: N3_8  and  N4_10
ROOT
HETATM    1  C3  UNL     1      30.729  29.605  67.123  1.00  0.00     0.199 C
HETATM    2  N3  UNL     1      29.960  29.759  66.129  1.00  0.00    -0.282 N
ATOM      3  H3  UNL     1      30.059  29.098  65.358  1.00  0.00     0.189 HD
ENDROOT
BRANCH   1   4
HETATM    4  N2  UNL     1      31.672  28.554  67.133  1.00  0.00    -0.348 N
HETATM    5  C2  UNL     1      32.894  28.752  67.481  1.00  0.00     0.176 C
ATOM      6  H2  UNL     1      31.376  27.617  66.858  1.00  0.00     0.167 HD
BRANCH   5   7
HETATM    7  N1  UNL     1      33.872  27.737  67.507  1.00  0.00    -0.390 N
HETATM    8  C1  UNL     1      35.132  27.877  68.231  1.00  0.00     0.147 C
ATOM      9  H1  UNL     1      33.692  26.870  67.000  1.00  0.00     0.159 HD
ENDBRANCH   5   7
ENDBRANCH   1   4
BRANCH   2  10
HETATM   10  N4  UNL     1      28.999  30.742  65.996  1.00  0.00    -0.248 N
HETATM   11  N5  UNL     1      28.791  31.341  64.921  1.00  0.00    -0.331 N
ATOM     12  H52 UNL     1      29.364  31.083  64.117  1.00  0.00     0.178 HD
ATOM     13  H51 UNL     1      28.082  32.068  64.823  1.00  0.00     0.178 HD
ATOM     14  H4  UNL     1      28.437  30.989  66.810  1.00  0.00     0.207 HD
ENDBRANCH   2  10
TORSDOF 3
ENDMDL