MODEL 5
REMARK VINA RESULT: -3.678583739      8.783      9.117
REMARK  3 active torsions:
REMARK  status: ('A' for Active; 'I' for Inactive)
REMARK    1  A    between atoms: N2_4  and  N3_6
REMARK    2  A    between atoms: C3_8  and  N4_9
REMARK    3  A    between atoms: N4_9  and  C4_11
ROOT
HETATM    1  N3  UNL     1      27.604  22.008  70.610  1.00  0.00    -0.282 N
ATOM      2  H3  UNL     1      26.771  21.663  71.087  1.00  0.00     0.189 HD
HETATM    3  C3  UNL     1      27.437  22.639  69.503  1.00  0.00     0.199 C
ENDROOT
BRANCH   1   4
HETATM    4  N2  UNL     1      28.821  21.761  71.200  1.00  0.00    -0.245 N
HETATM    5  N1  UNL     1      29.016  21.522  72.415  1.00  0.00    -0.322 N
HETATM    6  C1  UNL     1      27.983  21.461  73.428  1.00  0.00     0.172 C
HETATM    7  C2  UNL     1      30.383  21.286  72.844  1.00  0.00     0.172 C
ATOM      8  H2  UNL     1      29.641  21.774  70.593  1.00  0.00     0.208 HD
ENDBRANCH   1   4
BRANCH   3   9
HETATM    9  N4  UNL     1      26.138  22.838  68.986  1.00  0.00    -0.348 N
ATOM     10  H4  UNL     1      25.729  22.096  68.416  1.00  0.00     0.167 HD
BRANCH   9  11
HETATM   11  C4  UNL     1      25.370  24.002  69.211  1.00  0.00     0.174 C
HETATM   12  N5  UNL     1      25.329  24.581  70.352  1.00  0.00    -0.395 N
ATOM     13  H52 UNL     1      25.874  24.175  71.112  1.00  0.00     0.156 HD
ATOM     14  H51 UNL     1      24.775  25.422  70.514  1.00  0.00     0.156 HD
ENDBRANCH   9  11
ENDBRANCH   3   9
TORSDOF 3
ENDMDL