MODEL 1
REMARK VINA RESULT: -3.980363557      0.000      0.000
REMARK  4 active torsions:
REMARK  status: ('A' for Active; 'I' for Inactive)
REMARK    1  A    between atoms: N1_2  and  N2_4
REMARK    2  A    between atoms: C2_6  and  N3_7
REMARK    3  A    between atoms: C4_9  and  C5_10
REMARK    4  A    between atoms: C5_10  and  N4_11
ROOT
HETATM    1  N3  UNL     1      32.733  28.398  67.606  1.00  0.00    -0.366 N
HETATM    2  C3  UNL     1      33.570  27.158  67.494  1.00  0.00     0.151 A
HETATM    3  C4  UNL     1      34.149  28.538  67.659  1.00  0.00     0.128 A
ENDROOT
BRANCH   1   4
HETATM    4  C2  UNL     1      31.409  28.907  67.625  1.00  0.00     0.195 C
HETATM    5  N2  UNL     1      30.888  29.550  66.635  1.00  0.00    -0.301 N
ATOM      6  H2  UNL     1      31.458  29.695  65.801  1.00  0.00     0.187 HD
BRANCH   5   7
HETATM    7  N1  UNL     1      29.594  30.052  66.644  1.00  0.00    -0.340 N
HETATM    8  C1  UNL     1      29.067  30.761  65.502  1.00  0.00     0.167 C
ATOM      9  H1  UNL     1      29.008  29.919  67.467  1.00  0.00     0.179 HD
ENDBRANCH   5   7
ENDBRANCH   1   4
BRANCH   3  10
HETATM   10  C5  UNL     1      34.883  28.778  68.929  1.00  0.00     0.256 C
BRANCH  10  11
HETATM   11  N4  UNL     1      36.255  28.334  68.912  1.00  0.00    -0.077 N
ATOM     12  H43 UNL     1      36.717  28.566  69.792  1.00  0.00     0.274 HD
ATOM     13  H42 UNL     1      36.302  27.316  68.957  1.00  0.00     0.274 HD
ATOM     14  H41 UNL     1      36.798  28.681  68.121  1.00  0.00     0.274 HD
ENDBRANCH  10  11
ENDBRANCH   3  10
TORSDOF 4
ENDMDL