MODEL 3
REMARK VINA RESULT: -6.194435699      1.813      2.861
REMARK  15 active torsions:
REMARK  status: ('A' for Active; 'I' for Inactive)
REMARK    1  A    between atoms: N1_1  and  C1_4
REMARK    2  A    between atoms: C2_7  and  N3_8
REMARK    3  A    between atoms: N3_8  and  N4_10
REMARK    4  A    between atoms: C4_16  and  N6_17
REMARK    5  A    between atoms: N6_17  and  C5_19
REMARK    6  A    between atoms: C5_19  and  C6_20
REMARK    7  A    between atoms: C6_20  and  C7_21
REMARK    8  A    between atoms: C7_21  and  N7_22
REMARK    9  A    between atoms: N7_22  and  C8_24
REMARK   10  A    between atoms: C8_24  and  C9_25
REMARK   11  A    between atoms: C9_25  and  S1_26
REMARK   12  A    between atoms: S1_26  and  C10_27
REMARK   13  A    between atoms: C10_27  and  C11_28
REMARK   14  A    between atoms: C11_28  and  C12_29
REMARK   15  A    between atoms: C12_29  and  O1_30
ROOT
HETATM    1  C1  UNL     1      -5.563 -23.324  26.203  1.00  0.00     0.679 A
HETATM    2  N2  UNL     1      -6.868 -23.602  26.350  1.00  0.00    -0.173 N
ATOM      3  H2  UNL     1      -7.348 -24.071  25.582  1.00  0.00     0.186 HD
HETATM    4  C2  UNL     1      -7.579 -23.300  27.444  1.00  0.00     0.166 A
HETATM    5  C3  UNL     1      -6.938 -22.665  28.483  1.00  0.00     0.125 A
HETATM    6  N5  UNL     1      -7.609 -22.342  29.600  1.00  0.00    -0.335 N
ATOM      7  H5  UNL     1      -8.600 -22.567  29.684  1.00  0.00     0.168 HD
HETATM    8  C4  UNL     1      -6.972 -21.722  30.610  1.00  0.00     0.117 A
HETATM    9  C13 UNL     1      -5.617 -21.438  30.450  1.00  0.00     0.138 A
HETATM   10  N8  UNL     1      -4.930 -21.751  29.345  1.00  0.00    -0.346 N
ATOM     11  H8  UNL     1      -3.939 -21.528  29.261  1.00  0.00     0.167 HD
HETATM   12  C14 UNL     1      -5.590 -22.372  28.345  1.00  0.00     0.151 A
HETATM   13  N9  UNL     1      -4.924 -22.704  27.212  1.00  0.00    -0.174 N
ATOM     14  H9  UNL     1      -3.932 -22.483  27.124  1.00  0.00     0.186 HD
ENDROOT
BRANCH   8  15
HETATM   15  N6  UNL     1      -7.598 -21.403  31.689  1.00  0.00    -0.375 N
ATOM     16  H6  UNL     1      -7.051 -21.157  32.513  1.00  0.00     0.161 HD
BRANCH  15  17
HETATM   17  C5  UNL     1      -9.039 -21.378  31.787  1.00  0.00     0.123 C
BRANCH  17  18
HETATM   18  C6  UNL     1      -9.508 -22.691  32.428  1.00  0.00     0.039 C
BRANCH  18  19
HETATM   19  C7  UNL     1     -10.820 -22.362  33.114  1.00  0.00     0.115 C
BRANCH  19  20
HETATM   20  N7  UNL     1     -10.772 -21.187  33.925  1.00  0.00    -0.420 N
ATOM     21  H7  UNL     1     -10.561 -20.267  33.539  1.00  0.00     0.153 HD
BRANCH  20  22
HETATM   22  C8  UNL     1     -11.041 -21.389  35.308  1.00  0.00     0.124 C
BRANCH  22  23
HETATM   23  C9  UNL     1      -9.946 -20.943  36.235  1.00  0.00     0.093 C
BRANCH  23  24
HETATM   24  S1  UNL     1      -8.781 -19.947  35.222  1.00  0.00    -0.167 SA
BRANCH  24  25
HETATM   25  C10 UNL     1      -7.131 -20.686  35.511  1.00  0.00     0.076 C
BRANCH  25  26
HETATM   26  C11 UNL     1      -7.315 -22.141  35.894  1.00  0.00     0.036 C
BRANCH  26  27
HETATM   27  C12 UNL     1      -6.794 -23.066  34.828  1.00  0.00     0.165 C
BRANCH  27  28
HETATM   28  O1  UNL     1      -5.818 -22.378  34.086  1.00  0.00    -0.401 OA
ATOM     29  H1  UNL     1      -5.143 -22.997  33.836  1.00  0.00     0.209 HD
ENDBRANCH  27  28
ENDBRANCH  26  27
ENDBRANCH  25  26
ENDBRANCH  24  25
ENDBRANCH  23  24
ENDBRANCH  22  23
ENDBRANCH  20  22
ENDBRANCH  19  20
ENDBRANCH  18  19
ENDBRANCH  17  18
ENDBRANCH  15  17
ENDBRANCH   8  15
BRANCH   4  30
HETATM   30  N3  UNL     1      -8.826 -23.566  27.586  1.00  0.00    -0.290 N
ATOM     31  H3  UNL     1      -9.325 -23.095  28.341  1.00  0.00     0.188 HD
BRANCH  30  32
HETATM   32  N4  UNL     1      -9.548 -24.445  26.791  1.00  0.00    -0.344 N
ATOM     33  H42 UNL     1      -9.357 -25.438  26.924  1.00  0.00     0.176 HD
ATOM     34  H41 UNL     1     -10.243 -24.170  26.097  1.00  0.00     0.176 HD
ENDBRANCH  30  32
ENDBRANCH   4  30
BRANCH   1  35
HETATM   35  N1  UNL     1      -4.933 -23.649  25.104  1.00  0.00    -0.234 N
ATOM     36  H12 UNL     1      -4.414 -22.953  24.571  1.00  0.00     0.174 HD
ATOM     37  H11 UNL     1      -4.950 -24.610  24.761  1.00  0.00     0.174 HD
ENDBRANCH   1  35
TORSDOF 15
ENDMDL