MODEL 1
REMARK VINA RESULT: -7.313695789      0.000      0.000
REMARK  12 active torsions:
REMARK  status: ('A' for Active; 'I' for Inactive)
REMARK    1  A    between atoms: C2_2  and  N1_3
REMARK    2  A    between atoms: N1_3  and  C3_6
REMARK    3  A    between atoms: C3_6  and  C4_7
REMARK    4  A    between atoms: C4_7  and  C5_8
REMARK    5  A    between atoms: C5_8  and  C6_9
REMARK    6  A    between atoms: C6_9  and  N2_10
REMARK    7  A    between atoms: N2_10  and  C7_13
REMARK    8  A    between atoms: C7_13  and  C8_14
REMARK    9  A    between atoms: C9_16  and  N3_17
REMARK   10  A    between atoms: C12_23  and  N6_24
REMARK   11  A    between atoms: C13_29  and  N8_30
REMARK   12  A    between atoms: C15_36  and  O2_37
ROOT
HETATM    1  C8  UNL     1      -6.327 -21.742  32.499  1.00  0.00     0.182 C
HETATM    2  O1  UNL     1      -7.030 -22.671  33.206  1.00  0.00    -0.354 OA
HETATM    3  C9  UNL     1      -7.495 -21.741  34.066  1.00  0.00     0.264 C
HETATM    4  C15 UNL     1      -6.932 -20.629  33.277  1.00  0.00     0.198 C
ENDROOT
BRANCH   3   5
HETATM    5  N3  UNL     1      -8.929 -21.716  34.277  1.00  0.00    -0.274 N
HETATM    6  C10 UNL     1      -9.544 -21.073  35.279  1.00  0.00     0.199 A
HETATM    7  N4  UNL     1      -8.992 -20.299  36.329  1.00  0.00    -0.063 NA
HETATM    8  N5  UNL     1     -10.873 -21.314  35.096  1.00  0.00    -0.324 N
HETATM    9  C11 UNL     1     -11.091 -22.079  34.021  1.00  0.00     0.124 A
ATOM     10  H5  UNL     1     -11.610 -20.955  35.703  1.00  0.00     0.169 HD
HETATM   11  C12 UNL     1     -12.196 -22.611  33.390  1.00  0.00     0.145 A
HETATM   12  C14 UNL     1      -9.818 -22.338  33.492  1.00  0.00     0.158 A
HETATM   13  N7  UNL     1     -12.088 -23.366  32.288  1.00  0.00    -0.175 N
HETATM   14  C13 UNL     1     -10.852 -23.610  31.785  1.00  0.00     0.679 A
ATOM     15  H7  UNL     1     -12.917 -23.749  31.836  1.00  0.00     0.186 HD
HETATM   16  N9  UNL     1      -9.766 -23.098  32.387  1.00  0.00    -0.174 N
ATOM     17  H9  UNL     1      -8.851 -23.299  31.983  1.00  0.00     0.186 HD
BRANCH  11  18
HETATM   18  N6  UNL     1     -13.370 -22.386  33.860  1.00  0.00    -0.383 N
ATOM     19  H62 UNL     1     -13.875 -23.160  34.289  1.00  0.00     0.157 HD
ATOM     20  H61 UNL     1     -13.770 -21.449  33.796  1.00  0.00     0.157 HD
ENDBRANCH  11  18
BRANCH  14  21
HETATM   21  N8  UNL     1     -10.714 -24.331  30.723  1.00  0.00    -0.234 N
ATOM     22  H82 UNL     1     -11.003 -25.309  30.735  1.00  0.00     0.174 HD
ATOM     23  H81 UNL     1     -10.315 -23.926  29.875  1.00  0.00     0.174 HD
ENDBRANCH  14  21
ENDBRANCH   3   5
BRANCH   4  24
HETATM   24  O2  UNL     1      -7.835 -19.914  32.485  1.00  0.00    -0.389 OA
ATOM     25  H2  UNL     1      -8.117 -19.125  32.932  1.00  0.00     0.210 HD
ENDBRANCH   4  24
BRANCH   1  26
HETATM   26  C7  UNL     1      -6.619 -21.701  31.007  1.00  0.00     0.266 C
BRANCH  26  27
HETATM   27  N2  UNL     1      -5.527 -21.023  30.372  1.00  0.00    -0.073 N
ATOM     28  H22 UNL     1      -4.824 -20.741  31.056  1.00  0.00     0.277 HD
ATOM     29  H21 UNL     1      -5.812 -20.102  30.039  1.00  0.00     0.277 HD
BRANCH  27  30
HETATM   30  C6  UNL     1      -4.923 -21.809  29.293  1.00  0.00     0.232 C
BRANCH  30  31
HETATM   31  C5  UNL     1      -5.852 -22.952  29.015  1.00  0.00     0.029 C
BRANCH  31  32
HETATM   32  C4  UNL     1      -6.276 -23.071  27.573  1.00  0.00     0.029 C
BRANCH  32  33
HETATM   33  C3  UNL     1      -5.109 -22.743  26.674  1.00  0.00     0.232 C
BRANCH  33  34
HETATM   34  N1  UNL     1      -5.178 -23.412  25.398  1.00  0.00    -0.075 N
ATOM     35  H12 UNL     1      -4.598 -24.250  25.371  1.00  0.00     0.277 HD
ATOM     36  H11 UNL     1      -4.709 -22.885  24.662  1.00  0.00     0.277 HD
BRANCH  34  37
HETATM   37  C2  UNL     1      -6.543 -23.691  25.076  1.00  0.00     0.228 C
HETATM   38  C1  UNL     1      -6.664 -24.423  23.744  1.00  0.00     0.034 C
ENDBRANCH  34  37
ENDBRANCH  33  34
ENDBRANCH  32  33
ENDBRANCH  31  32
ENDBRANCH  30  31
ENDBRANCH  27  30
ENDBRANCH  26  27
ENDBRANCH   1  26
TORSDOF 12
ENDMDL