MODEL 5
REMARK VINA RESULT: -6.293640225      1.617      5.827
REMARK  12 active torsions:
REMARK  status: ('A' for Active; 'I' for Inactive)
REMARK    1  A    between atoms: N1_1  and  C1_5
REMARK    2  A    between atoms: C1_5  and  C2_6
REMARK    3  A    between atoms: C2_6  and  C3_7
REMARK    4  A    between atoms: C2_6  and  N7_30
REMARK    5  A    between atoms: C3_7  and  S1_8
REMARK    6  A    between atoms: S1_8  and  S2_9
REMARK    7  A    between atoms: S2_9  and  C4_10
REMARK    8  A    between atoms: C4_10  and  C5_11
REMARK    9  A    between atoms: C5_11  and  N2_12
REMARK   10  A    between atoms: N2_12  and  C6_14
REMARK   11  A    between atoms: C9_20  and  C10_21
REMARK   12  A    between atoms: N5_23  and  O1_25
ROOT
HETATM    1  N2  UNL     1      -6.492 -20.747  31.304  1.00  0.00    -0.395 N
ATOM      2  H2  UNL     1      -6.695 -19.922  30.742  1.00  0.00     0.155 HD
ENDROOT
BRANCH   1   3
HETATM    3  C5  UNL     1      -6.353 -20.693  32.720  1.00  0.00     0.127 C
BRANCH   3   4
HETATM    4  C4  UNL     1      -6.679 -22.071  33.268  1.00  0.00     0.105 C
BRANCH   4   5
HETATM    5  S2  UNL     1      -7.027 -22.015  35.034  1.00  0.00    -0.096 SA
BRANCH   5   6
HETATM    6  S1  UNL     1      -8.492 -20.630  35.551  1.00  0.00    -0.096 SA
BRANCH   6   7
HETATM    7  C3  UNL     1     -10.182 -21.137  35.449  1.00  0.00     0.113 C
BRANCH   7   8
HETATM    8  C2  UNL     1     -10.806 -21.028  34.095  1.00  0.00     0.119 C
BRANCH   8   9
HETATM    9  C1  UNL     1     -12.345 -21.114  34.243  1.00  0.00     0.255 C
BRANCH   9  10
HETATM   10  N1  UNL     1     -12.728 -22.530  34.355  1.00  0.00    -0.077 N
ATOM     11  H13 UNL     1     -11.963 -23.117  34.687  1.00  0.00     0.274 HD
ATOM     12  H12 UNL     1     -13.379 -22.700  35.122  1.00  0.00     0.274 HD
ATOM     13  H11 UNL     1     -13.096 -22.840  33.455  1.00  0.00     0.274 HD
ENDBRANCH   9  10
ENDBRANCH   8   9
BRANCH   8  14
HETATM   14  N7  UNL     1     -10.511 -22.214  33.275  1.00  0.00    -0.360 N
HETATM   15  C11 UNL     1      -9.964 -22.170  32.131  1.00  0.00     0.197 C
HETATM   16  N8  UNL     1      -9.590 -20.943  31.550  1.00  0.00    -0.067 NA
HETATM   17  N9  UNL     1      -9.737 -23.392  31.442  1.00  0.00    -0.067 NA
ATOM     18  H7  UNL     1     -10.761 -23.128  33.650  1.00  0.00     0.162 HD
ENDBRANCH   8  14
ENDBRANCH   7   8
ENDBRANCH   6   7
ENDBRANCH   5   6
ENDBRANCH   4   5
ENDBRANCH   3   4
ENDBRANCH   1   3
BRANCH   1  19
HETATM   19  C6  UNL     1      -6.324 -22.063  30.723  1.00  0.00     0.284 C
HETATM   20  C7  UNL     1      -4.935 -22.406  30.375  1.00  0.00     0.081 C
HETATM   21  C8  UNL     1      -4.451 -21.999  29.014  1.00  0.00     0.239 C
HETATM   22  N3  UNL     1      -5.476 -22.047  28.011  1.00  0.00    -0.039 N
HETATM   23  C9  UNL     1      -6.527 -22.932  28.541  1.00  0.00     0.450 C
ATOM     24  H32 UNL     1      -5.820 -21.126  27.737  1.00  0.00     0.280 HD
ATOM     25  H31 UNL     1      -5.132 -22.330  27.093  1.00  0.00     0.280 HD
HETATM   26  N6  UNL     1      -7.210 -22.250  29.610  1.00  0.00    -0.019 N
ATOM     27  H62 UNL     1      -8.068 -22.731  29.882  1.00  0.00     0.282 HD
ATOM     28  H61 UNL     1      -7.623 -21.371  29.299  1.00  0.00     0.282 HD
BRANCH  23  29
HETATM   29  C10 UNL     1      -7.408 -23.327  27.427  1.00  0.00     0.171 C
HETATM   30  N4  UNL     1      -6.919 -23.138  26.114  1.00  0.00    -0.082 NA
HETATM   31  N5  UNL     1      -8.548 -23.821  27.599  1.00  0.00    -0.256 N
ATOM     32  H5  UNL     1      -9.081 -24.061  26.763  1.00  0.00     0.195 HD
BRANCH  31  33
HETATM   33  O1  UNL     1      -9.132 -24.065  28.792  1.00  0.00    -0.289 OA
ATOM     34  H1  UNL     1      -9.923 -23.651  29.118  1.00  0.00     0.244 HD
ENDBRANCH  31  33
ENDBRANCH  23  29
ENDBRANCH   1  19
TORSDOF 12
ENDMDL