MODEL 2
REMARK VINA RESULT: -6.917152040      1.233      1.438
REMARK  14 active torsions:
REMARK  status: ('A' for Active; 'I' for Inactive)
REMARK    1  A    between atoms: C2_2  and  C3_3
REMARK    2  A    between atoms: C4_4  and  N1_5
REMARK    3  A    between atoms: N1_5  and  C5_6
REMARK    4  A    between atoms: N1_5  and  C7_10
REMARK    5  A    between atoms: C5_6  and  C6_7
REMARK    6  A    between atoms: C6_7  and  O1_8
REMARK    7  A    between atoms: C9_14  and  N3_15
REMARK    8  A    between atoms: C10_20  and  N5_21
REMARK    9  A    between atoms: N5_21  and  C11_23
REMARK   10  A    between atoms: C11_23  and  C12_24
REMARK   11  A    between atoms: C12_24  and  N6_25
REMARK   12  A    between atoms: N6_25  and  N7_26
REMARK   13  A    between atoms: C14_32  and  N9_33
REMARK   14  A    between atoms: N9_33  and  O2_35
ROOT
HETATM    1  C7  UNL     1      -8.869 -21.109  34.207  1.00  0.00     0.686 A
HETATM    2  N2  UNL     1      -9.507 -21.872  33.293  1.00  0.00    -0.185 N
ATOM      3  H2  UNL     1     -10.348 -22.369  33.589  1.00  0.00     0.184 HD
HETATM    4  C8  UNL     1      -9.104 -22.020  32.013  1.00  0.00     0.124 A
HETATM    5  C9  UNL     1      -9.803 -22.911  31.188  1.00  0.00     0.144 A
HETATM    6  N4  UNL     1      -9.245 -23.068  29.923  1.00  0.00    -0.175 N
ATOM      7  H4  UNL     1      -9.705 -23.704  29.272  1.00  0.00     0.186 HD
HETATM    8  C10 UNL     1      -8.163 -22.446  29.516  1.00  0.00     0.684 A
HETATM    9  N8  UNL     1      -7.556 -21.601  30.351  1.00  0.00    -0.185 N
ATOM     10  H8  UNL     1      -6.721 -21.110  30.032  1.00  0.00     0.184 HD
HETATM   11  C13 UNL     1      -8.003 -21.374  31.596  1.00  0.00     0.126 A
HETATM   12  C14 UNL     1      -7.325 -20.578  32.481  1.00  0.00     0.170 A
HETATM   13  N10 UNL     1      -7.765 -20.461  33.758  1.00  0.00    -0.172 N
ATOM     14  H10 UNL     1      -7.248 -19.864  34.403  1.00  0.00     0.186 HD
ENDROOT
BRANCH   1  15
HETATM   15  N1  UNL     1      -9.185 -21.045  35.597  1.00  0.00    -0.191 N
BRANCH  15  16
HETATM   16  C4  UNL     1     -10.430 -21.397  36.128  1.00  0.00     0.108 C
HETATM   17  C3  UNL     1     -11.762 -20.948  35.812  1.00  0.00     0.013 C
BRANCH  17  18
HETATM   18  C2  UNL     1     -12.510 -21.170  34.573  1.00  0.00    -0.030 C
HETATM   19  C1  UNL     1     -12.937 -22.515  34.138  1.00  0.00     0.036 C
ENDBRANCH  17  18
ENDBRANCH  15  16
BRANCH  15  20
HETATM   20  C5  UNL     1      -8.071 -20.688  36.497  1.00  0.00     0.172 C
BRANCH  20  21
HETATM   21  C6  UNL     1      -8.117 -19.314  37.055  1.00  0.00     0.185 C
BRANCH  21  22
HETATM   22  O1  UNL     1      -7.927 -18.434  35.960  1.00  0.00    -0.399 OA
ATOM     23  H1  UNL     1      -8.096 -17.560  36.289  1.00  0.00     0.209 HD
ENDBRANCH  21  22
ENDBRANCH  20  21
ENDBRANCH  15  20
ENDBRANCH   1  15
BRANCH  12  24
HETATM   24  N9  UNL     1      -6.268 -19.948  32.114  1.00  0.00    -0.251 N
ATOM     25  H9  UNL     1      -6.343 -18.937  32.001  1.00  0.00     0.196 HD
BRANCH  24  26
HETATM   26  O2  UNL     1      -5.091 -20.500  31.871  1.00  0.00    -0.288 OA
ATOM     27  H2  UNL     1      -4.248 -20.118  32.084  1.00  0.00     0.244 HD
ENDBRANCH  24  26
ENDBRANCH  12  24
BRANCH   5  28
HETATM   28  N3  UNL     1     -10.797 -23.515  31.543  1.00  0.00    -0.383 N
ATOM     29  H32 UNL     1     -10.897 -23.902  32.481  1.00  0.00     0.157 HD
ATOM     30  H31 UNL     1     -11.608 -23.666  30.943  1.00  0.00     0.157 HD
ENDBRANCH   5  28
BRANCH   8  31
HETATM   31  N5  UNL     1      -7.599 -22.724  28.351  1.00  0.00    -0.204 N
ATOM     32  H5  UNL     1      -8.091 -22.500  27.487  1.00  0.00     0.183 HD
BRANCH  31  33
HETATM   33  C11 UNL     1      -6.339 -23.320  28.293  1.00  0.00     0.096 C
BRANCH  33  34
HETATM   34  C12 UNL     1      -5.235 -22.361  27.855  1.00  0.00     0.179 C
BRANCH  34  35
HETATM   35  N6  UNL     1      -4.662 -21.730  29.054  1.00  0.00    -0.143 NA
BRANCH  35  36
HETATM   36  N7  UNL     1      -4.603 -22.759  30.080  1.00  0.00    -0.348 N
ATOM     37  H72 UNL     1      -3.916 -23.511  30.135  1.00  0.00     0.172 HD
ATOM     38  H71 UNL     1      -5.375 -22.577  30.721  1.00  0.00     0.172 HD
ENDBRANCH  35  36
ENDBRANCH  34  35
ENDBRANCH  33  34
ENDBRANCH  31  33
ENDBRANCH   8  31
TORSDOF 14
ENDMDL