MODEL 1
REMARK VINA RESULT: -7.381430841      0.000      0.000
REMARK  14 active torsions:
REMARK  status: ('A' for Active; 'I' for Inactive)
REMARK    1  A    between atoms: C2_2  and  N1_4
REMARK    2  A    between atoms: C5_10  and  N4_11
REMARK    3  A    between atoms: C6_16  and  N6_17
REMARK    4  A    between atoms: C8_23  and  N8_24
REMARK    5  A    between atoms: N8_24  and  C9_25
REMARK    6  A    between atoms: C9_25  and  C10_26
REMARK    7  A    between atoms: C10_26  and  C11_27
REMARK    8  A    between atoms: C11_27  and  C12_28
REMARK    9  A    between atoms: C12_28  and  N9_29
REMARK   10  A    between atoms: N9_29  and  N10_30
REMARK   11  A    between atoms: N10_30  and  C13_31
REMARK   12  A    between atoms: C13_31  and  N11_32
REMARK   13  A    between atoms: C13_31  and  C14_36
REMARK   14  A    between atoms: C14_36  and  N12_37
ROOT
HETATM    1  N1  UNL     1      -8.940 -21.137  35.224  1.00  0.00    -0.245 N
HETATM    2  N2  UNL     1     -10.149 -20.969  35.688  1.00  0.00    -0.237 N
ATOM      3  H2  UNL     1     -10.271 -20.424  36.542  1.00  0.00     0.208 HD
HETATM    4  N3  UNL     1     -11.221 -21.472  35.102  1.00  0.00    -0.280 N
ATOM      5  H3  UNL     1     -12.140 -21.306  35.514  1.00  0.00     0.188 HD
HETATM    6  C4  UNL     1     -11.124 -22.199  33.976  1.00  0.00     0.125 A
HETATM    7  C5  UNL     1     -12.265 -22.708  33.393  1.00  0.00     0.145 A
HETATM    8  N5  UNL     1     -12.109 -23.426  32.270  1.00  0.00    -0.175 N
ATOM      9  H5  UNL     1     -12.934 -23.816  31.814  1.00  0.00     0.186 HD
HETATM   10  C6  UNL     1     -10.899 -23.647  31.726  1.00  0.00     0.678 A
HETATM   11  N7  UNL     1      -9.769 -23.144  32.299  1.00  0.00    -0.185 N
ATOM     12  H7  UNL     1      -8.855 -23.317  31.880  1.00  0.00     0.184 HD
HETATM   13  C7  UNL     1      -9.879 -22.407  33.443  1.00  0.00     0.140 A
HETATM   14  C8  UNL     1      -8.774 -21.864  34.086  1.00  0.00     0.226 A
ENDROOT
BRANCH  14  15
HETATM   15  N8  UNL     1      -7.656 -22.011  33.671  1.00  0.00    -0.400 NA
BRANCH  15  16
HETATM   16  C9  UNL     1      -6.573 -22.097  32.874  1.00  0.00     0.157 C
BRANCH  16  17
HETATM   17  C10 UNL     1      -6.190 -20.879  32.068  1.00  0.00     0.061 C
BRANCH  17  18
HETATM   18  C11 UNL     1      -5.417 -21.304  30.861  1.00  0.00     0.023 C
BRANCH  18  19
HETATM   19  C12 UNL     1      -6.181 -22.057  29.822  1.00  0.00     0.131 C
BRANCH  19  20
HETATM   20  N9  UNL     1      -5.433 -23.251  29.408  1.00  0.00    -0.146 NA
BRANCH  20  21
HETATM   21  N10 UNL     1      -6.146 -23.933  28.443  1.00  0.00    -0.114 NA
BRANCH  21  22
HETATM   22  C13 UNL     1      -6.421 -23.095  27.288  1.00  0.00     0.316 C
BRANCH  22  23
HETATM   23  N11 UNL     1      -5.383 -23.243  26.286  1.00  0.00    -0.058 N
ATOM     24 3H11 UNL     1      -5.410 -24.164  25.849  1.00  0.00     0.276 HD
ATOM     25 2H11 UNL     1      -5.572 -22.675  25.460  1.00  0.00     0.276 HD
ATOM     26 1H11 UNL     1      -4.466 -23.039  26.684  1.00  0.00     0.276 HD
ENDBRANCH  22  23
BRANCH  22  27
HETATM   27  C14 UNL     1      -7.759 -23.501  26.704  1.00  0.00     0.280 C
BRANCH  27  28
HETATM   28  N12 UNL     1      -8.704 -23.826  27.730  1.00  0.00    -0.076 N
ATOM     29 3H12 UNL     1      -8.837 -24.834  27.808  1.00  0.00     0.274 HD
ATOM     30 2H12 UNL     1      -8.324 -23.644  28.659  1.00  0.00     0.274 HD
ATOM     31 1H12 UNL     1      -9.591 -23.342  27.589  1.00  0.00     0.274 HD
ENDBRANCH  27  28
ENDBRANCH  22  27
ENDBRANCH  21  22
ENDBRANCH  20  21
ENDBRANCH  19  20
ENDBRANCH  18  19
ENDBRANCH  17  18
ENDBRANCH  16  17
ENDBRANCH  15  16
ENDBRANCH  14  15
BRANCH   1  32
HETATM   32  C2  UNL     1      -7.839 -20.548  35.936  1.00  0.00     0.104 C
HETATM   33  C1  UNL     1      -8.026 -19.115  36.297  1.00  0.00     0.034 C
HETATM   34  C3  UNL     1      -7.681 -21.329  37.231  1.00  0.00     0.034 C
ENDBRANCH   1  32
BRANCH   7  35
HETATM   35  N4  UNL     1     -13.392 -22.465  33.958  1.00  0.00    -0.383 N
ATOM     36  H42 UNL     1     -13.540 -22.412  34.966  1.00  0.00     0.157 HD
ATOM     37  H41 UNL     1     -14.205 -22.312  33.360  1.00  0.00     0.157 HD
ENDBRANCH   7  35
BRANCH  10  38
HETATM   38  N6  UNL     1     -10.740 -24.333  30.651  1.00  0.00    -0.234 N
ATOM     39  H62 UNL     1     -11.079 -25.295  30.671  1.00  0.00     0.174 HD
ATOM     40  H61 UNL     1     -10.299 -23.948  29.815  1.00  0.00     0.174 HD
ENDBRANCH  10  38
TORSDOF 14
ENDMDL