MODEL 3
REMARK VINA RESULT: -7.630645620      0.858      1.264
REMARK  12 active torsions:
REMARK  status: ('A' for Active; 'I' for Inactive)
REMARK    1  A    between atoms: O1_2  and  C2_3
REMARK    2  A    between atoms: C2_3  and  O2_4
REMARK    3  A    between atoms: O2_4  and  C3_5
REMARK    4  A    between atoms: C3_5  and  C4_6
REMARK    5  A    between atoms: C4_6  and  C5_7
REMARK    6  A    between atoms: C5_7  and  C6_8
REMARK    7  A    between atoms: C6_8  and  O3_9
REMARK    8  A    between atoms: O3_9  and  C7_10
REMARK    9  A    between atoms: C8_11  and  C9_12
REMARK   10  A    between atoms: C10_15  and  N2_16
REMARK   11  A    between atoms: C11_21  and  N4_22
REMARK   12  A    between atoms: C12_29  and  N7_30
ROOT
HETATM    1  C7  UNL     1      -9.678 -22.494  32.012  1.00  0.00     0.169 A
HETATM    2  C8  UNL     1      -9.704 -21.642  33.066  1.00  0.00     0.133 A
HETATM    3  N6  UNL     1     -10.790 -21.632  33.890  1.00  0.00    -0.185 N
ATOM      4  H6  UNL     1     -10.804 -20.987  34.680  1.00  0.00     0.184 HD
HETATM    5  C12 UNL     1     -11.858 -22.458  33.691  1.00  0.00     0.679 A
HETATM    6  N8  UNL     1     -11.817 -23.297  32.646  1.00  0.00    -0.154 N
ATOM      7  H8  UNL     1     -12.609 -23.920  32.487  1.00  0.00     0.187 HD
HETATM    8  C13 UNL     1     -10.782 -23.350  31.806  1.00  0.00     0.295 A
HETATM    9  O4  UNL     1     -10.822 -24.160  30.856  1.00  0.00    -0.264 OA
ENDROOT
BRANCH   2  10
HETATM   10  C9  UNL     1      -8.573 -20.738  33.370  1.00  0.00     0.166 A
HETATM   11  N1  UNL     1      -7.588 -20.466  32.508  1.00  0.00    -0.173 N
HETATM   12  C10 UNL     1      -6.583 -19.642  32.833  1.00  0.00     0.692 A
ATOM     13  H1  UNL     1      -7.603 -20.895  31.582  1.00  0.00     0.186 HD
HETATM   14  N3  UNL     1      -6.526 -19.043  34.069  1.00  0.00    -0.023 N
HETATM   15  C11 UNL     1      -7.491 -19.305  34.923  1.00  0.00     0.692 A
ATOM     16  H3  UNL     1      -5.760 -18.415  34.315  1.00  0.00     0.203 HD
HETATM   17  N5  UNL     1      -8.496 -20.142  34.572  1.00  0.00    -0.173 N
ATOM     18  H5  UNL     1      -9.231 -20.329  35.253  1.00  0.00     0.186 HD
BRANCH  12  19
HETATM   19  N2  UNL     1      -5.607 -19.367  32.038  1.00  0.00    -0.234 N
ATOM     20  H22 UNL     1      -4.926 -20.115  31.904  1.00  0.00     0.174 HD
ATOM     21  H21 UNL     1      -5.511 -18.473  31.556  1.00  0.00     0.174 HD
ENDBRANCH  12  19
BRANCH  15  22
HETATM   22  N4  UNL     1      -7.451 -18.752  36.085  1.00  0.00    -0.234 N
ATOM     23  H42 UNL     1      -6.680 -18.924  36.731  1.00  0.00     0.174 HD
ATOM     24  H41 UNL     1      -8.212 -18.128  36.353  1.00  0.00     0.174 HD
ENDBRANCH  15  22
ENDBRANCH   2  10
BRANCH   1  25
HETATM   25  O3  UNL     1      -8.672 -22.638  31.064  1.00  0.00    -0.344 OA
BRANCH  25  26
HETATM   26  C6  UNL     1      -8.761 -21.978  29.809  1.00  0.00     0.176 C
BRANCH  26  27
HETATM   27  C5  UNL     1      -8.031 -22.672  28.697  1.00  0.00     0.029 C
BRANCH  27  28
HETATM   28  C4  UNL     1      -8.830 -23.574  27.840  1.00  0.00     0.028 C
BRANCH  28  29
HETATM   29  C3  UNL     1      -8.264 -23.549  26.427  1.00  0.00     0.170 C
BRANCH  29  30
HETATM   30  O2  UNL     1      -6.994 -23.032  26.368  1.00  0.00    -0.367 OA
BRANCH  30  31
HETATM   31  C2  UNL     1      -6.103 -23.714  25.580  1.00  0.00     0.337 C
BRANCH  31  32
HETATM   32  O1  UNL     1      -4.779 -23.578  25.991  1.00  0.00    -0.372 OA
HETATM   33  C1  UNL     1      -4.605 -22.265  26.423  1.00  0.00     0.204 C
ENDBRANCH  31  32
ENDBRANCH  30  31
ENDBRANCH  29  30
ENDBRANCH  28  29
ENDBRANCH  27  28
ENDBRANCH  26  27
ENDBRANCH  25  26
ENDBRANCH   1  25
BRANCH   5  34
HETATM   34  N7  UNL     1     -12.868 -22.409  34.506  1.00  0.00    -0.234 N
ATOM     35  H72 UNL     1     -13.834 -22.464  34.184  1.00  0.00     0.174 HD
ATOM     36  H71 UNL     1     -12.703 -22.314  35.508  1.00  0.00     0.174 HD
ENDBRANCH   5  34
TORSDOF 12
ENDMDL