MODEL 2
REMARK VINA RESULT: -6.213562416      3.198      6.077
REMARK  14 active torsions:
REMARK  status: ('A' for Active; 'I' for Inactive)
REMARK    1  A    between atoms: N1_1  and  C1_5
REMARK    2  A    between atoms: C1_5  and  C2_6
REMARK    3  A    between atoms: C2_6  and  C3_7
REMARK    4  A    between atoms: C3_7  and  C4_8
REMARK    5  A    between atoms: C4_8  and  C5_9
REMARK    6  A    between atoms: C5_9  and  C6_10
REMARK    7  A    between atoms: C6_10  and  N2_11
REMARK    8  A    between atoms: C6_10  and  O1_15
REMARK    9  A    between atoms: O1_15  and  C7_16
REMARK   10  A    between atoms: C8_20  and  C9_21
REMARK   11  A    between atoms: C10_24  and  O3_25
REMARK   12  A    between atoms: C11_27  and  O4_28
REMARK   13  A    between atoms: C12_30  and  C13_31
REMARK   14  A    between atoms: C13_31  and  O5_32
ROOT
HETATM    1  C7  UNL     1      -8.289 -21.540  32.236  1.00  0.00     0.474 C
HETATM    2  N3  UNL     1      -9.248 -22.595  31.991  1.00  0.00     0.002 N
ATOM      3  H31 UNL     1      -8.945 -23.464  32.431  1.00  0.00     0.286 HD
ATOM      4  H32 UNL     1      -9.226 -22.880  31.012  1.00  0.00     0.286 HD
HETATM    5  C8  UNL     1     -10.574 -22.271  32.387  1.00  0.00     0.339 C
HETATM    6  O2  UNL     1     -10.693 -21.337  33.381  1.00  0.00    -0.325 OA
HETATM    7  C10 UNL     1     -10.310 -21.733  34.634  1.00  0.00     0.290 C
HETATM    8  C11 UNL     1      -8.894 -21.271  34.896  1.00  0.00     0.204 C
HETATM    9  C12 UNL     1      -7.953 -22.314  34.387  1.00  0.00     0.183 C
HETATM   10  O6  UNL     1      -7.378 -21.884  33.202  1.00  0.00    -0.329 OA
ENDROOT
BRANCH   1  11
HETATM   11  O1  UNL     1      -7.604 -21.323  31.041  1.00  0.00    -0.305 OA
BRANCH  11  12
HETATM   12  C6  UNL     1      -6.219 -21.484  31.198  1.00  0.00     0.322 C
BRANCH  12  13
HETATM   13  C5  UNL     1      -5.712 -22.123  29.949  1.00  0.00     0.061 C
BRANCH  13  14
HETATM   14  C4  UNL     1      -6.686 -22.391  28.867  1.00  0.00     0.004 C
BRANCH  14  15
HETATM   15  C3  UNL     1      -6.264 -23.276  27.754  1.00  0.00     0.002 C
BRANCH  15  16
HETATM   16  C2  UNL     1      -5.322 -22.630  26.764  1.00  0.00     0.027 C
BRANCH  16  17
HETATM   17  C1  UNL     1      -4.998 -23.613  25.650  1.00  0.00     0.229 C
BRANCH  17  18
HETATM   18  N1  UNL     1      -6.213 -23.649  24.818  1.00  0.00    -0.079 N
ATOM     19  H13 UNL     1      -6.032 -23.791  23.824  1.00  0.00     0.274 HD
ATOM     20  H12 UNL     1      -6.783 -24.483  24.951  1.00  0.00     0.274 HD
ATOM     21  H11 UNL     1      -6.698 -22.777  25.030  1.00  0.00     0.274 HD
ENDBRANCH  17  18
ENDBRANCH  16  17
ENDBRANCH  15  16
ENDBRANCH  14  15
ENDBRANCH  13  14
ENDBRANCH  12  13
BRANCH  12  22
HETATM   22  N2  UNL     1      -5.553 -20.278  31.511  1.00  0.00    -0.053 N
ATOM     23  H23 UNL     1      -4.980 -19.965  30.728  1.00  0.00     0.277 HD
ATOM     24  H22 UNL     1      -6.211 -19.500  31.558  1.00  0.00     0.277 HD
ATOM     25  H21 UNL     1      -4.999 -20.338  32.365  1.00  0.00     0.277 HD
ENDBRANCH  12  22
ENDBRANCH  11  12
ENDBRANCH   1  11
BRANCH   5  26
HETATM   26  C9  UNL     1     -11.313 -23.560  32.694  1.00  0.00     0.147 C
HETATM   27  S1  UNL     1     -13.090 -23.411  32.487  1.00  0.00    -0.093 SA
ENDBRANCH   5  26
BRANCH   9  28
HETATM   28  C13 UNL     1      -6.796 -22.542  35.365  1.00  0.00     0.199 C
BRANCH  28  29
HETATM   29  O5  UNL     1      -5.637 -22.508  34.616  1.00  0.00    -0.398 OA
ATOM     30  H5  UNL     1      -5.334 -21.608  34.628  1.00  0.00     0.209 HD
ENDBRANCH  28  29
ENDBRANCH   9  28
BRANCH   8  31
HETATM   31  O4  UNL     1      -8.654 -21.139  36.279  1.00  0.00    -0.388 OA
ATOM     32  H4  UNL     1      -7.743 -21.313  36.484  1.00  0.00     0.210 HD
ENDBRANCH   8  31
BRANCH   7  33
HETATM   33  O3  UNL     1     -11.117 -21.034  35.560  1.00  0.00    -0.368 OA
ATOM     34  H3  UNL     1     -10.642 -21.003  36.382  1.00  0.00     0.212 HD
ENDBRANCH   7  33
TORSDOF 14
ENDMDL