MODEL 1
REMARK VINA RESULT: -7.709087316      0.000      0.000
REMARK  9 active torsions:
REMARK  status: ('A' for Active; 'I' for Inactive)
REMARK    1  A    between atoms: N1_1  and  C1_4
REMARK    2  A    between atoms: N5_15  and  C5_16
REMARK    3  A    between atoms: C8_19  and  C9_20
REMARK    4  A    between atoms: C9_20  and  N6_21
REMARK    5  A    between atoms: N6_21  and  C10_24
REMARK    6  A    between atoms: C10_24  and  C11_25
REMARK    7  A    between atoms: C11_25  and  C12_26
REMARK    8  A    between atoms: C12_26  and  C13_27
REMARK    9  A    between atoms: C13_27  and  N7_28
REMARK       I    between atoms: N7_28  and  C14_31
REMARK       I    between atoms: C14_31  and  N8_32
REMARK       I    between atoms: C14_31  and  N9_36
ROOT
HETATM    1  C5  UNL     1      -8.534 -21.314  33.985  1.00  0.00     0.231 C
HETATM    2  C6  UNL     1      -7.746 -22.167  34.900  1.00  0.00     0.057 C
HETATM    3  C7  UNL     1      -6.402 -22.292  34.196  1.00  0.00     0.038 C
HETATM    4  C8  UNL     1      -6.750 -22.033  32.770  1.00  0.00     0.150 C
HETATM    5  O1  UNL     1      -7.976 -21.468  32.740  1.00  0.00    -0.359 OA
ENDROOT
BRANCH   4   6
HETATM    6  C9  UNL     1      -5.769 -21.140  32.045  1.00  0.00     0.264 C
BRANCH   6   7
HETATM    7  N6  UNL     1      -5.986 -21.079  30.619  1.00  0.00    -0.073 N
ATOM      8  H62 UNL     1      -6.983 -21.135  30.411  1.00  0.00     0.277 HD
ATOM      9  H61 UNL     1      -5.786 -20.142  30.271  1.00  0.00     0.277 HD
BRANCH   7  10
HETATM   10  C10 UNL     1      -5.264 -22.055  29.863  1.00  0.00     0.232 C
BRANCH  10  11
HETATM   11  C11 UNL     1      -6.069 -22.692  28.758  1.00  0.00     0.029 C
BRANCH  11  12
HETATM   12  C12 UNL     1      -7.518 -22.361  28.938  1.00  0.00     0.029 C
BRANCH  12  13
HETATM   13  C13 UNL     1      -8.455 -23.182  28.098  1.00  0.00     0.237 C
BRANCH  13  14
HETATM   14  N7  UNL     1      -7.842 -23.577  26.836  1.00  0.00    -0.022 N
HETATM   15  C14 UNL     1      -8.849 -23.695  25.788  1.00  0.00     0.575 C
HETATM   16  N8  UNL     1      -8.142 -24.047  24.558  1.00  0.00    -0.026 N
HETATM   17  N9  UNL     1      -9.799 -24.741  26.146  1.00  0.00    -0.026 N
ATOM     18  H83 UNL     1      -7.394 -23.394  24.324  1.00  0.00     0.278 HD
ATOM     19  H82 UNL     1      -7.562 -24.880  24.653  1.00  0.00     0.278 HD
ATOM     20  H81 UNL     1      -8.847 -24.130  23.825  1.00  0.00     0.278 HD
ATOM     21  H93 UNL     1      -9.339 -25.630  26.340  1.00  0.00     0.278 HD
ATOM     22  H92 UNL     1     -10.214 -24.588  27.065  1.00  0.00     0.278 HD
ATOM     23  H91 UNL     1     -10.503 -24.824  25.412  1.00  0.00     0.278 HD
ATOM     24  H72 UNL     1      -7.088 -22.944  26.567  1.00  0.00     0.281 HD
ATOM     25  H71 UNL     1      -7.295 -24.434  26.934  1.00  0.00     0.281 HD
ENDBRANCH  13  14
ENDBRANCH  12  13
ENDBRANCH  11  12
ENDBRANCH  10  11
ENDBRANCH   7  10
ENDBRANCH   6   7
ENDBRANCH   4   6
BRANCH   1  26
HETATM   26  N5  UNL     1      -9.933 -21.693  33.889  1.00  0.00    -0.299 N
HETATM   27  C4  UNL     1     -10.885 -21.216  34.710  1.00  0.00     0.188 A
HETATM   28  N4  UNL     1     -12.095 -21.740  34.380  1.00  0.00    -0.346 N
HETATM   29  C3  UNL     1     -11.870 -22.543  33.348  1.00  0.00     0.123 A
ATOM     30  H4  UNL     1     -12.991 -21.554  34.833  1.00  0.00     0.167 HD
HETATM   31  C2  UNL     1     -12.726 -23.334  32.605  1.00  0.00     0.145 A
HETATM   32  C15 UNL     1     -10.533 -22.530  33.025  1.00  0.00     0.157 A
HETATM   33  N2  UNL     1     -12.180 -24.044  31.604  1.00  0.00    -0.175 N
HETATM   34  N3  UNL     1     -13.988 -23.377  32.876  1.00  0.00    -0.383 N
HETATM   35  C1  UNL     1     -10.864 -24.017  31.305  1.00  0.00     0.679 A
ATOM     36  H2  UNL     1     -12.791 -24.636  31.042  1.00  0.00     0.186 HD
HETATM   37  N10 UNL     1     -10.012 -23.248  32.022  1.00  0.00    -0.174 N
ATOM     38  H10 UNL     1      -9.016 -23.216  31.807  1.00  0.00     0.186 HD
ATOM     39  H32 UNL     1     -14.620 -23.960  32.328  1.00  0.00     0.157 HD
ATOM     40  H31 UNL     1     -14.403 -22.837  33.636  1.00  0.00     0.157 HD
BRANCH  35  41
HETATM   41  N1  UNL     1     -10.408 -24.716  30.339  1.00  0.00    -0.234 N
ATOM     42  H12 UNL     1     -10.947 -24.783  29.475  1.00  0.00     0.174 HD
ATOM     43  H11 UNL     1      -9.516 -25.202  30.432  1.00  0.00     0.174 HD
ENDBRANCH  35  41
ENDBRANCH   1  26
TORSDOF 9
ENDMDL