MODEL 4
REMARK VINA RESULT: -6.265426295      2.928      7.144
REMARK  14 active torsions:
REMARK  status: ('A' for Active; 'I' for Inactive)
REMARK    1  A    between atoms: N1_1  and  C1_4
REMARK    2  A    between atoms: C3_10  and  N4_11
REMARK    3  A    between atoms: C4_16  and  N6_17
REMARK    4  A    between atoms: C6_21  and  S1_22
REMARK    5  A    between atoms: S1_22  and  C7_23
REMARK    6  A    between atoms: C7_23  and  C8_24
REMARK    7  A    between atoms: C8_24  and  C9_25
REMARK    8  A    between atoms: C9_25  and  N7_26
REMARK    9  A    between atoms: N7_26  and  C10_27
REMARK   10  A    between atoms: N7_26  and  C12_31
REMARK   11  A    between atoms: C10_27  and  C11_28
REMARK   12  A    between atoms: C11_28  and  O1_29
REMARK   13  A    between atoms: C12_31  and  C13_32
REMARK   14  A    between atoms: C13_32  and  O2_33
ROOT
HETATM    1  C1  UNL     1      -7.648 -19.853  34.974  1.00  0.00     0.678 A
HETATM    2  N2  UNL     1      -8.909 -20.190  35.305  1.00  0.00    -0.175 N
ATOM      3  H2  UNL     1      -9.295 -19.847  36.184  1.00  0.00     0.186 HD
HETATM    4  C2  UNL     1      -9.675 -20.958  34.523  1.00  0.00     0.153 A
HETATM    5  N3  UNL     1     -10.944 -21.305  34.845  1.00  0.00    -0.175 N
ATOM      6  H3  UNL     1     -11.335 -20.964  35.723  1.00  0.00     0.186 HD
HETATM    7  C3  UNL     1     -11.712 -22.079  34.055  1.00  0.00     0.679 A
HETATM    8  N5  UNL     1     -11.220 -22.542  32.892  1.00  0.00    -0.176 N
ATOM      9  H5  UNL     1     -11.798 -23.129  32.291  1.00  0.00     0.186 HD
HETATM   10  C4  UNL     1      -9.955 -22.226  32.521  1.00  0.00     0.131 A
HETATM   11  C5  UNL     1      -9.171 -21.433  33.332  1.00  0.00     0.087 A
HETATM   12  C6  UNL     1      -7.859 -21.079  32.993  1.00  0.00     0.104 A
HETATM   13  N8  UNL     1      -7.128 -20.302  33.813  1.00  0.00    -0.185 N
ATOM     14  H8  UNL     1      -6.174 -20.052  33.555  1.00  0.00     0.185 HD
ENDROOT
BRANCH  12  15
HETATM   15  S1  UNL     1      -7.248 -21.716  31.471  1.00  0.00    -0.110 SA
BRANCH  15  16
HETATM   16  C7  UNL     1      -5.545 -21.342  31.105  1.00  0.00     0.086 C
BRANCH  16  17
HETATM   17  C8  UNL     1      -5.121 -21.725  29.728  1.00  0.00     0.055 C
BRANCH  17  18
HETATM   18  C9  UNL     1      -5.866 -22.915  29.178  1.00  0.00     0.069 C
BRANCH  18  19
HETATM   19  N7  UNL     1      -6.131 -22.906  27.800  1.00  0.00    -0.350 N
BRANCH  19  20
HETATM   20  C10 UNL     1      -5.112 -22.613  26.888  1.00  0.00     0.094 C
BRANCH  20  21
HETATM   21  C11 UNL     1      -5.285 -23.250  25.524  1.00  0.00     0.209 C
BRANCH  21  22
HETATM   22  O1  UNL     1      -4.391 -24.339  25.432  1.00  0.00    -0.396 OA
ATOM     23  H1  UNL     1      -3.546 -24.005  25.152  1.00  0.00     0.209 HD
ENDBRANCH  21  22
ENDBRANCH  20  21
ENDBRANCH  19  20
BRANCH  19  24
HETATM   24  C12 UNL     1      -7.398 -23.323  27.375  1.00  0.00     0.094 C
BRANCH  24  25
HETATM   25  C13 UNL     1      -8.553 -22.986  28.264  1.00  0.00     0.209 C
BRANCH  25  26
HETATM   26  O2  UNL     1      -9.172 -24.129  28.779  1.00  0.00    -0.396 OA
ATOM     27  H2  UNL     1      -9.155 -24.148  29.729  1.00  0.00     0.209 HD
ENDBRANCH  25  26
ENDBRANCH  24  25
ENDBRANCH  19  24
ENDBRANCH  18  19
ENDBRANCH  17  18
ENDBRANCH  16  17
ENDBRANCH  15  16
ENDBRANCH  12  15
BRANCH  10  28
HETATM   28  N6  UNL     1      -9.485 -22.673  31.404  1.00  0.00    -0.384 N
ATOM     29  H62 UNL     1      -8.878 -23.492  31.397  1.00  0.00     0.157 HD
ATOM     30  H61 UNL     1      -9.725 -22.203  30.532  1.00  0.00     0.157 HD
ENDBRANCH  10  28
BRANCH   1  31
HETATM   31  N1  UNL     1      -6.925 -19.103  35.753  1.00  0.00    -0.234 N
ATOM     32  H12 UNL     1      -7.381 -18.422  36.361  1.00  0.00     0.174 HD
ATOM     33  H11 UNL     1      -5.908 -19.181  35.767  1.00  0.00     0.174 HD
ENDBRANCH   1  31
BRANCH   7  34
HETATM   34  N4  UNL     1     -12.930 -22.400  34.383  1.00  0.00    -0.234 N
ATOM     35  H42 UNL     1     -13.071 -22.999  35.196  1.00  0.00     0.174 HD
ATOM     36  H41 UNL     1     -13.735 -22.071  33.851  1.00  0.00     0.174 HD
ENDBRANCH   7  34
TORSDOF 14
ENDMDL