MODEL 4
REMARK VINA RESULT: -7.079891536      1.381      2.165
REMARK  11 active torsions:
REMARK  status: ('A' for Active; 'I' for Inactive)
REMARK    1  A    between atoms: C2_2  and  C3_3
REMARK    2  A    between atoms: C3_3  and  N1_4
REMARK    3  A    between atoms: N1_4  and  S1_6
REMARK    4  A    between atoms: S1_6  and  C4_9
REMARK    5  A    between atoms: C5_12  and  N3_13
REMARK    6  A    between atoms: C7_20  and  N6_21
REMARK    7  A    between atoms: N6_21  and  N7_23
REMARK    8  A    between atoms: N8_25  and  N9_27
REMARK    9  A    between atoms: N9_27  and  C8_29
REMARK   10  A    between atoms: C8_29  and  C9_33
REMARK   11  A    between atoms: C9_33  and  N11_34
ROOT
HETATM    1  C4  UNL     1      -9.590 -21.611  33.183  1.00  0.00     0.195 A
HETATM    2  N2  UNL     1     -10.672 -21.708  34.023  1.00  0.00    -0.177 N
ATOM      3  H2  UNL     1     -10.683 -21.162  34.884  1.00  0.00     0.185 HD
HETATM    4  C5  UNL     1     -11.714 -22.503  33.739  1.00  0.00     0.678 A
HETATM    5  N4  UNL     1     -11.702 -23.225  32.602  1.00  0.00    -0.177 N
ATOM      6  H4  UNL     1     -12.500 -23.826  32.397  1.00  0.00     0.185 HD
HETATM    7  C6  UNL     1     -10.685 -23.188  31.727  1.00  0.00     0.163 A
HETATM    8  N5  UNL     1     -10.655 -23.931  30.534  1.00  0.00    -0.080 NA
HETATM    9  C7  UNL     1      -9.611 -22.359  32.033  1.00  0.00     0.132 A
ENDROOT
BRANCH   9  10
HETATM   10  N6  UNL     1      -8.538 -22.301  31.104  1.00  0.00    -0.279 N
ATOM     11  H6  UNL     1      -7.630 -22.722  31.298  1.00  0.00     0.189 HD
BRANCH  10  12
HETATM   12  N7  UNL     1      -8.806 -21.631  29.911  1.00  0.00    -0.228 N
HETATM   13  N8  UNL     1      -8.284 -22.007  28.841  1.00  0.00    -0.227 N
ATOM     14  H8  UNL     1      -8.487 -21.506  27.976  1.00  0.00     0.210 HD
ATOM     15  H7  UNL     1      -9.433 -20.826  29.911  1.00  0.00     0.210 HD
BRANCH  13  16
HETATM   16  N9  UNL     1      -7.430 -23.100  28.820  1.00  0.00    -0.272 N
ATOM     17  H9  UNL     1      -7.645 -23.973  29.301  1.00  0.00     0.190 HD
BRANCH  16  18
HETATM   18  C8  UNL     1      -6.212 -22.908  28.066  1.00  0.00     0.116 C
HETATM   19  N10 UNL     1      -6.067 -23.326  26.866  1.00  0.00    -0.386 N
ATOM     20 2H10 UNL     1      -6.820 -23.822  26.388  1.00  0.00     0.157 HD
ATOM     21 1H10 UNL     1      -5.208 -23.190  26.335  1.00  0.00     0.157 HD
BRANCH  18  22
HETATM   22  C9  UNL     1      -5.121 -22.189  28.760  1.00  0.00     0.308 C
BRANCH  22  23
HETATM   23  N11 UNL     1      -5.153 -22.537  30.165  1.00  0.00    -0.072 N
HETATM   24  C10 UNL     1      -5.190 -21.295  30.903  1.00  0.00     0.267 C
ATOM     25 2H11 UNL     1      -5.915 -23.170  30.405  1.00  0.00     0.277 HD
ATOM     26 1H11 UNL     1      -4.385 -23.148  30.445  1.00  0.00     0.277 HD
ENDBRANCH  22  23
ENDBRANCH  18  22
ENDBRANCH  16  18
ENDBRANCH  13  16
ENDBRANCH  10  12
ENDBRANCH   9  10
BRANCH   1  27
HETATM   27  S1  UNL     1      -8.248 -20.580  33.598  1.00  0.00     0.277 S
HETATM   28  O1  UNL     1      -7.962 -19.605  32.485  1.00  0.00    -0.199 OA
HETATM   29  O2  UNL     1      -7.024 -21.396  33.811  1.00  0.00    -0.199 OA
BRANCH  27  30
HETATM   30  N1  UNL     1      -8.576 -19.735  35.076  1.00  0.00    -0.314 N
ATOM     31  H1  UNL     1      -9.473 -19.306  35.306  1.00  0.00     0.172 HD
BRANCH  30  32
HETATM   32  C3  UNL     1      -7.425 -19.715  35.936  1.00  0.00     0.132 C
BRANCH  32  33
HETATM   33  C2  UNL     1      -7.796 -20.261  37.294  1.00  0.00     0.016 C
HETATM   34  C1  UNL     1      -7.719 -21.768  37.223  1.00  0.00     0.006 C
ENDBRANCH  32  33
ENDBRANCH  30  32
ENDBRANCH  27  30
ENDBRANCH   1  27
BRANCH   4  35
HETATM   35  N3  UNL     1     -12.732 -22.582  34.548  1.00  0.00    -0.234 N
ATOM     36  H32 UNL     1     -12.674 -22.173  35.481  1.00  0.00     0.174 HD
ATOM     37  H31 UNL     1     -13.592 -23.050  34.262  1.00  0.00     0.174 HD
ENDBRANCH   4  35
TORSDOF 11
ENDMDL