MODEL 3
REMARK VINA RESULT: -6.016331330      3.888      7.258
REMARK  13 active torsions:
REMARK  status: ('A' for Active; 'I' for Inactive)
REMARK    1  A    between atoms: N2_4  and  N3_6
REMARK    2  A    between atoms: C1_8  and  C2_9
REMARK    3  A    between atoms: C3_10  and  O1_11
REMARK    4  A    between atoms: C4_13  and  O2_14
REMARK    5  A    between atoms: O2_14  and  C5_15
REMARK    6  A    between atoms: C5_15  and  C6_16
REMARK    7  A    between atoms: C6_16  and  C7_17
REMARK    8  A    between atoms: C7_17  and  C8_18
REMARK    9  A    between atoms: C8_18  and  C9_19
REMARK   10  A    between atoms: C9_19  and  C10_20
REMARK   11  A    between atoms: C10_20  and  O3_21
REMARK   12  A    between atoms: C11_23  and  N4_24
REMARK   13  A    between atoms: C12_28  and  C13_29
ROOT
HETATM    1  C2  UNL     1       8.726  36.579  -4.289  1.00  0.00     0.070 C
HETATM    2  C3  UNL     1       9.740  35.804  -5.147  1.00  0.00     0.159 C
HETATM    3  C4  UNL     1       8.875  34.624  -5.595  1.00  0.00     0.181 C
HETATM    4  C11 UNL     1       7.837  34.441  -4.523  1.00  0.00     0.226 C
HETATM    5  C12 UNL     1       8.232  35.410  -3.463  1.00  0.00     0.094 C
ENDROOT
BRANCH   3   6
HETATM    6  O2  UNL     1       8.284  34.940  -6.789  1.00  0.00    -0.381 OA
BRANCH   6   7
HETATM    7  C5  UNL     1       8.232  33.959  -7.733  1.00  0.00     0.168 C
BRANCH   7   8
HETATM    8  C6  UNL     1       7.335  34.164  -8.897  1.00  0.00     0.026 C
BRANCH   8   9
HETATM    9  C7  UNL     1       6.898  32.908  -9.602  1.00  0.00     0.002 C
BRANCH   9  10
HETATM   10  C8  UNL     1       5.978  33.218 -10.742  1.00  0.00     0.002 C
BRANCH  10  11
HETATM   11  C9  UNL     1       5.602  34.694 -10.810  1.00  0.00     0.026 C
BRANCH  11  12
HETATM   12  C10 UNL     1       4.507  34.869 -11.863  1.00  0.00     0.164 C
BRANCH  12  13
HETATM   13  O3  UNL     1       4.770  35.967 -12.664  1.00  0.00    -0.401 OA
ATOM     14  H3  UNL     1       4.598  35.765 -13.577  1.00  0.00     0.209 HD
ENDBRANCH  12  13
ENDBRANCH  11  12
ENDBRANCH  10  11
ENDBRANCH   9  10
ENDBRANCH   8   9
ENDBRANCH   7   8
ENDBRANCH   6   7
ENDBRANCH   3   6
BRANCH   2  15
HETATM   15  O1  UNL     1      10.740  35.399  -4.264  1.00  0.00    -0.392 OA
ATOM     16  H1  UNL     1      11.315  34.839  -4.772  1.00  0.00     0.210 HD
ENDBRANCH   2  15
BRANCH   4  17
HETATM   17  N4  UNL     1       7.821  33.066  -4.040  1.00  0.00    -0.072 N
ATOM     18  H43 UNL     1       7.498  32.419  -4.759  1.00  0.00     0.274 HD
ATOM     19  H42 UNL     1       8.764  32.701  -3.914  1.00  0.00     0.274 HD
ATOM     20  H41 UNL     1       7.268  32.986  -3.186  1.00  0.00     0.274 HD
ENDBRANCH   4  17
BRANCH   1  21
HETATM   21  C1  UNL     1       9.397  37.607  -3.497  1.00  0.00     0.089 C
HETATM   22  N3  UNL     1       8.907  38.787  -3.454  1.00  0.00    -0.301 N
ATOM     23  H3  UNL     1       9.367  39.513  -2.904  1.00  0.00     0.187 HD
BRANCH  22  24
HETATM   24  N2  UNL     1       7.742  39.077  -4.161  1.00  0.00    -0.250 N
HETATM   25  N1  UNL     1       6.741  39.495  -3.487  1.00  0.00    -0.331 N
ATOM     26  H12 UNL     1       6.808  39.607  -2.476  1.00  0.00     0.178 HD
ATOM     27  H11 UNL     1       5.888  39.708  -4.005  1.00  0.00     0.178 HD
ATOM     28  H2  UNL     1       7.691  38.961  -5.173  1.00  0.00     0.207 HD
ENDBRANCH  22  24
ENDBRANCH   1  21
BRANCH   5  29
HETATM   29  C13 UNL     1       7.150  35.774  -2.540  1.00  0.00     0.093 C
HETATM   30  N5  UNL     1       7.173  35.560  -1.274  1.00  0.00    -0.391 N
ATOM     31  H52 UNL     1       7.998  35.105  -0.884  1.00  0.00     0.157 HD
ATOM     32  H51 UNL     1       6.421  35.813  -0.632  1.00  0.00     0.157 HD
HETATM   33  N6  UNL     1       5.999  36.408  -3.084  1.00  0.00    -0.088 NA
ENDBRANCH   5  29
TORSDOF 13
ENDMDL