MODEL 3
REMARK VINA RESULT: -6.630500143      1.740      4.633
REMARK  13 active torsions:
REMARK  status: ('A' for Active; 'I' for Inactive)
REMARK    1  A    between atoms: N1_1  and  C1_5
REMARK    2  A    between atoms: C1_5  and  C2_6
REMARK    3  A    between atoms: C2_6  and  C3_7
REMARK    4  A    between atoms: C3_7  and  C4_8
REMARK    5  A    between atoms: C4_8  and  N2_9
REMARK    6  A    between atoms: N2_9  and  C5_11
REMARK    7  A    between atoms: C6_14  and  N4_15
REMARK    8  A    between atoms: N4_15  and  C7_17
REMARK    9  A    between atoms: C7_17  and  C8_18
REMARK   10  A    between atoms: C8_18  and  N5_19
REMARK   11  A    between atoms: C9_25  and  N7_26
REMARK   12  A    between atoms: N7_26  and  C10_28
REMARK   13  A    between atoms: C10_28  and  C11_29
ROOT
HETATM    1  C5  UNL     1       6.723  38.935  -3.466  1.00  0.00     0.707 A
HETATM    2  N3  UNL     1       5.698  39.746  -3.160  1.00  0.00    -0.022 N
ATOM      3  H3  UNL     1       5.736  40.729  -3.428  1.00  0.00     0.203 HD
HETATM    4  C6  UNL     1       4.626  39.279  -2.506  1.00  0.00     0.707 A
HETATM    5  N6  UNL     1       4.604  37.981  -2.166  1.00  0.00    -0.022 N
ATOM      6  H6  UNL     1       3.789  37.622  -1.668  1.00  0.00     0.203 HD
HETATM    7  C9  UNL     1       5.601  37.135  -2.449  1.00  0.00     0.707 A
HETATM    8  N8  UNL     1       6.665  37.625  -3.104  1.00  0.00    -0.022 N
ATOM      9  H8  UNL     1       7.442  37.005  -3.333  1.00  0.00     0.203 HD
ENDROOT
BRANCH   1  10
HETATM   10  N2  UNL     1       7.768  39.357  -4.095  1.00  0.00    -0.225 N
ATOM     11  H2  UNL     1       7.717  40.174  -4.704  1.00  0.00     0.177 HD
BRANCH  10  12
HETATM   12  C4  UNL     1       9.018  38.642  -3.914  1.00  0.00     0.138 C
BRANCH  12  13
HETATM   13  C3  UNL     1      10.006  39.590  -3.234  1.00  0.00     0.022 C
BRANCH  13  14
HETATM   14  C2  UNL     1      10.199  39.084  -1.823  1.00  0.00     0.029 C
BRANCH  14  15
HETATM   15  C1  UNL     1      11.451  39.669  -1.202  1.00  0.00     0.229 C
BRANCH  15  16
HETATM   16  N1  UNL     1      12.309  40.191  -2.259  1.00  0.00    -0.079 N
ATOM     17  H13 UNL     1      11.774  40.575  -3.038  1.00  0.00     0.274 HD
ATOM     18  H12 UNL     1      12.791  41.045  -1.981  1.00  0.00     0.274 HD
ATOM     19  H11 UNL     1      12.954  39.459  -2.556  1.00  0.00     0.274 HD
ENDBRANCH  15  16
ENDBRANCH  14  15
ENDBRANCH  13  14
ENDBRANCH  12  13
ENDBRANCH  10  12
ENDBRANCH   1  10
BRANCH   4  20
HETATM   20  N4  UNL     1       3.618  39.995  -2.184  1.00  0.00    -0.223 N
ATOM     21  H4  UNL     1       2.991  40.274  -2.939  1.00  0.00     0.177 HD
BRANCH  20  22
HETATM   22  C7  UNL     1       3.282  40.441  -0.870  1.00  0.00     0.165 C
BRANCH  22  23
HETATM   23  C8  UNL     1       1.771  40.621  -0.817  1.00  0.00     0.249 C
BRANCH  23  24
HETATM   24  N5  UNL     1       1.375  41.804  -0.119  1.00  0.00    -0.078 N
ATOM     25  H53 UNL     1       1.021  41.577   0.810  1.00  0.00     0.274 HD
ATOM     26  H52 UNL     1       2.188  42.362   0.143  1.00  0.00     0.274 HD
ATOM     27  H51 UNL     1       0.701  42.365  -0.639  1.00  0.00     0.274 HD
ENDBRANCH  23  24
ENDBRANCH  22  23
ENDBRANCH  20  22
ENDBRANCH   4  20
BRANCH   7  28
HETATM   28  N7  UNL     1       5.496  35.908  -2.085  1.00  0.00    -0.225 N
ATOM     29  H7  UNL     1       6.338  35.382  -1.856  1.00  0.00     0.177 HD
BRANCH  28  30
HETATM   30  C10 UNL     1       4.205  35.257  -1.995  1.00  0.00     0.142 C
BRANCH  30  31
HETATM   31  C11 UNL     1       4.270  34.304  -0.799  1.00  0.00     0.004 A
HETATM   32  C12 UNL     1       3.146  34.378   0.183  1.00  0.00     0.007 A
HETATM   33  C13 UNL     1       3.284  33.196  -0.710  1.00  0.00     0.007 A
ENDBRANCH  30  31
ENDBRANCH  28  30
ENDBRANCH   7  28
TORSDOF 13
ENDMDL