MODEL 4
REMARK VINA RESULT: -6.392929797      2.103      7.729
REMARK  10 active torsions:
REMARK  status: ('A' for Active; 'I' for Inactive)
REMARK       I    between atoms: C1_4  and  N3_6
REMARK    1  A    between atoms: N3_6  and  C2_7
REMARK    2  A    between atoms: N3_6  and  C4_11
REMARK    3  A    between atoms: C2_7  and  C3_8
REMARK    4  A    between atoms: C3_8  and  O1_9
REMARK    5  A    between atoms: C4_11  and  C5_12
REMARK    6  A    between atoms: C5_12  and  S1_13
REMARK    7  A    between atoms: S1_13  and  C6_15
REMARK    8  A    between atoms: C6_15  and  C7_16
REMARK    9  A    between atoms: C9_18  and  C10_19
REMARK   10  A    between atoms: C10_19  and  O3_20
ROOT
HETATM    1  S1  UNL     1       8.820  35.142  -4.636  1.00  0.00     0.017 S
HETATM    2  O2  UNL     1       9.139  33.721  -3.906  1.00  0.00    -0.258 OA
ENDROOT
BRANCH   1   3
HETATM    3  C5  UNL     1       9.534  35.385  -6.193  1.00  0.00     0.128 C
BRANCH   3   4
HETATM    4  C4  UNL     1       9.926  34.098  -6.876  1.00  0.00     0.138 C
BRANCH   4   5
HETATM    5  N3  UNL     1       8.803  33.418  -7.474  1.00  0.00    -0.353 N
HETATM    6  C1  UNL     1       8.888  32.018  -7.632  1.00  0.00     0.184 C
HETATM    7  N1  UNL     1       9.612  31.503  -8.554  1.00  0.00    -0.374 N
HETATM    8  N2  UNL     1       8.171  31.164  -6.766  1.00  0.00    -0.064 NA
ATOM      9  H12 UNL     1       9.673  30.491  -8.668  1.00  0.00     0.158 HD
ATOM     10  H11 UNL     1      10.130  32.120  -9.180  1.00  0.00     0.158 HD
BRANCH   5  11
HETATM   11  C2  UNL     1       7.608  34.089  -7.910  1.00  0.00     0.151 C
BRANCH  11  12
HETATM   12  C3  UNL     1       7.554  34.353  -9.371  1.00  0.00     0.183 C
BRANCH  12  13
HETATM   13  O1  UNL     1       8.395  35.330  -9.831  1.00  0.00    -0.399 OA
ATOM     14  H1  UNL     1       8.373  35.487 -10.767  1.00  0.00     0.209 HD
ENDBRANCH  12  13
ENDBRANCH  11  12
ENDBRANCH   5  11
ENDBRANCH   4   5
ENDBRANCH   3   4
ENDBRANCH   1   3
BRANCH   1  15
HETATM   15  C6  UNL     1       8.544  36.501  -3.621  1.00  0.00     0.122 C
BRANCH  15  16
HETATM   16  C7  UNL     1       9.044  37.833  -4.118  1.00  0.00     0.091 C
HETATM   17  C8  UNL     1      10.386  38.168  -3.426  1.00  0.00     0.042 C
HETATM   18  C9  UNL     1      10.001  38.437  -1.991  1.00  0.00     0.108 C
HETATM   19  N4  UNL     1       8.600  38.855  -2.075  1.00  0.00    -0.354 N
HETATM   20  C11 UNL     1       8.215  38.913  -3.466  1.00  0.00     0.223 C
ATOM     21  H4  UNL     1       7.996  39.069  -1.282  1.00  0.00     0.162 HD
HETATM   22  O4  UNL     1       7.382  39.692  -3.980  1.00  0.00    -0.273 OA
BRANCH  18  23
HETATM   23  C10 UNL     1      10.786  39.597  -1.412  1.00  0.00     0.189 C
BRANCH  23  24
HETATM   24  O3  UNL     1      11.565  40.221  -2.373  1.00  0.00    -0.399 OA
ATOM     25  H3  UNL     1      12.413  40.477  -2.029  1.00  0.00     0.209 HD
ENDBRANCH  23  24
ENDBRANCH  18  23
ENDBRANCH  15  16
ENDBRANCH   1  15
TORSDOF 10
ENDMDL