MODEL 3
REMARK VINA RESULT: -6.213227433      4.009      6.252
REMARK  11 active torsions:
REMARK  status: ('A' for Active; 'I' for Inactive)
REMARK    1  A    between atoms: N1_1  and  C1_5
REMARK    2  A    between atoms: C1_5  and  C2_6
REMARK    3  A    between atoms: C2_6  and  C3_7
REMARK    4  A    between atoms: C3_7  and  C4_8
REMARK    5  A    between atoms: C4_8  and  C5_9
REMARK    6  A    between atoms: C6_13  and  C7_14
REMARK    7  A    between atoms: C7_14  and  C8_15
REMARK    8  A    between atoms: C8_15  and  C9_16
REMARK    9  A    between atoms: C9_16  and  N3_17
REMARK       I    between atoms: N6_24  and  C12_25
REMARK   10  A    between atoms: C12_25  and  C13_27
REMARK   11  A    between atoms: C13_27  and  N7_28
ROOT
HETATM    1  C5  UNL     1       8.461  36.398  -3.622  1.00  0.00     0.296 C
HETATM    2  N2  UNL     1       7.943  36.097  -2.313  1.00  0.00    -0.041 N
ATOM      3  H21 UNL     1       7.372  36.840  -1.911  1.00  0.00     0.280 HD
ATOM      4  H22 UNL     1       8.651  36.087  -1.578  1.00  0.00     0.280 HD
HETATM    5  C6  UNL     1       7.233  34.818  -2.479  1.00  0.00     0.280 C
HETATM    6  C11 UNL     1       8.112  34.113  -3.442  1.00  0.00     0.259 C
HETATM    7  O1  UNL     1       8.336  32.865  -3.530  1.00  0.00    -0.271 OA
HETATM    8  N6  UNL     1       8.680  35.156  -4.286  1.00  0.00    -0.255 N
HETATM    9  C12 UNL     1       9.304  34.814  -5.520  1.00  0.00     0.253 C
HETATM   10  O2  UNL     1       9.337  33.604  -5.892  1.00  0.00    -0.271 OA
ENDROOT
BRANCH   1  11
HETATM   11  C4  UNL     1       9.564  37.386  -3.604  1.00  0.00     0.055 C
BRANCH  11  12
HETATM   12  C3  UNL     1       9.624  38.295  -2.424  1.00  0.00     0.005 C
BRANCH  12  13
HETATM   13  C2  UNL     1      10.574  39.436  -2.775  1.00  0.00     0.027 C
BRANCH  13  14
HETATM   14  C1  UNL     1      11.536  39.714  -1.646  1.00  0.00     0.229 C
BRANCH  14  15
HETATM   15  N1  UNL     1      12.667  40.425  -2.210  1.00  0.00    -0.079 N
ATOM     16  H13 UNL     1      13.455  39.815  -2.426  1.00  0.00     0.274 HD
ATOM     17  H12 UNL     1      12.496  40.759  -3.158  1.00  0.00     0.274 HD
ATOM     18  H11 UNL     1      12.908  41.174  -1.561  1.00  0.00     0.274 HD
ENDBRANCH  14  15
ENDBRANCH  13  14
ENDBRANCH  12  13
ENDBRANCH  11  12
ENDBRANCH   1  11
BRANCH   5  19
HETATM   19  C7  UNL     1       5.877  35.100  -3.014  1.00  0.00     0.044 C
BRANCH  19  20
HETATM   20  C8  UNL     1       5.102  36.121  -2.243  1.00  0.00     0.022 C
BRANCH  20  21
HETATM   21  C9  UNL     1       5.269  37.519  -2.717  1.00  0.00     0.122 C
BRANCH  21  22
HETATM   22  N3  UNL     1       4.355  38.362  -1.979  1.00  0.00    -0.367 N
HETATM   23  C10 UNL     1       4.148  39.576  -2.340  1.00  0.00     0.196 C
HETATM   24  N4  UNL     1       3.264  40.448  -1.655  1.00  0.00    -0.067 NA
HETATM   25  N5  UNL     1       4.850  40.058  -3.488  1.00  0.00    -0.067 NA
ATOM     26  H3  UNL     1       3.869  37.988  -1.164  1.00  0.00     0.161 HD
ENDBRANCH  21  22
ENDBRANCH  20  21
ENDBRANCH  19  20
ENDBRANCH   5  19
BRANCH   9  27
HETATM   27  C13 UNL     1       9.913  35.824  -6.383  1.00  0.00     0.332 C
BRANCH  27  28
HETATM   28  N7  UNL     1       9.635  35.529  -7.802  1.00  0.00    -0.071 N
ATOM     29  H73 UNL     1       9.792  34.546  -8.022  1.00  0.00     0.274 HD
ATOM     30  H72 UNL     1       8.638  35.575  -8.010  1.00  0.00     0.274 HD
ATOM     31  H71 UNL     1      10.178  36.144  -8.408  1.00  0.00     0.274 HD
ENDBRANCH  27  28
ENDBRANCH   9  27
TORSDOF 11
ENDMDL