MODEL 4
REMARK VINA RESULT: -6.788435058      2.864      4.647
REMARK  11 active torsions:
REMARK  status: ('A' for Active; 'I' for Inactive)
REMARK    1  A    between atoms: N1_1  and  C1_5
REMARK    2  A    between atoms: C1_5  and  C2_6
REMARK    3  A    between atoms: C2_6  and  C3_7
REMARK    4  A    between atoms: C3_7  and  N2_8
REMARK    5  A    between atoms: N2_8  and  C4_10
REMARK    6  A    between atoms: C4_10  and  C5_11
REMARK    7  A    between atoms: C5_11  and  C6_12
REMARK    8  A    between atoms: C6_12  and  N3_13
REMARK    9  A    between atoms: N3_13  and  C7_16
REMARK   10  A    between atoms: C7_16  and  N4_17
REMARK   11  A    between atoms: C7_16  and  C8_21
ROOT
HETATM    1  C7  UNL     1       9.369  36.756  -3.726  1.00  0.00     0.415 C
ENDROOT
BRANCH   1   2
HETATM    2  N3  UNL     1       9.467  36.840  -5.135  1.00  0.00    -0.042 N
ATOM      3  H32 UNL     1      10.248  37.428  -5.425  1.00  0.00     0.280 HD
ATOM      4  H31 UNL     1       8.706  37.387  -5.536  1.00  0.00     0.280 HD
BRANCH   2   5
HETATM    5  C6  UNL     1       9.544  35.514  -5.723  1.00  0.00     0.240 C
BRANCH   5   6
HETATM    6  C5  UNL     1      10.410  35.398  -6.922  1.00  0.00     0.072 C
BRANCH   6   7
HETATM    7  C4  UNL     1      11.767  34.844  -6.813  1.00  0.00     0.057 C
BRANCH   7   8
HETATM    8  N2  UNL     1      12.379  34.791  -5.566  1.00  0.00    -0.402 N
ATOM      9  H2  UNL     1      12.540  35.649  -5.038  1.00  0.00     0.158 HD
BRANCH   8  10
HETATM   10  C3  UNL     1      12.775  33.553  -5.035  1.00  0.00     0.120 C
BRANCH  10  11
HETATM   11  C2  UNL     1      14.130  33.681  -4.312  1.00  0.00     0.047 C
BRANCH  11  12
HETATM   12  C1  UNL     1      14.479  32.318  -3.752  1.00  0.00     0.231 C
BRANCH  12  13
HETATM   13  N1  UNL     1      14.925  32.401  -2.383  1.00  0.00    -0.079 N
ATOM     14  H13 UNL     1      15.824  32.876  -2.313  1.00  0.00     0.274 HD
ATOM     15  H12 UNL     1      14.356  33.055  -1.845  1.00  0.00     0.274 HD
ATOM     16  H11 UNL     1      14.955  31.483  -1.938  1.00  0.00     0.274 HD
ENDBRANCH  12  13
ENDBRANCH  11  12
ENDBRANCH  10  11
ENDBRANCH   8  10
ENDBRANCH   7   8
ENDBRANCH   6   7
ENDBRANCH   5   6
ENDBRANCH   2   5
ENDBRANCH   1   2
BRANCH   1  17
HETATM   17  N4  UNL     1      10.196  37.729  -3.027  1.00  0.00    -0.046 N
ATOM     18  H43 UNL     1      10.756  38.268  -3.688  1.00  0.00     0.277 HD
ATOM     19  H42 UNL     1       9.623  38.478  -2.639  1.00  0.00     0.277 HD
ATOM     20  H41 UNL     1      10.788  37.317  -2.306  1.00  0.00     0.277 HD
ENDBRANCH   1  17
BRANCH   1  21
HETATM   21  C8  UNL     1       8.001  36.678  -3.169  1.00  0.00     0.031 A
HETATM   22  C9  UNL     1       7.420  35.594  -2.619  1.00  0.00     0.008 A
HETATM   23  C10 UNL     1       6.045  35.913  -2.181  1.00  0.00     0.177 A
HETATM   24  N5  UNL     1       5.869  37.291  -2.552  1.00  0.00    -0.279 N
HETATM   25  N6  UNL     1       4.828  38.088  -2.406  1.00  0.00    -0.248 N
HETATM   26  C13 UNL     1       7.019  37.759  -3.130  1.00  0.00     0.129 A
HETATM   27  C11 UNL     1       4.816  39.371  -2.795  1.00  0.00     0.341 A
ATOM     28  H6  UNL     1       3.987  37.708  -1.973  1.00  0.00     0.192 HD
HETATM   29  O1  UNL     1       3.791  40.107  -2.635  1.00  0.00    -0.245 OA
HETATM   30  N7  UNL     1       5.910  39.886  -3.365  1.00  0.00    -0.272 N
HETATM   31  C12 UNL     1       6.988  39.081  -3.522  1.00  0.00     0.278 A
ATOM     32  H7  UNL     1       5.932  40.858  -3.672  1.00  0.00     0.173 HD
HETATM   33  O2  UNL     1       8.024  39.556  -4.056  1.00  0.00    -0.265 OA
ENDBRANCH   1  21
TORSDOF 11
ENDMDL