MODEL 3
REMARK VINA RESULT: -7.416351914      5.872      9.001
REMARK  8 active torsions:
REMARK  status: ('A' for Active; 'I' for Inactive)
REMARK    1  A    between atoms: N3_4  and  C2_6
REMARK    2  A    between atoms: C2_6  and  C3_7
REMARK    3  A    between atoms: C3_7  and  C4_8
REMARK    4  A    between atoms: C4_8  and  C5_9
REMARK    5  A    between atoms: C7_14  and  C8_15
REMARK    6  A    between atoms: C8_15  and  C9_16
REMARK    7  A    between atoms: C9_16  and  C10_17
REMARK    8  A    between atoms: C10_17  and  N5_18
ROOT
HETATM    1  C5  UNL     1       9.510  35.052  -4.449  1.00  0.00     0.176 C
HETATM    2  N4  UNL     1      10.044  35.820  -5.562  1.00  0.00    -0.346 N
ATOM      3  H4  UNL     1      10.674  36.599  -5.370  1.00  0.00     0.163 HD
HETATM    4  C6  UNL     1       9.715  35.518  -6.902  1.00  0.00     0.241 C
HETATM    5  O1  UNL     1       9.967  36.367  -7.789  1.00  0.00    -0.271 OA
HETATM    6  C7  UNL     1       9.093  34.251  -7.278  1.00  0.00     0.176 C
HETATM    7  N8  UNL     1       8.656  33.443  -6.165  1.00  0.00    -0.346 N
ATOM      8  H8  UNL     1       7.968  32.705  -6.314  1.00  0.00     0.163 HD
HETATM    9  C12 UNL     1       9.176  33.669  -4.868  1.00  0.00     0.241 C
HETATM   10  O2  UNL     1       9.361  32.709  -4.060  1.00  0.00    -0.271 OA
ENDROOT
BRANCH   1  11
HETATM   11  C4  UNL     1       8.298  35.789  -3.967  1.00  0.00     0.036 C
BRANCH  11  12
HETATM   12  C3  UNL     1       8.526  37.219  -3.601  1.00  0.00     0.022 C
BRANCH  12  13
HETATM   13  C2  UNL     1       7.570  37.628  -2.489  1.00  0.00     0.122 C
BRANCH  13  14
HETATM   14  N3  UNL     1       6.837  38.778  -2.975  1.00  0.00    -0.367 N
HETATM   15  C1  UNL     1       5.558  38.745  -3.023  1.00  0.00     0.196 C
HETATM   16  N1  UNL     1       4.885  39.905  -3.509  1.00  0.00    -0.067 NA
HETATM   17  N2  UNL     1       4.877  37.575  -2.600  1.00  0.00    -0.067 NA
ATOM     18  H3  UNL     1       7.338  39.612  -3.278  1.00  0.00     0.161 HD
ENDBRANCH  13  14
ENDBRANCH  12  13
ENDBRANCH  11  12
ENDBRANCH   1  11
BRANCH   6  19
HETATM   19  C8  UNL     1       8.023  34.367  -8.332  1.00  0.00     0.036 C
BRANCH  19  20
HETATM   20  C9  UNL     1       7.376  33.040  -8.668  1.00  0.00     0.022 C
BRANCH  20  21
HETATM   21  C10 UNL     1       6.663  33.144 -10.028  1.00  0.00     0.122 C
BRANCH  21  22
HETATM   22  N5  UNL     1       6.279  34.517 -10.268  1.00  0.00    -0.367 N
HETATM   23  C11 UNL     1       5.230  34.886 -10.903  1.00  0.00     0.196 C
HETATM   24  N6  UNL     1       4.984  36.273 -11.060  1.00  0.00    -0.067 NA
HETATM   25  N7  UNL     1       4.313  33.956 -11.452  1.00  0.00    -0.067 NA
ATOM     26  H5  UNL     1       6.890  35.248  -9.903  1.00  0.00     0.161 HD
ENDBRANCH  21  22
ENDBRANCH  20  21
ENDBRANCH  19  20
ENDBRANCH   6  19
TORSDOF 8
ENDMDL