MODEL 1
REMARK VINA RESULT: -6.877321908      0.000      0.000
REMARK  11 active torsions:
REMARK  status: ('A' for Active; 'I' for Inactive)
REMARK    1  A    between atoms: C2_2  and  C3_3
REMARK    2  A    between atoms: C2_2  and  C4_8
REMARK    3  A    between atoms: C3_3  and  N1_4
REMARK    4  A    between atoms: C4_8  and  C5_9
REMARK    5  A    between atoms: C5_9  and  N2_10
REMARK    6  A    between atoms: C5_9  and  N3_14
REMARK    7  A    between atoms: N3_14  and  C6_16
REMARK    8  A    between atoms: C6_16  and  C7_17
REMARK    9  A    between atoms: C6_16  and  C9_22
REMARK   10  A    between atoms: C7_17  and  C8_18
REMARK   11  A    between atoms: C9_22  and  N5_23
REMARK       I    between atoms: C10_25  and  N7_27
REMARK       I    between atoms: N7_27  and  C11_28
REMARK       I    between atoms: C11_28  and  N9_30
ROOT
HETATM    1  C6  UNL     1       9.183  33.908  -5.717  1.00  0.00     0.006 C
ENDROOT
BRANCH   1   2
HETATM    2  N3  UNL     1       8.707  32.759  -6.390  1.00  0.00    -0.368 N
ATOM      3  H3  UNL     1       8.393  31.950  -5.854  1.00  0.00     0.161 HD
BRANCH   2   4
HETATM    4  C5  UNL     1       8.666  32.729  -7.797  1.00  0.00     0.282 C
BRANCH   4   5
HETATM    5  C4  UNL     1       7.252  32.515  -8.289  1.00  0.00     0.060 C
BRANCH   5   6
HETATM    6  C2  UNL     1       6.742  33.704  -9.112  1.00  0.00     0.010 C
HETATM    7  C1  UNL     1       7.882  34.689  -9.327  1.00  0.00     0.011 C
BRANCH   6   8
HETATM    8  C3  UNL     1       6.216  33.203 -10.449  1.00  0.00     0.234 C
BRANCH   8   9
HETATM    9  N1  UNL     1       7.251  32.723 -11.297  1.00  0.00    -0.079 N
ATOM     10  H13 UNL     1       8.092  33.294 -11.208  1.00  0.00     0.274 HD
ATOM     11  H12 UNL     1       7.620  31.835 -10.958  1.00  0.00     0.274 HD
ATOM     12  H11 UNL     1       6.957  32.652 -12.270  1.00  0.00     0.274 HD
ENDBRANCH   8   9
ENDBRANCH   6   8
ENDBRANCH   5   6
ENDBRANCH   4   5
BRANCH   4  13
HETATM   13  N2  UNL     1       9.486  31.724  -8.441  1.00  0.00    -0.058 N
ATOM     14  H23 UNL     1       8.964  30.891  -8.712  1.00  0.00     0.276 HD
ATOM     15  H22 UNL     1       9.793  31.993  -9.376  1.00  0.00     0.276 HD
ATOM     16  H21 UNL     1      10.260  31.525  -7.805  1.00  0.00     0.276 HD
ENDBRANCH   4  13
ENDBRANCH   2   4
ENDBRANCH   1   2
BRANCH   1  17
HETATM   17  C7  UNL     1      10.660  34.098  -5.652  1.00  0.00     0.098 C
BRANCH  17  18
HETATM   18  C8  UNL     1      11.070  34.878  -6.826  1.00  0.00     0.058 C
HETATM   19  N4  UNL     1      10.535  35.922  -7.277  1.00  0.00    -0.411 N
ATOM     20  H42 UNL     1       9.724  36.251  -6.755  1.00  0.00     0.155 HD
ATOM     21  H41 UNL     1      10.819  36.464  -8.093  1.00  0.00     0.155 HD
ENDBRANCH  17  18
ENDBRANCH   1  17
BRANCH   1  22
HETATM   22  C9  UNL     1       8.534  34.319  -4.440  1.00  0.00     0.175 C
BRANCH  22  23
HETATM   23  N5  UNL     1       9.027  35.617  -4.068  1.00  0.00    -0.348 N
HETATM   24  C10 UNL     1       8.402  36.604  -3.556  1.00  0.00     0.266 C
HETATM   25  N6  UNL     1       7.001  36.412  -3.305  1.00  0.00    -0.049 NA
HETATM   26  N7  UNL     1       8.992  37.746  -3.241  1.00  0.00    -0.341 NA
HETATM   27  C11 UNL     1       9.493  38.789  -3.023  1.00  0.00     0.268 C
HETATM   28  N8  UNL     1       9.401  39.930  -3.892  1.00  0.00    -0.049 NA
HETATM   29  N9  UNL     1      10.263  39.016  -1.829  1.00  0.00    -0.341 N
HETATM   30  C12 UNL     1      10.540  38.624  -0.400  1.00  0.00     0.146 A
HETATM   31  C13 UNL     1      11.270  39.668  -1.037  1.00  0.00     0.146 A
ATOM     32  H5  UNL     1      10.021  35.771  -4.238  1.00  0.00     0.163 HD
ENDBRANCH  22  23
ENDBRANCH   1  22
TORSDOF 11
ENDMDL