MODEL 5
REMARK VINA RESULT: -6.469254076      2.051      6.665
REMARK  10 active torsions:
REMARK  status: ('A' for Active; 'I' for Inactive)
REMARK    1  A    between atoms: N1_1  and  C1_4
REMARK    2  A    between atoms: C3_8  and  C4_9
REMARK    3  A    between atoms: C4_9  and  N3_10
REMARK    4  A    between atoms: N3_10  and  C5_11
REMARK    5  A    between atoms: N3_10  and  C10_20
REMARK    6  A    between atoms: C5_11  and  C6_12
REMARK    7  A    between atoms: C6_12  and  C7_13
REMARK    8  A    between atoms: C7_13  and  C8_14
REMARK    9  A    between atoms: C8_14  and  N4_15
REMARK   10  A    between atoms: C10_20  and  C11_21
ROOT
HETATM    1  N3  UNL     1       9.264  36.337  -3.733  1.00  0.00    -0.381 N
ENDROOT
BRANCH   1   2
HETATM    2  C4  UNL     1       9.764  35.241  -4.429  1.00  0.00     0.104 C
BRANCH   2   3
HETATM    3  C3  UNL     1       9.401  35.145  -5.859  1.00  0.00     0.064 A
HETATM    4  C2  UNL     1       9.927  35.894  -6.876  1.00  0.00     0.124 A
HETATM    5  N2  UNL     1       9.506  35.758  -8.153  1.00  0.00    -0.201 N
HETATM    6  C1  UNL     1       8.552  34.886  -8.483  1.00  0.00     0.678 A
ATOM      7  H2  UNL     1       9.927  36.336  -8.880  1.00  0.00     0.183 HD
HETATM    8  N8  UNL     1       8.003  34.128  -7.520  1.00  0.00    -0.156 N
HETATM    9  C12 UNL     1       8.402  34.243  -6.257  1.00  0.00     0.272 A
ATOM     10  H8  UNL     1       7.272  33.457  -7.761  1.00  0.00     0.187 HD
HETATM   11  O2  UNL     1       7.896  33.536  -5.335  1.00  0.00    -0.267 OA
BRANCH   6  12
HETATM   12  N1  UNL     1       8.149  34.761  -9.721  1.00  0.00    -0.234 N
ATOM     13  H12 UNL     1       7.174  34.537  -9.919  1.00  0.00     0.174 HD
ATOM     14  H11 UNL     1       8.796  34.885 -10.500  1.00  0.00     0.174 HD
ENDBRANCH   6  12
ENDBRANCH   2   3
ENDBRANCH   1   2
BRANCH   1  15
HETATM   15  C5  UNL     1       7.876  36.611  -3.743  1.00  0.00     0.123 C
BRANCH  15  16
HETATM   16  C6  UNL     1       7.090  35.751  -2.761  1.00  0.00     0.021 C
BRANCH  16  17
HETATM   17  C7  UNL     1       5.921  36.535  -2.280  1.00  0.00     0.021 C
BRANCH  17  18
HETATM   18  C8  UNL     1       5.824  37.939  -2.762  1.00  0.00     0.122 C
BRANCH  18  19
HETATM   19  N4  UNL     1       4.845  38.642  -1.918  1.00  0.00    -0.367 N
HETATM   20  C9  UNL     1       4.318  39.732  -2.344  1.00  0.00     0.196 C
HETATM   21  N5  UNL     1       3.365  40.472  -1.593  1.00  0.00    -0.067 NA
HETATM   22  N6  UNL     1       4.674  40.251  -3.612  1.00  0.00    -0.067 NA
ATOM     23  H4  UNL     1       4.589  38.268  -1.003  1.00  0.00     0.161 HD
ENDBRANCH  18  19
ENDBRANCH  17  18
ENDBRANCH  16  17
ENDBRANCH  15  16
ENDBRANCH   1  15
BRANCH   1  24
HETATM   24  C10 UNL     1      10.018  37.523  -3.620  1.00  0.00     0.221 C
BRANCH  24  25
HETATM   25  C11 UNL     1       9.466  38.568  -2.775  1.00  0.00     0.248 C
HETATM   26  N7  UNL     1       9.457  38.405  -1.375  1.00  0.00    -0.061 NA
HETATM   27  O1  UNL     1       8.997  39.616  -3.251  1.00  0.00    -0.275 OA
ENDBRANCH  24  25
ENDBRANCH   1  24
TORSDOF 10
ENDMDL