MODEL 5
REMARK VINA RESULT: -5.795928856      2.524      3.862
REMARK  10 active torsions:
REMARK  status: ('A' for Active; 'I' for Inactive)
REMARK    1  A    between atoms: N1_2  and  C4_5
REMARK    2  A    between atoms: C4_5  and  C5_6
REMARK    3  A    between atoms: C5_6  and  C6_7
REMARK    4  A    between atoms: C6_7  and  N2_8
REMARK    5  A    between atoms: N2_8  and  C7_11
REMARK    6  A    between atoms: C7_11  and  C8_12
REMARK    7  A    between atoms: C8_12  and  O1_13
REMARK    8  A    between atoms: O1_13  and  C9_14
REMARK    9  A    between atoms: C9_14  and  C10_15
REMARK   10  A    between atoms: C10_15  and  C11_16
ROOT
HETATM    1  C9  UNL     1       7.959  36.222  -3.588  1.00  0.00     0.226 C
ENDROOT
BRANCH   1   2
HETATM    2  O1  UNL     1       6.666  35.833  -3.594  1.00  0.00    -0.385 OA
BRANCH   2   3
HETATM    3  C8  UNL     1       6.357  34.641  -3.040  1.00  0.00     0.195 C
BRANCH   3   4
HETATM    4  C7  UNL     1       5.222  33.894  -3.666  1.00  0.00     0.258 C
BRANCH   4   5
HETATM    5  N2  UNL     1       5.515  32.704  -4.369  1.00  0.00    -0.073 N
ATOM      6  H22 UNL     1       4.974  32.645  -5.232  1.00  0.00     0.277 HD
ATOM      7  H21 UNL     1       5.137  31.890  -3.883  1.00  0.00     0.277 HD
BRANCH   5   8
HETATM    8  C6  UNL     1       6.938  32.542  -4.631  1.00  0.00     0.234 C
BRANCH   8   9
HETATM    9  C5  UNL     1       7.087  32.508  -6.168  1.00  0.00     0.055 C
BRANCH   9  10
HETATM   10  C4  UNL     1       7.599  33.903  -6.497  1.00  0.00     0.237 C
BRANCH  10  11
HETATM   11  N1  UNL     1       8.563  33.956  -7.531  1.00  0.00    -0.079 N
HETATM   12  C1  UNL     1       7.884  34.329  -8.791  1.00  0.00     0.271 C
HETATM   13  C2  UNL     1       9.331  32.765  -7.704  1.00  0.00     0.271 C
HETATM   14  C3  UNL     1       9.497  35.050  -7.205  1.00  0.00     0.271 C
ENDBRANCH  10  11
ENDBRANCH   9  10
ENDBRANCH   8   9
ENDBRANCH   5   8
ENDBRANCH   4   5
ENDBRANCH   3   4
ENDBRANCH   2   3
ENDBRANCH   1   2
BRANCH   1  15
HETATM   15  C10 UNL     1       8.269  37.627  -3.224  1.00  0.00     0.202 C
HETATM   16  N5  UNL     1       8.953  37.744  -1.950  1.00  0.00    -0.095 NA
HETATM   17  N6  UNL     1       9.407  39.064  -1.952  1.00  0.00    -0.253 N
HETATM   18  C12 UNL     1       9.691  39.393  -3.303  1.00  0.00     0.333 C
ATOM     19  H6  UNL     1       9.513  39.673  -1.140  1.00  0.00     0.187 HD
HETATM   20  O2  UNL     1      10.325  40.407  -3.736  1.00  0.00    -0.246 OA
HETATM   21  N7  UNL     1       9.126  38.356  -4.121  1.00  0.00    -0.309 N
ATOM     22  H7  UNL     1       9.294  38.177  -5.111  1.00  0.00     0.167 HD
BRANCH  15  23
HETATM   23  C11 UNL     1       6.964  38.388  -3.078  1.00  0.00     0.136 C
HETATM   24  N3  UNL     1       6.249  38.186  -2.054  1.00  0.00    -0.388 N
ATOM     25  H32 UNL     1       6.527  37.520  -1.333  1.00  0.00     0.157 HD
ATOM     26  H31 UNL     1       5.372  38.697  -1.956  1.00  0.00     0.157 HD
HETATM   27  N4  UNL     1       6.582  39.301  -4.068  1.00  0.00    -0.084 NA
ENDBRANCH  15  23
ENDBRANCH   1  15
TORSDOF 10
ENDMDL