MODEL 3
REMARK VINA RESULT: -5.282720641      3.093      4.900
REMARK  14 active torsions:
REMARK  status: ('A' for Active; 'I' for Inactive)
REMARK    1  A    between atoms: C2_2  and  N1_3
REMARK    2  A    between atoms: N1_3  and  C3_4
REMARK    3  A    between atoms: C3_4  and  N2_5
REMARK    4  A    between atoms: N2_5  and  C4_8
REMARK    5  A    between atoms: C4_8  and  C5_9
REMARK    6  A    between atoms: C5_9  and  O1_10
REMARK    7  A    between atoms: C7_13  and  C8_14
REMARK    8  A    between atoms: C8_14  and  C9_15
REMARK    9  A    between atoms: C9_15  and  C10_16
REMARK   10  A    between atoms: C10_16  and  O2_17
REMARK   11  A    between atoms: C11_19  and  O3_20
REMARK   12  A    between atoms: C12_22  and  O4_23
REMARK   13  A    between atoms: C13_25  and  C14_26
REMARK   14  A    between atoms: C14_26  and  O5_27
ROOT
HETATM    1  N1  UNL     1       9.177  33.617  -6.848  1.00  0.00    -0.035 N
HETATM    2  C6  UNL     1       8.084  33.143  -6.061  1.00  0.00     0.247 C
HETATM    3  C7  UNL     1       7.641  34.022  -4.945  1.00  0.00     0.043 C
HETATM    4  C11 UNL     1       8.808  34.396  -4.096  1.00  0.00     0.154 C
HETATM    5  C12 UNL     1       9.957  34.925  -4.918  1.00  0.00     0.180 C
HETATM    6  C13 UNL     1      10.306  34.017  -6.069  1.00  0.00     0.246 C
ENDROOT
BRANCH   1   7
HETATM    7  C2  UNL     1       9.572  32.501  -7.705  1.00  0.00     0.236 C
HETATM    8  C1  UNL     1       9.022  31.179  -7.284  1.00  0.00     0.035 C
ENDBRANCH   1   7
BRANCH   1   9
HETATM    9  C3  UNL     1       8.661  34.639  -7.736  1.00  0.00     0.468 C
BRANCH   9  10
HETATM   10  N2  UNL     1       8.453  34.151  -9.098  1.00  0.00    -0.049 N
ATOM     11  H22 UNL     1       9.067  34.620  -9.764  1.00  0.00     0.279 HD
ATOM     12  H21 UNL     1       8.798  33.199  -9.214  1.00  0.00     0.279 HD
BRANCH  10  13
HETATM   13  C4  UNL     1       7.057  34.267  -9.482  1.00  0.00     0.260 C
BRANCH  13  14
HETATM   14  C5  UNL     1       6.495  33.026 -10.108  1.00  0.00     0.191 C
BRANCH  14  15
HETATM   15  O1  UNL     1       7.245  32.728 -11.245  1.00  0.00    -0.399 OA
ATOM     16  H1  UNL     1       7.609  33.537 -11.585  1.00  0.00     0.209 HD
ENDBRANCH  14  15
ENDBRANCH  13  14
ENDBRANCH  10  13
ENDBRANCH   9  10
ENDBRANCH   1   9
BRANCH   6  17
HETATM   17  C14 UNL     1      11.429  34.633  -6.820  1.00  0.00     0.200 C
BRANCH  17  18
HETATM   18  O5  UNL     1      12.409  35.011  -5.863  1.00  0.00    -0.399 OA
ATOM     19  H5  UNL     1      13.208  35.198  -6.343  1.00  0.00     0.209 HD
ENDBRANCH  17  18
ENDBRANCH   6  17
BRANCH   3  20
HETATM   20  C8  UNL     1       6.688  33.218  -4.071  1.00  0.00     0.011 C
BRANCH  20  21
HETATM   21  C9  UNL     1       5.279  33.722  -4.139  1.00  0.00     0.027 C
BRANCH  21  22
HETATM   22  C10 UNL     1       5.039  34.561  -2.895  1.00  0.00     0.164 C
BRANCH  22  23
HETATM   23  O2  UNL     1       5.413  35.878  -3.078  1.00  0.00    -0.401 OA
ATOM     24  H2  UNL     1       4.682  36.475  -2.965  1.00  0.00     0.209 HD
ENDBRANCH  22  23
ENDBRANCH  21  22
ENDBRANCH  20  21
ENDBRANCH   3  20
BRANCH   5  25
HETATM   25  O4  UNL     1       9.717  36.209  -5.380  1.00  0.00    -0.391 OA
ATOM     26  H4  UNL     1      10.206  36.400  -6.172  1.00  0.00     0.210 HD
ENDBRANCH   5  25
BRANCH   4  27
HETATM   27  O3  UNL     1       8.391  35.415  -3.223  1.00  0.00    -0.393 OA
ATOM     28  H3  UNL     1       7.943  35.004  -2.492  1.00  0.00     0.210 HD
ENDBRANCH   4  27
TORSDOF 14
ENDMDL