MODEL 4
REMARK VINA RESULT: -5.036911305      2.239      3.867
REMARK  3 active torsions:
REMARK  status: ('A' for Active; 'I' for Inactive)
REMARK    1  A    between atoms: N1_1  and  N2_4
REMARK    2  A    between atoms: C1_6  and  C2_8
REMARK    3  A    between atoms: C3_9  and  C4_10
ROOT
HETATM    1  C2  UNL     1      -1.436  58.885  44.096  1.00  0.00     0.082 C
HETATM    2  C3  UNL     1      -1.984  59.517  43.094  1.00  0.00     0.038 C
HETATM    3  C5  UNL     1      -3.253  58.736  42.696  1.00  0.00     0.066 C
HETATM    4  C6  UNL     1      -3.611  58.185  44.059  1.00  0.00     0.124 C
HETATM    5  N5  UNL     1      -2.266  57.701  44.387  1.00  0.00    -0.386 N
ATOM      6  H5  UNL     1      -1.978  56.784  44.728  1.00  0.00     0.159 HD
ENDROOT
BRANCH   1   7
HETATM    7  C1  UNL     1      -0.237  59.205  44.829  1.00  0.00     0.157 C
HETATM    8  N2  UNL     1       0.928  59.149  44.308  1.00  0.00    -0.293 N
ATOM      9  H2  UNL     1       1.674  59.416  44.950  1.00  0.00     0.187 HD
HETATM   10  N3  UNL     1      -0.244  59.623  46.175  1.00  0.00    -0.079 NA
BRANCH   8  11
HETATM   11  N1  UNL     1       1.374  58.805  43.076  1.00  0.00    -0.344 N
ATOM     12  H12 UNL     1       1.126  57.846  42.831  1.00  0.00     0.176 HD
ATOM     13  H11 UNL     1       1.898  59.309  42.361  1.00  0.00     0.176 HD
ENDBRANCH   8  11
ENDBRANCH   1   7
BRANCH   2  14
HETATM   14  C4  UNL     1      -1.652  60.709  42.354  1.00  0.00     0.263 C
HETATM   15  N4  UNL     1      -0.460  60.662  41.483  1.00  0.00    -0.057 NA
HETATM   16  O1  UNL     1      -2.193  61.819  42.301  1.00  0.00    -0.271 OA
ENDBRANCH   2  14
TORSDOF 3
ENDMDL