MODEL 4
REMARK VINA RESULT: -5.463769403      4.981      7.969
REMARK  2 active torsions:
REMARK  status: ('A' for Active; 'I' for Inactive)
REMARK       I    between atoms: C1_2  and  N2_4
REMARK    1  A    between atoms: N2_4  and  N3_6
REMARK    2  A    between atoms: C2_8  and  C3_9
ROOT
HETATM    1  N3  UNL     1      -3.541  58.260  44.846  1.00  0.00    -0.306 N
ATOM      2  H3  UNL     1      -4.396  58.653  45.239  1.00  0.00     0.186 HD
HETATM    3  C2  UNL     1      -3.524  57.770  43.628  1.00  0.00     0.136 C
ENDROOT
BRANCH   1   4
HETATM    4  N2  UNL     1      -2.351  58.232  45.594  1.00  0.00    -0.254 N
HETATM    5  C1  UNL     1      -1.506  59.375  45.522  1.00  0.00     0.347 C
HETATM    6  N1  UNL     1      -0.299  59.371  46.268  1.00  0.00    -0.038 NA
HETATM    7  O1  UNL     1      -1.782  60.382  44.829  1.00  0.00    -0.249 OA
ATOM      8  H2  UNL     1      -2.104  57.425  46.166  1.00  0.00     0.191 HD
ENDBRANCH   1   4
BRANCH   3   9
HETATM    9  C3  UNL     1      -4.730  57.778  42.817  1.00  0.00     0.049 A
HETATM   10  C4  UNL     1      -4.747  57.834  41.443  1.00  0.00     0.032 A
HETATM   11  C5  UNL     1      -6.072  57.824  41.008  1.00  0.00     0.019 A
HETATM   12  C6  UNL     1      -6.839  57.760  42.176  1.00  0.00     0.088 A
HETATM   13  N4  UNL     1      -6.006  57.734  43.236  1.00  0.00    -0.365 N
ATOM     14  H4  UNL     1      -6.302  57.688  44.211  1.00  0.00     0.165 HD
ENDBRANCH   3   9
TORSDOF 2
ENDMDL