MODEL 5
REMARK VINA RESULT: -5.406036484      2.339      6.594
REMARK  4 active torsions:
REMARK  status: ('A' for Active; 'I' for Inactive)
REMARK    1  A    between atoms: C1_2  and  C2_4
REMARK    2  A    between atoms: C5_7  and  N2_8
REMARK    3  A    between atoms: N2_8  and  N3_10
REMARK    4  A    between atoms: N3_10  and  C6_12
ROOT
HETATM    1  C2  UNL     1      -4.763  57.804  42.543  1.00  0.00     0.029 A
HETATM    2  C3  UNL     1      -6.093  57.783  42.952  1.00  0.00     0.019 A
HETATM    3  C4  UNL     1      -7.122  57.692  42.042  1.00  0.00     0.032 A
HETATM    4  C5  UNL     1      -6.851  57.619  40.683  1.00  0.00     0.048 A
HETATM    5  C7  UNL     1      -5.525  57.642  40.314  1.00  0.00     0.032 A
HETATM    6  C8  UNL     1      -4.470  57.732  41.194  1.00  0.00     0.019 A
ENDROOT
BRANCH   4   7
HETATM    7  N2  UNL     1      -7.891  57.523  39.723  1.00  0.00    -0.299 N
ATOM      8  H2  UNL     1      -8.193  58.363  39.229  1.00  0.00     0.187 HD
BRANCH   7   9
HETATM    9  N3  UNL     1      -8.506  56.309  39.442  1.00  0.00    -0.277 N
ATOM     10  H3  UNL     1      -7.953  55.507  39.140  1.00  0.00     0.189 HD
BRANCH   9  11
HETATM   11  C6  UNL     1      -9.901  56.201  39.578  1.00  0.00     0.368 C
HETATM   12  O2  UNL     1     -10.423  55.250  40.197  1.00  0.00    -0.282 OA
ENDBRANCH   9  11
ENDBRANCH   7   9
ENDBRANCH   4   7
BRANCH   1  13
HETATM   13  C1  UNL     1      -3.718  57.901  43.533  1.00  0.00     0.264 C
HETATM   14  N1  UNL     1      -3.952  58.529  44.766  1.00  0.00    -0.057 NA
HETATM   15  O1  UNL     1      -2.595  57.424  43.297  1.00  0.00    -0.271 OA
ENDBRANCH   1  13
TORSDOF 4
ENDMDL