MODEL 1
REMARK VINA RESULT: -5.974880575      0.000      0.000
REMARK  4 active torsions:
REMARK  status: ('A' for Active; 'I' for Inactive)
REMARK       I    between atoms: C1_4  and  N2_5
REMARK       I    between atoms: C1_4  and  N4_10
REMARK    1  A    between atoms: N2_5  and  N3_7
REMARK    2  A    between atoms: N4_10  and  O1_12
REMARK    3  A    between atoms: O1_12  and  C2_13
REMARK    4  A    between atoms: C2_13  and  C3_14
ROOT
HETATM    1  N1  UNL     1       1.216  58.840  46.433  1.00  0.00    -0.232 N
ATOM      2  H11 UNL     1       1.124  57.938  46.900  1.00  0.00     0.174 HD
ATOM      3  H12 UNL     1       2.059  59.393  46.590  1.00  0.00     0.174 HD
HETATM    4  C1  UNL     1       0.290  59.262  45.669  1.00  0.00     0.709 C
HETATM    5  N2  UNL     1       0.419  60.517  45.020  1.00  0.00    -0.137 N
ATOM      6  H2  UNL     1      -0.261  61.252  45.215  1.00  0.00     0.205 HD
HETATM    7  N4  UNL     1      -0.870  58.501  45.452  1.00  0.00    -0.095 N
ATOM      8  H4  UNL     1      -0.794  57.645  44.903  1.00  0.00     0.213 HD
ENDROOT
BRANCH   7   9
HETATM    9  O1  UNL     1      -2.066  58.843  45.930  1.00  0.00    -0.264 OA
BRANCH   9  10
HETATM   10  C2  UNL     1      -2.880  59.404  44.944  1.00  0.00     0.234 C
BRANCH  10  11
HETATM   11  C3  UNL     1      -3.624  58.325  44.210  1.00  0.00     0.212 C
HETATM   12  C4  UNL     1      -4.452  58.855  43.069  1.00  0.00     0.037 C
HETATM   13  C5  UNL     1      -5.386  57.665  42.873  1.00  0.00     0.029 C
HETATM   14  C6  UNL     1      -5.771  57.437  44.341  1.00  0.00     0.233 C
HETATM   15  N5  UNL     1      -4.570  57.689  45.090  1.00  0.00    -0.069 N
ATOM     16  H52 UNL     1      -4.196  56.849  45.532  1.00  0.00     0.277 HD
ATOM     17  H51 UNL     1      -4.741  58.225  45.941  1.00  0.00     0.277 HD
ENDBRANCH  10  11
ENDBRANCH   9  10
ENDBRANCH   7   9
BRANCH   5  18
HETATM   18  N3  UNL     1       1.460  60.769  44.117  1.00  0.00    -0.331 N
ATOM     19  H32 UNL     1       2.175  61.448  44.380  1.00  0.00     0.177 HD
ATOM     20  H31 UNL     1       1.512  60.291  43.217  1.00  0.00     0.177 HD
ENDBRANCH   5  18
TORSDOF 4
ENDMDL