MODEL 1
REMARK VINA RESULT: -5.309191555      0.000      0.000
REMARK  3 active torsions:
REMARK  status: ('A' for Active; 'I' for Inactive)
REMARK    1  A    between atoms: C1_2  and  C2_4
REMARK    2  A    between atoms: C4_8  and  N3_9
REMARK    3  A    between atoms: N3_9  and  C5_11
ROOT
HETATM    1  C2  UNL     1      -0.274  59.806  43.936  1.00  0.00     0.072 A
HETATM    2  C3  UNL     1       1.022  60.051  43.556  1.00  0.00     0.108 A
HETATM    3  N2  UNL     1       1.864  59.605  44.519  1.00  0.00    -0.350 N
ATOM      4  H2  UNL     1       2.883  59.657  44.498  1.00  0.00     0.166 HD
HETATM    5  C4  UNL     1       1.122  59.083  45.501  1.00  0.00     0.133 A
HETATM    6  C6  UNL     1      -0.233  59.200  45.154  1.00  0.00     0.107 A
HETATM    7  N4  UNL     1      -1.304  58.760  45.943  1.00  0.00    -0.097 NA
ENDROOT
BRANCH   5   8
HETATM    8  N3  UNL     1       1.590  58.499  46.708  1.00  0.00    -0.319 N
ATOM      9  H3  UNL     1       1.174  58.817  47.583  1.00  0.00     0.169 HD
BRANCH   8  10
HETATM   10  C5  UNL     1       2.584  57.518  46.776  1.00  0.00     0.354 C
HETATM   11  O2  UNL     1       3.500  57.295  45.956  1.00  0.00    -0.283 OA
ENDBRANCH   8  10
ENDBRANCH   5   8
BRANCH   1  12
HETATM   12  C1  UNL     1      -1.470  60.152  43.145  1.00  0.00     0.268 C
HETATM   13  N1  UNL     1      -2.333  59.148  42.632  1.00  0.00    -0.057 NA
HETATM   14  O1  UNL     1      -1.675  61.373  42.955  1.00  0.00    -0.271 OA
ENDBRANCH   1  12
TORSDOF 3
ENDMDL