MODEL 5
REMARK VINA RESULT: -4.503999326      1.726      4.269
REMARK  4 active torsions:
REMARK  status: ('A' for Active; 'I' for Inactive)
REMARK    1  A    between atoms: N1_1  and  C1_5
REMARK    2  A    between atoms: C1_5  and  C2_6
REMARK    3  A    between atoms: C2_6  and  C3_7
REMARK    4  A    between atoms: C3_7  and  C4_8
ROOT
HETATM    1  C4  UNL     1      -0.967  59.186  43.682  1.00  0.00     0.169 C
HETATM    2  N2  UNL     1      -1.322  59.956  42.538  1.00  0.00    -0.409 N
ATOM      3  H2  UNL     1      -2.287  60.034  42.217  1.00  0.00     0.154 HD
HETATM    4  C5  UNL     1      -0.253  60.607  41.871  1.00  0.00     0.116 C
HETATM    5  C6  UNL     1       0.146  61.927  42.516  1.00  0.00     0.039 C
HETATM    6  C7  UNL     1       1.275  61.608  43.480  1.00  0.00     0.124 C
HETATM    7  N3  UNL     1       0.680  61.030  44.662  1.00  0.00    -0.359 N
ATOM      8  H3  UNL     1       0.948  61.446  45.554  1.00  0.00     0.162 HD
HETATM    9  C8  UNL     1      -0.231  59.955  44.719  1.00  0.00     0.240 C
HETATM   10  O1  UNL     1      -0.452  59.586  45.924  1.00  0.00    -0.271 OA
ENDROOT
BRANCH   1  11
HETATM   11  C3  UNL     1      -2.261  58.723  44.329  1.00  0.00     0.036 C
BRANCH  11  12
HETATM   12  C2  UNL     1      -2.983  57.701  43.489  1.00  0.00     0.030 C
BRANCH  12  13
HETATM   13  C1  UNL     1      -4.438  57.723  43.955  1.00  0.00     0.230 C
BRANCH  13  14
HETATM   14  N1  UNL     1      -4.540  57.914  45.369  1.00  0.00    -0.079 N
ATOM     15  H13 UNL     1      -4.810  57.051  45.842  1.00  0.00     0.274 HD
ATOM     16  H12 UNL     1      -3.622  58.048  45.793  1.00  0.00     0.274 HD
ATOM     17  H11 UNL     1      -5.172  58.679  45.603  1.00  0.00     0.274 HD
ENDBRANCH  13  14
ENDBRANCH  12  13
ENDBRANCH  11  12
ENDBRANCH   1  11
TORSDOF 4
ENDMDL