MODEL 2
REMARK VINA RESULT: -5.422391013      1.129      1.131
REMARK  3 active torsions:
REMARK  status: ('A' for Active; 'I' for Inactive)
REMARK    1  A    between atoms: N1_1  and  N2_4
REMARK       I    between atoms: N2_4  and  C1_6
REMARK    2  A    between atoms: C1_6  and  C2_8
REMARK    3  A    between atoms: C2_8  and  N3_9
REMARK       I    between atoms: N3_9  and  C3_11
ROOT
HETATM    1  C2  UNL     1       3.228  60.470  43.020  1.00  0.00     0.116 C
HETATM    2  C4  UNL     1       2.439  61.732  43.097  1.00  0.00     0.041 C
HETATM    3  C5  UNL     1       3.665  62.447  43.554  1.00  0.00     0.006 C
HETATM    4  C6  UNL     1       4.468  61.224  43.278  1.00  0.00     0.041 C
ENDROOT
BRANCH   1   5
HETATM    5  C1  UNL     1       2.814  59.515  44.096  1.00  0.00     0.264 C
HETATM    6  N2  UNL     1       1.625  59.753  44.808  1.00  0.00    -0.275 N
ATOM      7  H2  UNL     1       1.048  60.568  44.597  1.00  0.00     0.189 HD
HETATM    8  O1  UNL     1       3.516  58.530  44.349  1.00  0.00    -0.269 OA
BRANCH   6   9
HETATM    9  N1  UNL     1       1.253  58.869  45.792  1.00  0.00    -0.343 N
ATOM     10  H12 UNL     1       1.500  57.883  45.704  1.00  0.00     0.176 HD
ATOM     11  H11 UNL     1       0.735  59.219  46.598  1.00  0.00     0.176 HD
ENDBRANCH   6   9
ENDBRANCH   1   5
BRANCH   1  12
HETATM   12  N3  UNL     1       3.135  59.853  41.705  1.00  0.00    -0.327 N
HETATM   13  C3  UNL     1       1.928  59.336  41.221  1.00  0.00     0.329 C
HETATM   14  N4  UNL     1       1.929  58.745  39.909  1.00  0.00    -0.040 NA
HETATM   15  O2  UNL     1       0.850  59.341  41.819  1.00  0.00    -0.251 OA
ATOM     16  H3  UNL     1       3.970  59.796  41.122  1.00  0.00     0.165 HD
ENDBRANCH   1  12
TORSDOF 3
ENDMDL