MODEL 4
REMARK VINA RESULT: -5.405812420      5.201      6.397
REMARK  2 active torsions:
REMARK  status: ('A' for Active; 'I' for Inactive)
REMARK       I    between atoms: C1_4  and  N2_5
REMARK       I    between atoms: C1_4  and  N3_11
REMARK    1  A    between atoms: N2_5  and  C2_7
REMARK    2  A    between atoms: N3_11  and  N4_13
ROOT
HETATM    1  N1  UNL     1      -3.474  58.184  45.449  1.00  0.00    -0.233 N
ATOM      2  H11 UNL     1      -3.202  57.506  46.161  1.00  0.00     0.174 HD
ATOM      3  H12 UNL     1      -4.470  58.355  45.311  1.00  0.00     0.174 HD
HETATM    4  C1  UNL     1      -2.609  58.818  44.735  1.00  0.00     0.691 C
HETATM    5  N2  UNL     1      -2.988  59.762  43.744  1.00  0.00    -0.221 N
ATOM      6  H2  UNL     1      -3.005  60.751  43.994  1.00  0.00     0.178 HD
HETATM    7  N3  UNL     1      -1.221  58.579  44.929  1.00  0.00    -0.072 N
ATOM      8  H3  UNL     1      -0.767  57.746  44.554  1.00  0.00     0.212 HD
ENDROOT
BRANCH   5   9
HETATM    9  C2  UNL     1      -3.352  59.385  42.397  1.00  0.00     0.099 C
HETATM   10  C3  UNL     1      -3.937  58.004  42.322  1.00  0.00     0.026 C
HETATM   11  C4  UNL     1      -5.328  58.610  42.179  1.00  0.00     0.004 C
HETATM   12  C5  UNL     1      -4.691  59.936  41.926  1.00  0.00     0.026 C
ENDBRANCH   5   9
BRANCH   7  13
HETATM   13  N4  UNL     1      -0.508  59.530  45.651  1.00  0.00    -0.024 N
HETATM   14  O1  UNL     1       0.109  59.168  46.660  1.00  0.00    -0.516 OA
HETATM   15  O2  UNL     1      -0.513  60.826  45.222  1.00  0.00    -0.516 OA
ENDBRANCH   7  13
TORSDOF 2
ENDMDL