MODEL 3
REMARK VINA RESULT: -5.536284285      3.708      6.038
REMARK  3 active torsions:
REMARK  status: ('A' for Active; 'I' for Inactive)
REMARK    1  A    between atoms: N1_1  and  N2_4
REMARK       I    between atoms: N2_4  and  C1_6
REMARK    2  A    between atoms: C1_6  and  C2_8
REMARK    3  A    between atoms: C5_11  and  C6_12
ROOT
HETATM    1  C2  UNL     1       0.744  59.265  44.266  1.00  0.00     0.103 A
HETATM    2  C3  UNL     1       2.007  59.357  44.809  1.00  0.00     0.038 A
HETATM    3  C4  UNL     1       2.945  59.110  43.821  1.00  0.00     0.037 A
HETATM    4  C5  UNL     1       2.240  58.868  42.674  1.00  0.00     0.098 A
HETATM    5  N4  UNL     1       0.925  58.967  42.969  1.00  0.00    -0.348 N
ATOM      6  H4  UNL     1       0.170  58.834  42.296  1.00  0.00     0.166 HD
ENDROOT
BRANCH   1   7
HETATM    7  C1  UNL     1      -0.551  59.449  44.935  1.00  0.00     0.286 C
HETATM    8  N2  UNL     1      -1.445  58.355  45.040  1.00  0.00    -0.271 N
ATOM      9  H2  UNL     1      -1.198  57.443  44.656  1.00  0.00     0.189 HD
HETATM   10  O1  UNL     1      -0.880  60.562  45.417  1.00  0.00    -0.264 OA
BRANCH   8  11
HETATM   11  N1  UNL     1      -2.667  58.547  45.676  1.00  0.00    -0.342 N
ATOM     12  H12 UNL     1      -3.209  59.390  45.484  1.00  0.00     0.176 HD
ATOM     13  H11 UNL     1      -2.999  57.836  46.328  1.00  0.00     0.176 HD
ENDBRANCH   8  11
ENDBRANCH   1   7
BRANCH   4  14
HETATM   14  C6  UNL     1       2.774  58.557  41.359  1.00  0.00     0.281 C
HETATM   15  N3  UNL     1       4.107  58.092  41.262  1.00  0.00    -0.056 NA
HETATM   16  O2  UNL     1       2.101  58.685  40.308  1.00  0.00    -0.269 OA
ENDBRANCH   4  14
TORSDOF 3
ENDMDL