MODEL 1
REMARK VINA RESULT: -5.188059282      0.000      0.000
REMARK  4 active torsions:
REMARK  status: ('A' for Active; 'I' for Inactive)
REMARK       I    between atoms: C1_4  and  N3_6
REMARK    1  A    between atoms: N3_6  and  C2_8
REMARK    2  A    between atoms: C2_8  and  C3_9
REMARK    3  A    between atoms: C3_9  and  O1_10
REMARK    4  A    between atoms: O1_10  and  C4_11
ROOT
HETATM    1  C3  UNL     1      -0.801  60.250  43.064  1.00  0.00     0.197 C
ENDROOT
BRANCH   1   2
HETATM    2  C2  UNL     1       0.289  59.311  43.529  1.00  0.00     0.149 C
BRANCH   2   3
HETATM    3  N3  UNL     1       0.858  59.717  44.785  1.00  0.00    -0.363 N
HETATM    4  C1  UNL     1       0.450  59.096  45.979  1.00  0.00     0.181 C
HETATM    5  N1  UNL     1       1.188  59.032  47.042  1.00  0.00    -0.374 N
HETATM    6  N2  UNL     1      -0.839  58.492  46.073  1.00  0.00    -0.064 NA
ATOM      7  H12 UNL     1       0.892  58.581  47.908  1.00  0.00     0.158 HD
ATOM      8  H11 UNL     1       2.110  59.464  46.974  1.00  0.00     0.158 HD
ATOM      9  H3  UNL     1       1.561  60.456  44.810  1.00  0.00     0.162 HD
ENDBRANCH   2   3
ENDBRANCH   1   2
BRANCH   1  10
HETATM   10  O1  UNL     1      -1.858  59.571  42.432  1.00  0.00    -0.333 OA
BRANCH  10  11
HETATM   11  C4  UNL     1      -2.760  58.900  43.247  1.00  0.00     0.158 A
HETATM   12  C5  UNL     1      -3.171  57.588  43.085  1.00  0.00     0.145 A
HETATM   13  N4  UNL     1      -4.058  57.289  44.079  1.00  0.00    -0.358 N
HETATM   14  C6  UNL     1      -4.195  58.385  44.838  1.00  0.00     0.182 A
ATOM     15  H4  UNL     1      -4.530  56.396  44.217  1.00  0.00     0.166 HD
HETATM   16  N5  UNL     1      -3.420  59.343  44.341  1.00  0.00    -0.332 N
ATOM     17  H5  UNL     1      -3.335  60.283  44.730  1.00  0.00     0.168 HD
ENDBRANCH  10  11
ENDBRANCH   1  10
TORSDOF 4
ENDMDL