MODEL 3
REMARK VINA RESULT: -7.643742561      0.739      1.052
REMARK  13 active torsions:
REMARK  status: ('A' for Active; 'I' for Inactive)
REMARK    1  A    between atoms: C5_5  and  S1_6
REMARK    2  A    between atoms: S1_6  and  N1_9
REMARK    3  A    between atoms: N1_9  and  C6_11
REMARK    4  A    between atoms: C6_11  and  C7_12
REMARK    5  A    between atoms: C7_12  and  C8_13
REMARK    6  A    between atoms: C8_13  and  C9_14
REMARK    7  A    between atoms: C9_14  and  C10_15
REMARK    8  A    between atoms: C10_15  and  C11_16
REMARK    9  A    between atoms: C11_16  and  C12_17
REMARK   10  A    between atoms: C12_17  and  C13_18
REMARK   11  A    between atoms: C13_18  and  C14_19
REMARK   12  A    between atoms: C21_28  and  N2_29
REMARK   13  A    between atoms: N2_29  and  C22_32
ROOT
HETATM    1  C1  UNL     1      28.876  30.871  12.924  1.00  0.00     0.016 C
HETATM    2  C2  UNL     1      29.630  30.784  11.589  1.00  0.00    -0.036 C
HETATM    3  C3  UNL     1      31.086  30.626  11.904  1.00  0.00     0.011 C
HETATM    4  C4  UNL     1      31.451  31.788  12.819  1.00  0.00     0.022 C
HETATM    5  C5  UNL     1      31.279  33.112  12.095  1.00  0.00     0.130 C
HETATM    6  C15 UNL     1      30.007  33.259  11.361  1.00  0.00     0.027 C
HETATM    7  C16 UNL     1      29.460  32.013  10.758  1.00  0.00    -0.005 C
HETATM    8  C17 UNL     1      27.985  32.277  10.422  1.00  0.00     0.006 C
HETATM    9  C18 UNL     1      27.434  31.074   9.709  1.00  0.00     0.005 C
HETATM   10  C19 UNL     1      27.663  29.809  10.457  1.00  0.00    -0.008 C
HETATM   11  C20 UNL     1      27.462  28.647   9.470  1.00  0.00     0.038 C
HETATM   12  C21 UNL     1      28.758  28.672   8.706  1.00  0.00     0.187 C
HETATM   13  C27 UNL     1      29.823  29.164   9.666  1.00  0.00     0.038 C
HETATM   14  C28 UNL     1      29.086  29.576  10.886  1.00  0.00     0.000 C
ENDROOT
BRANCH   5  15
HETATM   15  S1  UNL     1      31.720  34.426  13.147  1.00  0.00     0.234 S
HETATM   16  O1  UNL     1      30.608  34.667  14.180  1.00  0.00    -0.205 OA
HETATM   17  O2  UNL     1      31.725  35.711  12.331  1.00  0.00    -0.205 OA
BRANCH  15  18
HETATM   18  N1  UNL     1      33.163  34.339  13.984  1.00  0.00    -0.299 N
ATOM     19  H1  UNL     1      33.147  34.285  15.003  1.00  0.00     0.177 HD
BRANCH  18  20
HETATM   20  C6  UNL     1      34.391  34.339  13.318  1.00  0.00     0.073 C
BRANCH  20  21
HETATM   21  C7  UNL     1      34.799  32.937  12.914  1.00  0.00     0.045 C
BRANCH  21  22
HETATM   22  C8  UNL     1      35.410  32.800  11.568  1.00  0.00     0.005 C
BRANCH  22  23
HETATM   23  C9  UNL     1      35.396  31.462  10.940  1.00  0.00     0.000 C
BRANCH  23  24
HETATM   24  C10 UNL     1      36.798  31.081  10.419  1.00  0.00     0.000 C
BRANCH  24  25
HETATM   25  C11 UNL     1      36.917  31.179   8.936  1.00  0.00     0.001 C
BRANCH  25  26
HETATM   26  C12 UNL     1      36.206  29.989   8.326  1.00  0.00     0.010 C
BRANCH  26  27
HETATM   27  C13 UNL     1      36.736  28.662   8.797  1.00  0.00     0.113 C
BRANCH  27  28
HETATM   28  C14 UNL     1      35.643  27.736   9.174  1.00  0.00     0.172 C
HETATM   29  O3  UNL     1      35.817  26.481   8.984  1.00  0.00    -0.648 OA
HETATM   30  O4  UNL     1      34.457  28.142   9.716  1.00  0.00    -0.648 OA
ENDBRANCH  27  28
ENDBRANCH  26  27
ENDBRANCH  25  26
ENDBRANCH  24  25
ENDBRANCH  23  24
ENDBRANCH  22  23
ENDBRANCH  21  22
ENDBRANCH  20  21
ENDBRANCH  18  20
ENDBRANCH  15  18
ENDBRANCH   5  15
BRANCH  12  31
HETATM   31  N2  UNL     1      29.027  27.367   8.205  1.00  0.00    -0.065 N
ATOM     32  H22 UNL     1      29.936  27.038   8.528  1.00  0.00     0.278 HD
ATOM     33  H21 UNL     1      28.426  26.678   8.655  1.00  0.00     0.278 HD
BRANCH  31  34
HETATM   34  C22 UNL     1      28.933  27.267   6.796  1.00  0.00     0.211 C
HETATM   35  C23 UNL     1      29.280  28.570   6.088  1.00  0.00     0.036 C
HETATM   36  C24 UNL     1      30.793  28.655   6.033  1.00  0.00     0.029 C
HETATM   37  C25 UNL     1      31.387  27.574   5.166  1.00  0.00     0.232 C
HETATM   38  N3  UNL     1      30.334  26.585   4.908  1.00  0.00    -0.073 N
HETATM   39  C26 UNL     1      29.720  26.151   6.166  1.00  0.00     0.265 C
ATOM     40  H32 UNL     1      29.639  26.933   4.246  1.00  0.00     0.277 HD
ATOM     41  H31 UNL     1      30.679  25.796   4.362  1.00  0.00     0.277 HD
ENDBRANCH  31  34
ENDBRANCH  12  31
TORSDOF 13
ENDMDL