MODEL 1
REMARK VINA RESULT: -7.506472369      0.000      0.000
REMARK  13 active torsions:
REMARK  status: ('A' for Active; 'I' for Inactive)
REMARK    1  A    between atoms: C2_2  and  N1_3
REMARK    2  A    between atoms: N1_3  and  C3_4
REMARK       I    between atoms: N1_3  and  C5_6
REMARK       I    between atoms: C5_6  and  N2_8
REMARK    3  A    between atoms: N2_8  and  C6_10
REMARK    4  A    between atoms: C7_11  and  C8_12
REMARK    5  A    between atoms: C8_12  and  C9_13
REMARK    6  A    between atoms: C9_13  and  C10_14
REMARK    7  A    between atoms: C10_14  and  C11_15
REMARK    8  A    between atoms: C11_15  and  C12_16
REMARK    9  A    between atoms: C12_16  and  N3_17
REMARK       I    between atoms: N3_17  and  C13_19
REMARK   10  A    between atoms: C13_19  and  C14_21
REMARK   11  A    between atoms: C27_35  and  O3_36
REMARK   12  A    between atoms: C28_38  and  C30_40
REMARK   13  A    between atoms: C30_40  and  O4_41
ROOT
HETATM    1  C14 UNL     1      32.311  28.815   7.313  1.00  0.00     0.093 C
HETATM    2  N4  UNL     1      33.089  28.728   6.134  1.00  0.00    -0.351 N
HETATM    3  C15 UNL     1      32.990  29.960   5.381  1.00  0.00     0.129 C
HETATM    4  C16 UNL     1      33.535  31.194   5.931  1.00  0.00     0.020 C
HETATM    5  C17 UNL     1      34.993  31.450   5.918  1.00  0.00     0.002 C
HETATM    6  C18 UNL     1      35.908  30.518   6.609  1.00  0.00     0.001 C
HETATM    7  C19 UNL     1      35.400  29.679   7.719  1.00  0.00     0.018 C
HETATM    8  C20 UNL     1      35.041  28.243   7.409  1.00  0.00     0.026 C
HETATM    9  C21 UNL     1      36.326  27.414   7.461  1.00  0.00     0.018 C
HETATM   10  C22 UNL     1      36.967  27.115   6.189  1.00  0.00     0.002 C
HETATM   11  C23 UNL     1      36.149  26.916   4.985  1.00  0.00     0.010 C
HETATM   12  C24 UNL     1      34.632  26.956   5.259  1.00  0.00     0.028 C
HETATM   13  C25 UNL     1      34.292  25.607   5.691  1.00  0.00     0.016 C
HETATM   14  C26 UNL     1      34.353  28.151   6.070  1.00  0.00     0.004 C
HETATM   15  C27 UNL     1      34.182  27.695   8.513  1.00  0.00     0.148 C
HETATM   16  C28 UNL     1      32.745  28.172   8.556  1.00  0.00     0.052 C
HETATM   17  C29 UNL     1      32.694  29.175   9.719  1.00  0.00     0.027 C
ENDROOT
BRANCH   1  18
HETATM   18  C13 UNL     1      30.886  28.626   6.914  1.00  0.00     0.265 C
HETATM   19  N3  UNL     1      29.836  29.404   7.464  1.00  0.00    -0.356 N
ATOM     20  H3  UNL     1      30.089  30.116   8.149  1.00  0.00     0.162 HD
HETATM   21  O2  UNL     1      30.550  27.761   6.059  1.00  0.00    -0.266 OA
BRANCH  19  22
HETATM   22  C12 UNL     1      28.455  29.271   7.136  1.00  0.00     0.123 C
BRANCH  22  23
HETATM   23  C11 UNL     1      27.502  29.310   8.281  1.00  0.00     0.020 C
BRANCH  23  24
HETATM   24  C10 UNL     1      28.073  29.949   9.497  1.00  0.00     0.002 C
BRANCH  24  25
HETATM   25  C9  UNL     1      27.539  31.342   9.791  1.00  0.00     0.004 C
BRANCH  25  26
HETATM   26  C8  UNL     1      28.296  32.033  10.851  1.00  0.00     0.028 C
BRANCH  26  27
HETATM   27  C7  UNL     1      28.567  31.387  12.112  1.00  0.00    -0.009 C
HETATM   28  C6  UNL     1      29.823  31.228  12.776  1.00  0.00     0.088 C
BRANCH  28  29
HETATM   29  N2  UNL     1      30.766  32.188  13.124  1.00  0.00    -0.319 N
HETATM   30  C5  UNL     1      32.173  32.194  13.062  1.00  0.00     0.322 C
HETATM   31  N1  UNL     1      32.984  33.293  13.434  1.00  0.00    -0.335 N
HETATM   32  O1  UNL     1      32.779  31.173  12.654  1.00  0.00    -0.247 OA
ATOM     33  H2  UNL     1      30.364  33.049  13.494  1.00  0.00     0.169 HD
BRANCH  31  34
HETATM   34  C2  UNL     1      34.438  33.208  13.357  1.00  0.00     0.123 C
HETATM   35  C1  UNL     1      35.033  33.902  14.549  1.00  0.00     0.026 C
ENDBRANCH  31  34
BRANCH  31  36
HETATM   36  C3  UNL     1      32.366  34.513  13.879  1.00  0.00     0.123 C
HETATM   37  C4  UNL     1      32.077  35.481  12.763  1.00  0.00     0.026 C
ENDBRANCH  31  36
ENDBRANCH  28  29
ENDBRANCH  26  27
ENDBRANCH  25  26
ENDBRANCH  24  25
ENDBRANCH  23  24
ENDBRANCH  22  23
ENDBRANCH  19  22
ENDBRANCH   1  18
BRANCH  16  38
HETATM   38  C30 UNL     1      31.942  27.003   9.077  1.00  0.00     0.182 C
BRANCH  38  39
HETATM   39  O4  UNL     1      32.123  26.602  10.349  1.00  0.00    -0.400 OA
ATOM     40  H4  UNL     1      32.820  25.987  10.544  1.00  0.00     0.209 HD
ENDBRANCH  38  39
ENDBRANCH  16  38
BRANCH  15  41
HETATM   41  O3  UNL     1      34.856  27.765   9.706  1.00  0.00    -0.393 OA
ATOM     42  H3  UNL     1      35.791  27.804   9.546  1.00  0.00     0.210 HD
ENDBRANCH  15  41
TORSDOF 13
ENDMDL