MODEL 1
REMARK VINA RESULT: -7.584299800      0.000      0.000
REMARK  15 active torsions:
REMARK  status: ('A' for Active; 'I' for Inactive)
REMARK    1  A    between atoms: C2_2  and  C3_3
REMARK    2  A    between atoms: C3_3  and  C4_4
REMARK    3  A    between atoms: C4_4  and  C5_5
REMARK    4  A    between atoms: C5_5  and  C6_6
REMARK    5  A    between atoms: C6_6  and  C7_7
REMARK    6  A    between atoms: C7_7  and  C9_9
REMARK    7  A    between atoms: C13_17  and  C14_18
REMARK    8  A    between atoms: C14_18  and  C15_19
REMARK    9  A    between atoms: C15_19  and  C16_20
REMARK   10  A    between atoms: C19_26  and  C20_27
REMARK   11  A    between atoms: C20_27  and  C22_29
REMARK   12  A    between atoms: C24_31  and  O4_32
REMARK   13  A    between atoms: C25_36  and  C26_37
REMARK   14  A    between atoms: C26_37  and  C27_38
REMARK   15  A    between atoms: C30_41  and  O5_42
ROOT
HETATM    1  C9  UNL     1      31.053  27.988   9.099  1.00  0.00     0.157 C
HETATM    2  O1  UNL     1      30.541  28.913   9.832  1.00  0.00    -0.369 OA
HETATM    3  C10 UNL     1      29.705  29.899   9.784  1.00  0.00     0.209 C
HETATM    4  C11 UNL     1      28.269  29.615   9.376  1.00  0.00     0.050 C
HETATM    5  C12 UNL     1      29.599  30.448  11.196  1.00  0.00     0.247 C
HETATM    6  O2  UNL     1      28.828  29.724  11.924  1.00  0.00    -0.271 OA
HETATM    7  N1  UNL     1      30.194  31.558  11.754  1.00  0.00    -0.346 N
ATOM      8  H1  UNL     1      29.679  31.951  12.542  1.00  0.00     0.163 HD
HETATM    9  C13 UNL     1      31.413  32.272  11.432  1.00  0.00     0.176 C
HETATM   10  C18 UNL     1      32.538  31.977  12.349  1.00  0.00     0.241 C
HETATM   11  O3  UNL     1      32.150  31.707  13.547  1.00  0.00    -0.271 OA
HETATM   12  N2  UNL     1      33.902  31.948  12.123  1.00  0.00    -0.347 N
ATOM     13  H2  UNL     1      34.490  32.440  12.796  1.00  0.00     0.163 HD
HETATM   14  C19 UNL     1      34.608  31.261  10.980  1.00  0.00     0.162 C
HETATM   15  C24 UNL     1      33.688  30.304  10.365  1.00  0.00     0.135 C
HETATM   16  N3  UNL     1      33.223  29.893   9.158  1.00  0.00    -0.365 N
ATOM     17  H3  UNL     1      32.576  30.598   8.804  1.00  0.00     0.161 HD
HETATM   18  C25 UNL     1      33.307  28.834   8.201  1.00  0.00     0.115 C
HETATM   19  C30 UNL     1      31.894  28.292   7.885  1.00  0.00     0.170 C
ENDROOT
BRANCH   1  20
HETATM   20  C7  UNL     1      30.132  26.805   8.763  1.00  0.00     0.013 C
HETATM   21  C8  UNL     1      30.843  25.682   8.059  1.00  0.00     0.012 C
BRANCH  20  22
HETATM   22  C6  UNL     1      29.614  26.254  10.072  1.00  0.00     0.007 C
BRANCH  22  23
HETATM   23  C5  UNL     1      30.551  25.369  10.811  1.00  0.00     0.000 C
BRANCH  23  24
HETATM   24  C4  UNL     1      29.856  24.334  11.651  1.00  0.00     0.000 C
BRANCH  24  25
HETATM   25  C3  UNL     1      29.462  24.814  13.023  1.00  0.00    -0.000 C
BRANCH  25  26
HETATM   26  C2  UNL     1      28.865  23.699  13.812  1.00  0.00    -0.005 C
HETATM   27  C1  UNL     1      28.069  24.343  14.944  1.00  0.00     0.005 C
ENDBRANCH  25  26
ENDBRANCH  24  25
ENDBRANCH  23  24
ENDBRANCH  22  23
ENDBRANCH  20  22
ENDBRANCH   1  20
BRANCH  19  28
HETATM   28  O5  UNL     1      31.296  29.286   7.103  1.00  0.00    -0.391 OA
ATOM     29  H5  UNL     1      31.935  29.692   6.528  1.00  0.00     0.210 HD
ENDBRANCH  19  28
BRANCH  18  30
HETATM   30  C26 UNL     1      33.812  29.350   6.842  1.00  0.00     0.031 C
BRANCH  30  31
HETATM   31  C27 UNL     1      35.119  28.713   6.436  1.00  0.00    -0.021 C
HETATM   32  C28 UNL     1      36.069  29.799   5.954  1.00  0.00     0.009 C
HETATM   33  C29 UNL     1      35.796  27.993   7.578  1.00  0.00     0.009 C
ENDBRANCH  30  31
ENDBRANCH  18  30
BRANCH  15  34
HETATM   34  O4  UNL     1      33.182  29.673  11.421  1.00  0.00    -0.348 OA
ATOM     35  H4  UNL     1      32.335  30.092  11.523  1.00  0.00     0.219 HD
ENDBRANCH  15  34
BRANCH   9  36
HETATM   36  C14 UNL     1      31.056  33.773  11.507  1.00  0.00     0.035 C
BRANCH  36  37
HETATM   37  C15 UNL     1      31.232  34.333  12.872  1.00  0.00     0.002 C
BRANCH  37  38
HETATM   38  C16 UNL     1      32.059  35.593  12.749  1.00  0.00    -0.004 C
HETATM   39  C17 UNL     1      33.404  35.439  13.450  1.00  0.00     0.005 C
ENDBRANCH  37  38
ENDBRANCH  36  37
ENDBRANCH   9  36
BRANCH  14  40
HETATM   40  C20 UNL     1      35.349  32.254  10.201  1.00  0.00     0.012 C
HETATM   41  C21 UNL     1      36.106  33.178  11.166  1.00  0.00     0.012 C
BRANCH  40  42
HETATM   42  C22 UNL     1      36.234  31.786   9.110  1.00  0.00     0.002 C
HETATM   43  C23 UNL     1      37.244  30.768   9.532  1.00  0.00     0.005 C
ENDBRANCH  40  42
ENDBRANCH  14  40
TORSDOF 15
ENDMDL