MODEL 1
REMARK VINA RESULT: -7.762998837      0.000      0.000
REMARK  14 active torsions:
REMARK  status: ('A' for Active; 'I' for Inactive)
REMARK    1  A    between atoms: C2_2  and  C3_3
REMARK    2  A    between atoms: C3_3  and  C4_4
REMARK    3  A    between atoms: C4_4  and  C5_5
REMARK    4  A    between atoms: C5_5  and  C6_6
REMARK    5  A    between atoms: C6_6  and  C7_7
REMARK    6  A    between atoms: C7_7  and  C8_8
REMARK    7  A    between atoms: C8_8  and  C9_9
REMARK    8  A    between atoms: C11_14  and  C12_15
REMARK    9  A    between atoms: C12_15  and  C14_17
REMARK   10  A    between atoms: C17_23  and  C18_24
REMARK   11  A    between atoms: C18_24  and  C20_26
REMARK   12  A    between atoms: C25_33  and  C26_34
REMARK   13  A    between atoms: C26_34  and  C28_36
REMARK   14  A    between atoms: C30_40  and  O4_41
ROOT
HETATM    1  C9  UNL     1      33.275  31.172  11.037  1.00  0.00     0.159 C
HETATM    2  N1  UNL     1      33.093  31.294   9.627  1.00  0.00    -0.347 N
ATOM      3  H1  UNL     1      32.323  31.881   9.305  1.00  0.00     0.163 HD
HETATM    4  C10 UNL     1      33.884  30.676   8.642  1.00  0.00     0.241 C
HETATM    5  O1  UNL     1      34.319  31.431   7.695  1.00  0.00    -0.271 OA
HETATM    6  C11 UNL     1      34.291  29.269   8.532  1.00  0.00     0.180 C
HETATM    7  N2  UNL     1      33.930  28.717   7.223  1.00  0.00    -0.346 N
ATOM      8  H2  UNL     1      34.106  29.322   6.421  1.00  0.00     0.163 HD
HETATM    9  C16 UNL     1      33.376  27.466   6.933  1.00  0.00     0.240 C
HETATM   10  O2  UNL     1      34.030  26.611   6.210  1.00  0.00    -0.272 OA
HETATM   11  C17 UNL     1      32.056  26.963   7.377  1.00  0.00     0.202 C
HETATM   12  N3  UNL     1      31.652  27.483   8.666  1.00  0.00    -0.086 NA
HETATM   13  O3  UNL     1      30.310  27.629   8.600  1.00  0.00    -0.286 OA
HETATM   14  C22 UNL     1      29.619  27.302   9.731  1.00  0.00     0.196 C
HETATM   15  C23 UNL     1      29.167  28.565  10.498  1.00  0.00     0.030 C
HETATM   16  C24 UNL     1      30.101  29.676  10.220  1.00  0.00     0.028 C
HETATM   17  C25 UNL     1      29.805  31.050  10.579  1.00  0.00     0.087 C
HETATM   18  N4  UNL     1      30.747  31.601  11.526  1.00  0.00    -0.368 N
ATOM     19  H4  UNL     1      30.404  32.416  12.035  1.00  0.00     0.161 HD
HETATM   20  C30 UNL     1      32.045  31.213  11.865  1.00  0.00     0.135 C
ENDROOT
BRANCH   1  21
HETATM   21  C8  UNL     1      34.257  32.253  11.429  1.00  0.00     0.033 C
BRANCH  21  22
HETATM   22  C7  UNL     1      34.189  32.740  12.823  1.00  0.00     0.002 C
BRANCH  22  23
HETATM   23  C6  UNL     1      34.397  34.266  12.764  1.00  0.00     0.000 C
BRANCH  23  24
HETATM   24  C5  UNL     1      35.852  34.480  12.330  1.00  0.00     0.000 C
BRANCH  24  25
HETATM   25  C4  UNL     1      36.593  35.441  13.194  1.00  0.00     0.000 C
BRANCH  25  26
HETATM   26  C3  UNL     1      36.098  35.665  14.559  1.00  0.00    -0.000 C
BRANCH  26  27
HETATM   27  C2  UNL     1      36.633  34.859  15.683  1.00  0.00    -0.005 C
HETATM   28  C1  UNL     1      35.962  33.607  16.068  1.00  0.00     0.005 C
ENDBRANCH  26  27
ENDBRANCH  25  26
ENDBRANCH  24  25
ENDBRANCH  23  24
ENDBRANCH  22  23
ENDBRANCH  21  22
ENDBRANCH   1  21
BRANCH  20  29
HETATM   29  O4  UNL     1      32.308  30.812  13.078  1.00  0.00    -0.348 OA
ATOM     30  H4  UNL     1      32.542  29.891  13.074  1.00  0.00     0.219 HD
ENDBRANCH  20  29
BRANCH   6  31
HETATM   31  C12 UNL     1      35.760  29.000   8.652  1.00  0.00     0.013 C
HETATM   32  C13 UNL     1      36.190  27.587   8.737  1.00  0.00     0.012 C
BRANCH  31  33
HETATM   33  C14 UNL     1      36.465  29.781   9.720  1.00  0.00     0.002 C
HETATM   34  C15 UNL     1      37.357  30.853   9.080  1.00  0.00     0.005 C
ENDBRANCH  31  33
ENDBRANCH   6  31
BRANCH  17  35
HETATM   35  C26 UNL     1      28.400  31.393  11.012  1.00  0.00     0.004 C
HETATM   36  C27 UNL     1      27.647  32.290  10.092  1.00  0.00     0.012 C
BRANCH  35  37
HETATM   37  C28 UNL     1      28.273  31.710  12.474  1.00  0.00     0.002 C
HETATM   38  C29 UNL     1      27.728  30.501  13.240  1.00  0.00     0.005 C
ENDBRANCH  35  37
ENDBRANCH  17  35
BRANCH  11  39
HETATM   39  C18 UNL     1      30.992  27.185   6.322  1.00  0.00     0.012 C
HETATM   40  C19 UNL     1      30.762  25.861   5.591  1.00  0.00     0.012 C
BRANCH  39  41
HETATM   41  C20 UNL     1      31.372  28.189   5.294  1.00  0.00     0.002 C
HETATM   42  C21 UNL     1      30.423  29.377   5.439  1.00  0.00     0.005 C
ENDBRANCH  39  41
ENDBRANCH  11  39
TORSDOF 14
ENDMDL