MODEL 2
REMARK VINA RESULT: -7.304626433      1.204      2.245
REMARK  16 active torsions:
REMARK  status: ('A' for Active; 'I' for Inactive)
REMARK    1  A    between atoms: C2_2  and  C3_3
REMARK    2  A    between atoms: C3_3  and  C4_4
REMARK    3  A    between atoms: C4_4  and  C5_5
REMARK    4  A    between atoms: C5_5  and  C6_6
REMARK    5  A    between atoms: C6_6  and  N1_7
REMARK    6  A    between atoms: N1_7  and  C7_8
REMARK       I    between atoms: N1_7  and  C12_13
REMARK    7  A    between atoms: C7_8  and  C8_9
REMARK    8  A    between atoms: C8_9  and  C9_10
REMARK    9  A    between atoms: C9_10  and  C10_11
REMARK   10  A    between atoms: C12_13  and  C13_15
REMARK   11  A    between atoms: C13_15  and  C14_16
REMARK   12  A    between atoms: C14_16  and  N2_17
REMARK   13  A    between atoms: N2_17  and  C15_20
REMARK   14  A    between atoms: C23_28  and  O2_29
REMARK   15  A    between atoms: C25_32  and  O3_33
REMARK   16  A    between atoms: C27_36  and  O4_37
ROOT
HETATM    1  C15 UNL     1      33.169  34.778  12.888  1.00  0.00     0.190 C
HETATM    2  C16 UNL     1      34.191  35.535  13.681  1.00  0.00     0.034 C
HETATM    3  C17 UNL     1      33.593  36.899  14.013  1.00  0.00     0.007 C
HETATM    4  C18 UNL     1      32.456  37.014  13.042  1.00  0.00    -0.004 C
HETATM    5  C19 UNL     1      31.920  35.626  12.986  1.00  0.00     0.020 C
HETATM    6  C20 UNL     1      31.211  35.294  14.257  1.00  0.00     0.007 C
HETATM    7  C21 UNL     1      30.110  36.272  14.549  1.00  0.00     0.008 C
HETATM    8  C22 UNL     1      30.120  37.475  13.613  1.00  0.00     0.019 C
HETATM    9  C23 UNL     1      29.014  38.379  13.958  1.00  0.00     0.130 C
HETATM   10  C24 UNL     1      29.313  39.759  14.359  1.00  0.00     0.054 C
HETATM   11  C25 UNL     1      27.978  40.399  14.783  1.00  0.00     0.128 C
HETATM   12  C26 UNL     1      27.897  40.189  16.282  1.00  0.00     0.064 C
HETATM   13  C27 UNL     1      29.268  39.898  16.779  1.00  0.00     0.129 C
HETATM   14  C28 UNL     1      30.136  40.008  15.557  1.00  0.00    -0.010 C
HETATM   15  C29 UNL     1      30.537  41.496  15.472  1.00  0.00     0.018 C
HETATM   16  C30 UNL     1      31.409  39.224  15.649  1.00  0.00     0.012 C
HETATM   17  C31 UNL     1      31.961  39.115  14.264  1.00  0.00     0.006 C
HETATM   18  C32 UNL     1      31.450  38.085  13.360  1.00  0.00    -0.004 C
ENDROOT
BRANCH   1  19
HETATM   19  N2  UNL     1      33.000  33.459  13.436  1.00  0.00    -0.070 N
ATOM     20  H22 UNL     1      32.082  33.065  13.225  1.00  0.00     0.277 HD
ATOM     21  H21 UNL     1      32.921  33.468  14.454  1.00  0.00     0.277 HD
BRANCH  19  22
HETATM   22  C14 UNL     1      34.076  32.616  12.978  1.00  0.00     0.242 C
BRANCH  22  23
HETATM   23  C13 UNL     1      34.026  32.343  11.479  1.00  0.00     0.130 C
BRANCH  23  24
HETATM   24  C12 UNL     1      33.263  31.129  11.177  1.00  0.00     0.225 C
HETATM   25  N1  UNL     1      31.862  31.105  10.820  1.00  0.00    -0.328 N
HETATM   26  O1  UNL     1      33.854  30.020  11.225  1.00  0.00    -0.273 OA
BRANCH  25  27
HETATM   27  C6  UNL     1      31.294  29.850  10.491  1.00  0.00     0.131 C
BRANCH  27  28
HETATM   28  C5  UNL     1      31.339  29.373   9.092  1.00  0.00     0.020 C
BRANCH  28  29
HETATM   29  C4  UNL     1      29.942  28.843   8.755  1.00  0.00     0.002 C
BRANCH  29  30
HETATM   30  C3  UNL     1      29.184  28.341   9.927  1.00  0.00    -0.000 C
BRANCH  30  31
HETATM   31  C2  UNL     1      27.691  28.465   9.825  1.00  0.00    -0.005 C
HETATM   32  C1  UNL     1      27.289  29.618   8.930  1.00  0.00     0.005 C
ENDBRANCH  30  31
ENDBRANCH  29  30
ENDBRANCH  28  29
ENDBRANCH  27  28
ENDBRANCH  25  27
BRANCH  25  33
HETATM   33  C7  UNL     1      31.152  32.341  10.731  1.00  0.00     0.090 C
BRANCH  33  34
HETATM   34  C8  UNL     1      29.995  32.625  11.559  1.00  0.00    -0.009 C
BRANCH  34  35
HETATM   35  C9  UNL     1      28.630  32.161  11.302  1.00  0.00     0.028 C
BRANCH  35  36
HETATM   36  C10 UNL     1      27.965  31.334  12.336  1.00  0.00    -0.001 C
HETATM   37  C11 UNL     1      28.680  30.250  13.025  1.00  0.00     0.005 C
ENDBRANCH  35  36
ENDBRANCH  34  35
ENDBRANCH  33  34
ENDBRANCH  25  33
ENDBRANCH  23  24
ENDBRANCH  22  23
ENDBRANCH  19  22
ENDBRANCH   1  19
BRANCH   9  38
HETATM   38  O2  UNL     1      28.215  37.804  14.980  1.00  0.00    -0.395 OA
ATOM     39  H2  UNL     1      27.507  38.393  15.211  1.00  0.00     0.210 HD
ENDBRANCH   9  38
BRANCH  11  40
HETATM   40  O3  UNL     1      27.898  41.719  14.411  1.00  0.00    -0.395 OA
ATOM     41  H3  UNL     1      27.291  42.206  14.955  1.00  0.00     0.210 HD
ENDBRANCH  11  40
BRANCH  13  42
HETATM   42  O4  UNL     1      29.410  38.701  17.450  1.00  0.00    -0.395 OA
ATOM     43  H4  UNL     1      30.241  38.581  17.894  1.00  0.00     0.210 HD
ENDBRANCH  13  42
TORSDOF 16
ENDMDL