MODEL 5
REMARK VINA RESULT: -8.278193008      2.935      5.997
REMARK  14 active torsions:
REMARK  status: ('A' for Active; 'I' for Inactive)
REMARK       I    between atoms: C2_2  and  N1_4
REMARK    1  A    between atoms: N1_4  and  C3_6
REMARK    2  A    between atoms: C3_6  and  C4_7
REMARK    3  A    between atoms: C4_7  and  C5_8
REMARK    4  A    between atoms: C5_8  and  C6_9
REMARK    5  A    between atoms: C6_9  and  C7_10
REMARK    6  A    between atoms: C7_10  and  N2_11
REMARK    7  A    between atoms: C7_10  and  C13_20
REMARK       I    between atoms: N2_11  and  C8_13
REMARK    8  A    between atoms: C8_13  and  C9_15
REMARK       I    between atoms: C13_20  and  N3_22
REMARK    9  A    between atoms: N3_22  and  C14_24
REMARK   10  A    between atoms: C14_24  and  C15_25
REMARK   11  A    between atoms: C14_24  and  C22_32
REMARK   12  A    between atoms: C15_25  and  C16_26
REMARK   13  A    between atoms: C22_32  and  C23_33
REMARK   14  A    between atoms: C30_40  and  O5_41
ROOT
HETATM    1  C13 UNL     1      31.891  30.805  10.429  1.00  0.00     0.264 C
HETATM    2  O4  UNL     1      31.859  32.028  10.086  1.00  0.00    -0.266 OA
HETATM    3  N3  UNL     1      31.327  30.477  11.684  1.00  0.00    -0.351 N
ATOM      4  H3  UNL     1      31.339  29.512  12.013  1.00  0.00     0.163 HD
ENDROOT
BRANCH   1   5
HETATM    5  C7  UNL     1      32.497  29.872   9.515  1.00  0.00     0.080 C
BRANCH   5   6
HETATM    6  C6  UNL     1      31.954  28.474   9.510  1.00  0.00     0.063 C
BRANCH   6   7
HETATM    7  C5  UNL     1      30.561  28.482   8.927  1.00  0.00     0.008 C
BRANCH   7   8
HETATM    8  C4  UNL     1      29.912  27.103   8.990  1.00  0.00     0.020 C
BRANCH   8   9
HETATM    9  C3  UNL     1      30.679  26.259   9.955  1.00  0.00     0.122 C
BRANCH   9  10
HETATM   10  N1  UNL     1      29.966  26.081  11.192  1.00  0.00    -0.361 N
HETATM   11  C2  UNL     1      29.949  24.800  11.848  1.00  0.00     0.213 C
HETATM   12  C1  UNL     1      29.222  24.594  13.126  1.00  0.00     0.117 C
HETATM   13  O1  UNL     1      30.568  23.867  11.302  1.00  0.00    -0.274 OA
ATOM     14  H1  UNL     1      29.469  26.869  11.607  1.00  0.00     0.162 HD
ENDBRANCH   9  10
ENDBRANCH   8   9
ENDBRANCH   7   8
ENDBRANCH   6   7
ENDBRANCH   5   6
BRANCH   5  15
HETATM   15  N2  UNL     1      33.906  30.011   9.339  1.00  0.00    -0.324 N
HETATM   16  C8  UNL     1      34.645  30.535   8.280  1.00  0.00     0.251 C
HETATM   17  O2  UNL     1      34.135  30.981   7.240  1.00  0.00    -0.270 OA
ATOM     18  H2  UNL     1      34.466  29.670  10.120  1.00  0.00     0.169 HD
BRANCH  16  19
HETATM   19  C9  UNL     1      36.149  30.578   8.366  1.00  0.00     0.213 C
HETATM   20  C10 UNL     1      36.584  32.023   8.330  1.00  0.00     0.044 C
HETATM   21  C11 UNL     1      36.733  32.322   9.796  1.00  0.00     0.029 C
HETATM   22  C12 UNL     1      36.949  30.968  10.433  1.00  0.00     0.168 C
HETATM   23  O3  UNL     1      36.616  30.003   9.516  1.00  0.00    -0.376 OA
ENDBRANCH  16  19
ENDBRANCH   5  15
ENDBRANCH   1   5
BRANCH   3  24
HETATM   24  C14 UNL     1      30.724  31.534  12.511  1.00  0.00     0.085 C
BRANCH  24  25
HETATM   25  C15 UNL     1      29.324  31.397  12.811  1.00  0.00     0.029 C
BRANCH  25  26
HETATM   26  C16 UNL     1      28.278  30.910  11.930  1.00  0.00    -0.013 C
HETATM   27  C17 UNL     1      28.207  29.509  11.487  1.00  0.00     0.005 C
HETATM   28  C18 UNL     1      27.044  29.369  10.488  1.00  0.00     0.000 C
HETATM   29  C19 UNL     1      27.145  30.248   9.304  1.00  0.00     0.000 C
HETATM   30  C20 UNL     1      27.223  31.697   9.788  1.00  0.00     0.000 C
HETATM   31  C21 UNL     1      28.437  31.773  10.641  1.00  0.00     0.005 C
ENDBRANCH  25  26
ENDBRANCH  24  25
BRANCH  24  32
HETATM   32  C22 UNL     1      31.669  31.688  13.683  1.00  0.00     0.032 C
BRANCH  32  33
HETATM   33  C23 UNL     1      31.663  33.023  14.341  1.00  0.00     0.016 C
HETATM   34  C24 UNL     1      33.061  33.485  14.693  1.00  0.00     0.007 C
HETATM   35  C25 UNL     1      34.109  33.378  13.679  1.00  0.00     0.000 C
HETATM   36  C26 UNL     1      34.449  34.629  12.930  1.00  0.00     0.000 C
HETATM   37  C27 UNL     1      33.812  35.879  13.415  1.00  0.00     0.000 C
HETATM   38  C28 UNL     1      32.364  36.064  13.104  1.00  0.00     0.002 C
HETATM   39  C29 UNL     1      31.661  34.861  12.583  1.00  0.00     0.032 C
HETATM   40  C30 UNL     1      30.895  34.097  13.616  1.00  0.00     0.122 C
BRANCH  40  41
HETATM   41  O5  UNL     1      30.382  35.039  14.541  1.00  0.00    -0.395 OA
ATOM     42  H5  UNL     1      30.062  34.596  15.318  1.00  0.00     0.210 HD
ENDBRANCH  40  41
ENDBRANCH  32  33
ENDBRANCH  24  32
ENDBRANCH   3  24
TORSDOF 14
ENDMDL