MODEL 2
REMARK VINA RESULT: -7.748415074      2.365      7.461
REMARK  15 active torsions:
REMARK  status: ('A' for Active; 'I' for Inactive)
REMARK    1  A    between atoms: C2_2  and  C3_3
REMARK    2  A    between atoms: C2_2  and  C15_20
REMARK    3  A    between atoms: C3_3  and  C4_4
REMARK    4  A    between atoms: C4_4  and  C5_5
REMARK    5  A    between atoms: C5_5  and  C6_6
REMARK    6  A    between atoms: C6_6  and  C7_7
REMARK    7  A    between atoms: C6_6  and  C8_10
REMARK    8  A    between atoms: C7_7  and  O1_8
REMARK    9  A    between atoms: C8_10  and  C9_11
REMARK   10  A    between atoms: C9_11  and  C10_12
REMARK   11  A    between atoms: C18_23  and  C19_24
REMARK   12  A    between atoms: C19_24  and  C21_26
REMARK   13  A    between atoms: C21_26  and  C22_27
REMARK   14  A    between atoms: C22_27  and  C23_28
REMARK   15  A    between atoms: C31_41  and  N4_42
ROOT
HETATM    1  C15 UNL     1      27.322  29.649  10.670  1.00  0.00     0.014 C
HETATM    2  C16 UNL     1      27.154  30.346   9.371  1.00  0.00     0.009 C
HETATM    3  C17 UNL     1      28.211  29.735   8.406  1.00  0.00     0.005 C
HETATM    4  C18 UNL     1      29.037  28.905   9.285  1.00  0.00    -0.010 C
HETATM    5  C32 UNL     1      28.016  28.333  10.270  1.00  0.00     0.014 C
ENDROOT
BRANCH   4   6
HETATM    6  C19 UNL     1      30.089  28.022   8.852  1.00  0.00    -0.014 C
HETATM    7  C20 UNL     1      29.936  26.706   9.658  1.00  0.00     0.010 C
BRANCH   6   8
HETATM    8  C21 UNL     1      30.463  27.759   7.459  1.00  0.00     0.005 C
BRANCH   8   9
HETATM    9  C22 UNL     1      31.048  28.868   6.669  1.00  0.00     0.011 C
BRANCH   9  10
HETATM   10  C23 UNL     1      32.496  28.800   6.367  1.00  0.00     0.033 C
HETATM   11  C24 UNL     1      32.983  27.391   5.957  1.00  0.00     0.011 C
HETATM   12  C25 UNL     1      34.044  26.869   6.876  1.00  0.00     0.017 C
HETATM   13  C26 UNL     1      35.158  27.738   7.297  1.00  0.00     0.114 C
HETATM   14  C27 UNL     1      35.306  27.883   8.803  1.00  0.00     0.225 C
HETATM   15  C31 UNL     1      34.886  29.197   6.804  1.00  0.00     0.241 C
HETATM   16  O3  UNL     1      35.710  26.817   9.348  1.00  0.00    -0.273 OA
HETATM   17  N2  UNL     1      35.077  28.975   9.671  1.00  0.00    -0.340 N
HETATM   18  C28 UNL     1      34.173  30.116   9.482  1.00  0.00     0.179 C
ATOM     19  H2  UNL     1      35.609  28.969  10.541  1.00  0.00     0.164 HD
HETATM   20  C29 UNL     1      33.501  30.588  10.701  1.00  0.00     0.055 C
HETATM   21  N3  UNL     1      33.145  29.654   8.496  1.00  0.00    -0.373 N
HETATM   22  C30 UNL     1      33.452  29.280   7.367  1.00  0.00     0.019 C
ATOM     23  H3  UNL     1      32.163  29.649   8.770  1.00  0.00     0.161 HD
BRANCH  15  24
HETATM   24  N4  UNL     1      34.944  29.277   5.404  1.00  0.00    -0.069 N
ATOM     25  H43 UNL     1      35.860  29.004   5.051  1.00  0.00     0.275 HD
ATOM     26  H42 UNL     1      34.383  28.548   4.963  1.00  0.00     0.275 HD
ATOM     27  H41 UNL     1      34.677  30.205   5.078  1.00  0.00     0.275 HD
ENDBRANCH  15  24
ENDBRANCH   9  10
ENDBRANCH   8   9
ENDBRANCH   6   8
ENDBRANCH   4   6
BRANCH   1  28
HETATM   28  C2  UNL     1      28.178  30.440  11.621  1.00  0.00    -0.085 C
HETATM   29  C1  UNL     1      28.560  30.020  12.813  1.00  0.00     0.014 C
BRANCH  28  30
HETATM   30  C3  UNL     1      28.616  31.790  11.165  1.00  0.00     0.034 C
BRANCH  30  31
HETATM   31  C4  UNL     1      30.074  32.001  11.155  1.00  0.00     0.005 C
BRANCH  31  32
HETATM   32  C5  UNL     1      30.539  33.367  11.552  1.00  0.00     0.007 C
BRANCH  32  33
HETATM   33  C6  UNL     1      30.789  33.436  13.036  1.00  0.00     0.009 C
BRANCH  33  34
HETATM   34  C7  UNL     1      31.394  32.179  13.580  1.00  0.00     0.168 C
BRANCH  34  35
HETATM   35  O1  UNL     1      31.537  32.249  14.979  1.00  0.00    -0.400 OA
ATOM     36  H1  UNL     1      31.593  31.381  15.362  1.00  0.00     0.209 HD
ENDBRANCH  34  35
ENDBRANCH  33  34
BRANCH  33  37
HETATM   37  C8  UNL     1      31.637  34.633  13.367  1.00  0.00     0.009 C
BRANCH  37  38
HETATM   38  C9  UNL     1      33.042  34.564  12.870  1.00  0.00     0.026 C
BRANCH  38  39
HETATM   39  C10 UNL     1      34.052  34.919  13.948  1.00  0.00     0.088 C
HETATM   40  C11 UNL     1      35.255  35.610  13.359  1.00  0.00     0.052 C
HETATM   41  C12 UNL     1      36.283  35.820  14.385  1.00  0.00    -0.019 C
HETATM   42  C13 UNL     1      36.403  35.045  15.434  1.00  0.00     0.070 C
HETATM   43  C14 UNL     1      35.507  33.913  15.640  1.00  0.00     0.241 C
HETATM   44  O2  UNL     1      35.605  33.166  16.625  1.00  0.00    -0.269 OA
HETATM   45  N1  UNL     1      34.512  33.723  14.635  1.00  0.00    -0.353 N
ATOM     46  H1  UNL     1      34.143  32.799  14.411  1.00  0.00     0.163 HD
ENDBRANCH  38  39
ENDBRANCH  37  38
ENDBRANCH  33  37
ENDBRANCH  32  33
ENDBRANCH  31  32
ENDBRANCH  30  31
ENDBRANCH  28  30
ENDBRANCH   1  28
TORSDOF 15
ENDMDL