MODEL 5
REMARK VINA RESULT: -6.085352909      9.668     14.006
REMARK  15 active torsions:
REMARK  status: ('A' for Active; 'I' for Inactive)
REMARK    1  A    between atoms: C3_3  and  C4_4
REMARK    2  A    between atoms: C4_4  and  O1_5
REMARK    3  A    between atoms: C4_4  and  C5_7
REMARK    4  A    between atoms: C15_21  and  C16_22
REMARK    5  A    between atoms: N2_26  and  C19_27
REMARK    6  A    between atoms: C19_27  and  C20_28
REMARK    7  A    between atoms: C20_28  and  C21_29
REMARK    8  A    between atoms: C21_29  and  C22_30
REMARK    9  A    between atoms: C22_30  and  C23_31
REMARK   10  A    between atoms: C23_31  and  C24_32
REMARK   11  A    between atoms: C24_32  and  N3_33
REMARK       I    between atoms: N3_33  and  C25_35
REMARK   12  A    between atoms: C25_35  and  C26_37
REMARK   13  A    between atoms: C26_37  and  C27_38
REMARK   14  A    between atoms: C27_38  and  C28_39
REMARK   15  A    between atoms: C28_39  and  C29_40
ROOT
HETATM    1  C1  UNL     1      30.105  24.825  11.177  1.00  0.00     0.112 C
HETATM    2  C2  UNL     1      30.639  25.768  10.211  1.00  0.00    -0.108 C
HETATM    3  C3  UNL     1      31.102  26.553   9.409  1.00  0.00    -0.074 C
ENDROOT
BRANCH   3   4
HETATM    4  C4  UNL     1      31.677  27.552   8.437  1.00  0.00     0.208 C
BRANCH   4   5
HETATM    5  O1  UNL     1      30.894  28.707   8.794  1.00  0.00    -0.383 OA
ATOM      6  H1  UNL     1      30.845  29.131   7.945  1.00  0.00     0.211 HD
ENDBRANCH   4   5
BRANCH   4   7
HETATM    7  C5  UNL     1      31.446  27.195   7.062  1.00  0.00     0.096 C
HETATM    8  C6  UNL     1      31.228  28.391   6.125  1.00  0.00    -0.028 C
HETATM    9  C7  UNL     1      32.366  29.218   6.132  1.00  0.00     0.117 C
HETATM   10  C12 UNL     1      29.831  28.459   5.585  1.00  0.00    -0.021 C
HETATM   11  C8  UNL     1      32.154  30.322   5.090  1.00  0.00     0.316 C
HETATM   12  N2  UNL     1      33.624  28.867   6.628  1.00  0.00    -0.310 N
HETATM   13  O2  UNL     1      32.004  31.403   4.828  1.00  0.00    -0.257 OA
HETATM   14  O3  UNL     1      32.170  29.472   3.728  1.00  0.00    -0.261 OA
HETATM   15  C9  UNL     1      32.187  28.011   3.878  1.00  0.00     0.124 C
HETATM   16  C10 UNL     1      30.811  27.512   3.399  1.00  0.00     0.085 C
HETATM   17  N1  UNL     1      32.743  27.335   4.876  1.00  0.00    -0.355 N
HETATM   18  C11 UNL     1      29.700  28.017   4.192  1.00  0.00     0.021 C
HETATM   19  C15 UNL     1      32.665  26.752   6.165  1.00  0.00     0.124 C
ATOM     20  H1  UNL     1      33.693  27.138   4.559  1.00  0.00     0.162 HD
HETATM   21  C18 UNL     1      33.684  27.444   7.094  1.00  0.00     0.253 C
HETATM   22  O4  UNL     1      34.366  27.010   7.961  1.00  0.00    -0.270 OA
HETATM   23  C13 UNL     1      28.809  27.840   6.501  1.00  0.00     0.019 C
HETATM   24  C14 UNL     1      29.356  29.946   5.561  1.00  0.00     0.019 C
BRANCH  19  25
HETATM   25  C16 UNL     1      32.857  25.345   6.152  1.00  0.00     0.037 C
HETATM   26  C17 UNL     1      31.602  24.497   6.272  1.00  0.00     0.008 C
ENDBRANCH  19  25
BRANCH  12  27
HETATM   27  C19 UNL     1      34.921  29.502   7.001  1.00  0.00     0.132 C
BRANCH  27  28
HETATM   28  C20 UNL     1      34.709  30.564   8.019  1.00  0.00     0.020 C
BRANCH  28  29
HETATM   29  C21 UNL     1      35.159  30.106   9.364  1.00  0.00     0.002 C
BRANCH  29  30
HETATM   30  C22 UNL     1      33.978  29.942  10.281  1.00  0.00     0.002 C
BRANCH  30  31
HETATM   31  C23 UNL     1      32.956  31.049  10.026  1.00  0.00     0.020 C
BRANCH  31  32
HETATM   32  C24 UNL     1      32.124  31.159  11.288  1.00  0.00     0.122 C
BRANCH  32  33
HETATM   33  N3  UNL     1      30.725  31.235  10.947  1.00  0.00    -0.361 N
HETATM   34  C25 UNL     1      29.751  31.193  11.964  1.00  0.00     0.217 C
HETATM   35  O5  UNL     1      30.097  31.084  13.158  1.00  0.00    -0.274 OA
ATOM     36  H3  UNL     1      30.441  31.320   9.971  1.00  0.00     0.162 HD
BRANCH  34  37
HETATM   37  C26 UNL     1      28.327  31.276  11.606  1.00  0.00     0.103 C
BRANCH  37  38
HETATM   38  C27 UNL     1      28.050  31.685  10.196  1.00  0.00     0.009 C
BRANCH  38  39
HETATM   39  C28 UNL     1      27.609  30.592   9.285  1.00  0.00     0.000 C
BRANCH  39  40
HETATM   40  C29 UNL     1      26.989  29.455  10.101  1.00  0.00    -0.005 C
HETATM   41  C30 UNL     1      27.642  28.171   9.665  1.00  0.00     0.005 C
ENDBRANCH  39  40
ENDBRANCH  38  39
ENDBRANCH  37  38
ENDBRANCH  34  37
ENDBRANCH  32  33
ENDBRANCH  31  32
ENDBRANCH  30  31
ENDBRANCH  29  30
ENDBRANCH  28  29
ENDBRANCH  27  28
ENDBRANCH  12  27
ENDBRANCH   4   7
ENDBRANCH   3   4
TORSDOF 15
ENDMDL