MODEL 2
REMARK VINA RESULT: -7.741671578      2.233      5.222
REMARK  14 active torsions:
REMARK  status: ('A' for Active; 'I' for Inactive)
REMARK    1  A    between atoms: C2_2  and  N1_3
REMARK       I    between atoms: N1_3  and  C3_5
REMARK    2  A    between atoms: C3_5  and  S1_7
REMARK    3  A    between atoms: S1_7  and  N2_10
REMARK    4  A    between atoms: N2_10  and  C4_12
REMARK    5  A    between atoms: C4_12  and  C5_13
REMARK    6  A    between atoms: C4_12  and  C9_21
REMARK    7  A    between atoms: C5_13  and  C6_14
REMARK    8  A    between atoms: C6_14  and  C7_15
REMARK    9  A    between atoms: C7_15  and  C8_16
REMARK   10  A    between atoms: C8_16  and  N3_17
REMARK       I    between atoms: C9_21  and  N4_23
REMARK   11  A    between atoms: N4_23  and  C10_25
REMARK   12  A    between atoms: C10_25  and  C11_26
REMARK   13  A    between atoms: C11_26  and  C12_27
REMARK   14  A    between atoms: C12_27  and  C13_28
ROOT
HETATM    1  C9  UNL     1      29.361  29.064  10.398  1.00  0.00     0.241 C
HETATM    2  O4  UNL     1      28.439  28.781  11.209  1.00  0.00    -0.271 OA
HETATM    3  N4  UNL     1      29.747  30.419  10.158  1.00  0.00    -0.359 N
ATOM      4  H4  UNL     1      30.497  30.641   9.504  1.00  0.00     0.162 HD
ENDROOT
BRANCH   1   5
HETATM    5  C4  UNL     1      30.046  27.951   9.696  1.00  0.00     0.185 C
BRANCH   5   6
HETATM    6  N2  UNL     1      31.456  27.885  10.040  1.00  0.00    -0.298 N
ATOM      7  H2  UNL     1      31.829  27.623  10.952  1.00  0.00     0.173 HD
BRANCH   6   8
HETATM    8  S1  UNL     1      32.410  28.326   8.648  1.00  0.00     0.314 S
HETATM    9  O2  UNL     1      31.522  28.491   7.444  1.00  0.00    -0.196 OA
HETATM   10  O3  UNL     1      33.330  27.169   8.343  1.00  0.00    -0.196 OA
BRANCH   8  11
HETATM   11  C3  UNL     1      33.275  29.796   8.926  1.00  0.00     0.356 C
HETATM   12  N1  UNL     1      34.694  29.932   8.773  1.00  0.00    -0.347 N
ATOM     13  H1  UNL     1      35.237  29.120   8.481  1.00  0.00     0.163 HD
HETATM   14  O1  UNL     1      32.671  30.865   9.293  1.00  0.00    -0.253 OA
BRANCH  12  15
HETATM   15  C2  UNL     1      35.376  31.171   9.017  1.00  0.00     0.119 C
HETATM   16  C1  UNL     1      36.519  30.984   9.981  1.00  0.00     0.026 C
ENDBRANCH  12  15
ENDBRANCH   8  11
ENDBRANCH   6   8
ENDBRANCH   5   6
BRANCH   5  17
HETATM   17  C5  UNL     1      29.430  26.636  10.167  1.00  0.00     0.035 C
BRANCH  17  18
HETATM   18  C6  UNL     1      30.462  25.619  10.470  1.00  0.00     0.004 C
BRANCH  18  19
HETATM   19  C7  UNL     1      30.075  24.522  11.384  1.00  0.00     0.027 C
BRANCH  19  20
HETATM   20  C8  UNL     1      29.673  24.852  12.767  1.00  0.00     0.229 C
BRANCH  20  21
HETATM   21  N3  UNL     1      29.649  23.761  13.701  1.00  0.00    -0.079 N
ATOM     22  H33 UNL     1      29.310  22.918  13.237  1.00  0.00     0.274 HD
ATOM     23  H32 UNL     1      30.603  23.478  13.925  1.00  0.00     0.274 HD
ATOM     24  H31 UNL     1      29.125  23.914  14.563  1.00  0.00     0.274 HD
ENDBRANCH  20  21
ENDBRANCH  19  20
ENDBRANCH  18  19
ENDBRANCH  17  18
ENDBRANCH   5  17
ENDBRANCH   1   5
BRANCH   3  25
HETATM   25  C10 UNL     1      29.048  31.462  10.866  1.00  0.00     0.122 C
BRANCH  25  26
HETATM   26  C11 UNL     1      29.973  32.691  10.968  1.00  0.00     0.020 C
BRANCH  26  27
HETATM   27  C12 UNL     1      30.342  32.806  12.403  1.00  0.00     0.006 C
BRANCH  27  28
HETATM   28  C13 UNL     1      31.680  33.421  12.695  1.00  0.00    -0.014 C
HETATM   29  C14 UNL     1      31.514  34.124  14.042  1.00  0.00     0.004 C
HETATM   30  C15 UNL     1      30.532  35.288  13.906  1.00  0.00     0.000 C
HETATM   31  C16 UNL     1      31.051  36.545  14.571  1.00  0.00     0.000 C
HETATM   32  C17 UNL     1      31.132  37.641  13.526  1.00  0.00     0.000 C
HETATM   33  C18 UNL     1      32.481  37.721  12.884  1.00  0.00     0.000 C
HETATM   34  C19 UNL     1      33.514  38.395  13.753  1.00  0.00     0.000 C
HETATM   35  C20 UNL     1      34.841  38.306  13.036  1.00  0.00     0.000 C
HETATM   36  C21 UNL     1      35.884  37.629  13.893  1.00  0.00     0.000 C
HETATM   37  C22 UNL     1      35.451  36.288  14.393  1.00  0.00     0.000 C
HETATM   38  C23 UNL     1      36.257  35.156  13.801  1.00  0.00     0.000 C
HETATM   39  C24 UNL     1      35.519  34.514  12.647  1.00  0.00     0.000 C
HETATM   40  C25 UNL     1      35.032  33.143  13.088  1.00  0.00     0.000 C
HETATM   41  C26 UNL     1      34.007  32.676  12.078  1.00  0.00     0.000 C
HETATM   42  C27 UNL     1      32.714  32.339  12.782  1.00  0.00     0.004 C
ENDBRANCH  27  28
ENDBRANCH  26  27
ENDBRANCH  25  26
ENDBRANCH   3  25
TORSDOF 14
ENDMDL