MODEL 4
REMARK VINA RESULT: -7.702282119      1.400      1.784
REMARK  15 active torsions:
REMARK  status: ('A' for Active; 'I' for Inactive)
REMARK       I    between atoms: C2_2  and  N1_4
REMARK    1  A    between atoms: N1_4  and  C3_6
REMARK    2  A    between atoms: C3_6  and  C4_7
REMARK    3  A    between atoms: C4_7  and  C5_8
REMARK    4  A    between atoms: C5_8  and  C6_9
REMARK    5  A    between atoms: C6_9  and  C7_10
REMARK    6  A    between atoms: C7_10  and  C8_11
REMARK    7  A    between atoms: C8_11  and  N2_12
REMARK    8  A    between atoms: N2_12  and  C9_14
REMARK    9  A    between atoms: C19_24  and  O2_25
REMARK   10  A    between atoms: C19_24  and  C20_27
REMARK   11  A    between atoms: C20_27  and  C21_28
REMARK   12  A    between atoms: C21_28  and  C22_29
REMARK   13  A    between atoms: C22_29  and  C23_30
REMARK   14  A    between atoms: C23_30  and  C24_31
REMARK   15  A    between atoms: C25_34  and  O5_35
ROOT
HETATM    1  C9  UNL     1      32.699  31.509  11.205  1.00  0.00     0.078 C
HETATM    2  C10 UNL     1      31.573  32.348  11.659  1.00  0.00     0.024 C
HETATM    3  C11 UNL     1      30.228  32.049  11.094  1.00  0.00     0.002 C
HETATM    4  C12 UNL     1      29.070  32.133  12.014  1.00  0.00     0.000 C
HETATM    5  C13 UNL     1      28.807  30.958  12.879  1.00  0.00     0.000 C
HETATM    6  C14 UNL     1      28.657  29.638  12.236  1.00  0.00     0.000 C
HETATM    7  C15 UNL     1      27.731  29.545  11.080  1.00  0.00     0.000 C
HETATM    8  C16 UNL     1      28.014  28.365  10.175  1.00  0.00     0.000 C
HETATM    9  C17 UNL     1      29.298  28.518   9.438  1.00  0.00     0.004 C
HETATM   10  C18 UNL     1      29.668  27.475   8.483  1.00  0.00     0.046 C
HETATM   11  C19 UNL     1      31.120  26.953   8.718  1.00  0.00     0.122 C
HETATM   12  C25 UNL     1      32.088  27.927   8.243  1.00  0.00     0.149 C
HETATM   13  N3  UNL     1      33.140  28.663   8.777  1.00  0.00    -0.358 N
HETATM   14  C26 UNL     1      34.496  28.787   8.195  1.00  0.00     0.125 C
HETATM   15  C27 UNL     1      35.354  28.611   9.455  1.00  0.00     0.022 C
HETATM   16  C28 UNL     1      34.681  29.731  10.238  1.00  0.00     0.027 C
HETATM   17  C29 UNL     1      33.215  29.477   9.951  1.00  0.00     0.088 C
HETATM   18  C30 UNL     1      32.609  30.864   9.857  1.00  0.00     0.050 C
ENDROOT
BRANCH   1  19
HETATM   19  N2  UNL     1      33.947  32.216  11.382  1.00  0.00    -0.417 N
ATOM     20  H2  UNL     1      34.613  32.339  10.618  1.00  0.00     0.153 HD
BRANCH  19  21
HETATM   21  C8  UNL     1      34.193  32.731  12.690  1.00  0.00     0.114 C
BRANCH  21  22
HETATM   22  C7  UNL     1      35.039  33.986  12.511  1.00  0.00     0.019 C
BRANCH  22  23
HETATM   23  C6  UNL     1      34.588  35.115  13.393  1.00  0.00     0.002 C
BRANCH  23  24
HETATM   24  C5  UNL     1      33.193  34.899  13.924  1.00  0.00     0.002 C
BRANCH  24  25
HETATM   25  C4  UNL     1      32.294  35.878  13.195  1.00  0.00     0.020 C
BRANCH  25  26
HETATM   26  C3  UNL     1      30.923  35.943  13.804  1.00  0.00     0.122 C
BRANCH  26  27
HETATM   27  N1  UNL     1      30.936  36.546  15.113  1.00  0.00    -0.361 N
HETATM   28  C2  UNL     1      29.977  37.534  15.492  1.00  0.00     0.213 C
HETATM   29  C1  UNL     1      30.003  38.156  16.839  1.00  0.00     0.117 C
HETATM   30  O1  UNL     1      29.078  37.914  14.710  1.00  0.00    -0.274 OA
ATOM     31  H1  UNL     1      31.648  36.261  15.786  1.00  0.00     0.162 HD
ENDBRANCH  26  27
ENDBRANCH  25  26
ENDBRANCH  24  25
ENDBRANCH  23  24
ENDBRANCH  22  23
ENDBRANCH  21  22
ENDBRANCH  19  21
ENDBRANCH   1  19
BRANCH  12  32
HETATM   32  O5  UNL     1      31.879  28.146   6.956  1.00  0.00    -0.347 OA
ATOM     33  H5  UNL     1      32.314  28.954   6.707  1.00  0.00     0.219 HD
ENDBRANCH  12  32
BRANCH  11  34
HETATM   34  O2  UNL     1      31.166  25.859   7.800  1.00  0.00    -0.381 OA
ATOM     35  H2  UNL     1      31.759  26.202   7.141  1.00  0.00     0.211 HD
ENDBRANCH  11  34
BRANCH  11  36
HETATM   36  C20 UNL     1      31.197  26.328  10.027  1.00  0.00     0.046 C
BRANCH  36  37
HETATM   37  C21 UNL     1      30.132  25.326  10.372  1.00  0.00     0.004 C
BRANCH  37  38
HETATM   38  C22 UNL     1      30.448  24.619  11.683  1.00  0.00     0.011 C
BRANCH  38  39
HETATM   39  C23 UNL     1      29.453  25.141  12.697  1.00  0.00     0.113 C
BRANCH  39  40
HETATM   40  C24 UNL     1      28.938  24.089  13.590  1.00  0.00     0.172 C
HETATM   41  O3  UNL     1      29.175  22.893  13.310  1.00  0.00    -0.648 OA
HETATM   42  O4  UNL     1      28.214  24.502  14.697  1.00  0.00    -0.648 OA
ENDBRANCH  39  40
ENDBRANCH  38  39
ENDBRANCH  37  38
ENDBRANCH  36  37
ENDBRANCH  11  36
TORSDOF 15
ENDMDL