MODEL 1
REMARK VINA RESULT: -7.842615288      0.000      0.000
REMARK  13 active torsions:
REMARK  status: ('A' for Active; 'I' for Inactive)
REMARK    1  A    between atoms: C2_2  and  C3_3
REMARK    2  A    between atoms: C3_3  and  C4_4
REMARK    3  A    between atoms: C4_4  and  C5_5
REMARK    4  A    between atoms: C5_5  and  C6_6
REMARK    5  A    between atoms: C6_6  and  N1_7
REMARK       I    between atoms: N1_7  and  C7_9
REMARK       I    between atoms: C7_9  and  N2_11
REMARK    6  A    between atoms: N2_11  and  C8_13
REMARK    7  A    between atoms: C8_13  and  C9_14
REMARK    8  A    between atoms: C12_17  and  C13_18
REMARK    9  A    between atoms: C13_18  and  N3_19
REMARK       I    between atoms: N3_19  and  C14_21
REMARK   10  A    between atoms: C14_21  and  C15_23
REMARK   11  A    between atoms: C18_28  and  N5_29
REMARK   12  A    between atoms: N5_29  and  S1_31
REMARK   13  A    between atoms: S1_31  and  C19_34
ROOT
HETATM    1  N3  UNL     1      36.324  33.181  11.171  1.00  0.00    -0.356 N
ATOM      2  H3  UNL     1      35.807  32.650  11.872  1.00  0.00     0.162 HD
HETATM    3  C14 UNL     1      36.521  34.550  11.390  1.00  0.00     0.251 C
HETATM    4  O2  UNL     1      37.142  35.302  10.562  1.00  0.00    -0.268 OA
ENDROOT
BRANCH   1   5
HETATM    5  C13 UNL     1      36.809  32.489  10.021  1.00  0.00     0.127 C
BRANCH   5   6
HETATM    6  C12 UNL     1      36.435  31.030   9.932  1.00  0.00     0.003 C
HETATM    7  C11 UNL     1      35.039  30.908  10.450  1.00  0.00     0.007 C
HETATM    8  C10 UNL     1      34.292  29.707   9.986  1.00  0.00     0.007 C
HETATM    9  C9  UNL     1      34.430  29.650   8.471  1.00  0.00     0.003 C
HETATM   10  C27 UNL     1      35.847  29.305   8.205  1.00  0.00     0.007 C
HETATM   11  C26 UNL     1      36.688  30.499   8.587  1.00  0.00     0.007 C
BRANCH   9  12
HETATM   12  C8  UNL     1      33.429  28.739   7.842  1.00  0.00     0.129 C
BRANCH  12  13
HETATM   13  N2  UNL     1      32.122  29.336   7.669  1.00  0.00    -0.343 N
HETATM   14  C7  UNL     1      31.007  28.803   8.331  1.00  0.00     0.316 C
HETATM   15  N1  UNL     1      29.691  29.403   8.188  1.00  0.00    -0.343 N
HETATM   16  O1  UNL     1      31.073  27.818   9.068  1.00  0.00    -0.247 OA
ATOM     17  H1  UNL     1      29.598  30.205   7.564  1.00  0.00     0.164 HD
ATOM     18  H2  UNL     1      32.012  30.147   7.062  1.00  0.00     0.164 HD
BRANCH  15  19
HETATM   19  C6  UNL     1      28.532  28.949   8.856  1.00  0.00     0.124 C
BRANCH  19  20
HETATM   20  C5  UNL     1      27.514  30.054   9.119  1.00  0.00     0.020 C
BRANCH  20  21
HETATM   21  C4  UNL     1      27.679  30.646  10.482  1.00  0.00     0.002 C
BRANCH  21  22
HETATM   22  C3  UNL     1      28.148  29.611  11.454  1.00  0.00    -0.000 C
BRANCH  22  23
HETATM   23  C2  UNL     1      28.500  30.302  12.769  1.00  0.00    -0.005 C
HETATM   24  C1  UNL     1      27.861  31.668  12.818  1.00  0.00     0.005 C
ENDBRANCH  22  23
ENDBRANCH  21  22
ENDBRANCH  20  21
ENDBRANCH  19  20
ENDBRANCH  15  19
ENDBRANCH  12  13
ENDBRANCH   9  12
ENDBRANCH   5   6
ENDBRANCH   1   5
BRANCH   3  25
HETATM   25  C15 UNL     1      36.011  35.180  12.610  1.00  0.00     0.036 A
HETATM   26  C16 UNL     1      36.768  36.054  13.336  1.00  0.00     0.034 A
HETATM   27  C17 UNL     1      36.195  36.641  14.455  1.00  0.00     0.090 A
HETATM   28  N4  UNL     1      34.960  36.360  14.805  1.00  0.00    -0.352 N
HETATM   29  C18 UNL     1      34.168  35.507  14.136  1.00  0.00     0.115 A
ATOM     30  H4  UNL     1      34.580  36.817  15.635  1.00  0.00     0.166 HD
HETATM   31  C25 UNL     1      34.712  34.917  13.027  1.00  0.00     0.066 A
BRANCH  29  32
HETATM   32  N5  UNL     1      32.849  35.248  14.541  1.00  0.00    -0.270 N
ATOM     33  H5  UNL     1      32.740  34.865  15.480  1.00  0.00     0.180 HD
BRANCH  32  34
HETATM   34  S1  UNL     1      31.400  35.490  13.665  1.00  0.00     0.236 S
HETATM   35  O3  UNL     1      31.716  36.527  12.544  1.00  0.00    -0.205 OA
HETATM   36  O4  UNL     1      30.301  36.083  14.512  1.00  0.00    -0.205 OA
BRANCH  34  37
HETATM   37  C19 UNL     1      30.837  34.045  12.855  1.00  0.00     0.129 C
HETATM   38  C20 UNL     1      31.248  33.881  11.459  1.00  0.00     0.022 C
HETATM   39  C21 UNL     1      30.791  32.481  10.954  1.00  0.00     0.001 C
HETATM   40  C22 UNL     1      31.692  31.445  11.591  1.00  0.00     0.000 C
HETATM   41  C23 UNL     1      32.343  32.019  12.857  1.00  0.00     0.001 C
HETATM   42  C24 UNL     1      31.348  32.822  13.683  1.00  0.00     0.022 C
ENDBRANCH  34  37
ENDBRANCH  32  34
ENDBRANCH  29  32
ENDBRANCH   3  25
TORSDOF 13
ENDMDL