MODEL 2
REMARK VINA RESULT: -8.280106053      0.925      1.181
REMARK  14 active torsions:
REMARK  status: ('A' for Active; 'I' for Inactive)
REMARK    1  A    between atoms: C2_2  and  C3_3
REMARK    2  A    between atoms: C6_6  and  C7_7
REMARK       I    between atoms: C7_7  and  N1_9
REMARK    3  A    between atoms: N1_9  and  C8_11
REMARK    4  A    between atoms: C8_11  and  C9_12
REMARK    5  A    between atoms: C8_11  and  C16_19
REMARK    6  A    between atoms: C9_12  and  C10_13
REMARK       I    between atoms: C16_19  and  N2_21
REMARK    7  A    between atoms: N2_21  and  C17_23
REMARK    8  A    between atoms: C17_23  and  C18_24
REMARK    9  A    between atoms: C17_23  and  C27_37
REMARK   10  A    between atoms: C19_25  and  C20_26
REMARK   11  A    between atoms: C20_26  and  C21_27
REMARK   12  A    between atoms: C21_27  and  N3_28
REMARK       I    between atoms: N3_28  and  C22_30
REMARK   13  A    between atoms: C22_30  and  O4_32
REMARK   14  A    between atoms: O4_32  and  C23_33
ROOT
HETATM    1  C16 UNL     1      31.610  34.218  12.544  1.00  0.00     0.241 C
HETATM    2  O2  UNL     1      31.197  34.642  11.442  1.00  0.00    -0.271 OA
HETATM    3  N2  UNL     1      31.367  32.874  12.891  1.00  0.00    -0.342 N
ATOM      4  H2  UNL     1      31.703  32.512  13.782  1.00  0.00     0.163 HD
ENDROOT
BRANCH   1   5
HETATM    5  C8  UNL     1      32.359  35.118  13.487  1.00  0.00     0.177 C
BRANCH   5   6
HETATM    6  N1  UNL     1      31.358  35.707  14.360  1.00  0.00    -0.347 N
HETATM    7  C7  UNL     1      30.822  36.984  14.108  1.00  0.00     0.222 C
HETATM    8  O1  UNL     1      31.234  37.613  13.095  1.00  0.00    -0.273 OA
ATOM      9  H1  UNL     1      31.036  35.184  15.174  1.00  0.00     0.163 HD
BRANCH   7  10
HETATM   10  C6  UNL     1      29.812  37.589  14.980  1.00  0.00     0.078 C
HETATM   11  C5  UNL     1      28.973  38.588  14.214  1.00  0.00     0.014 C
HETATM   12  C4  UNL     1      27.875  39.048  15.166  1.00  0.00     0.005 C
HETATM   13  C3  UNL     1      28.466  39.779  16.344  1.00  0.00    -0.015 C
HETATM   14  C29 UNL     1      29.976  39.712  16.336  1.00  0.00     0.005 C
HETATM   15  C28 UNL     1      30.512  38.353  16.094  1.00  0.00     0.014 C
BRANCH  13  16
HETATM   16  C2  UNL     1      27.948  41.184  16.431  1.00  0.00     0.000 C
HETATM   17  C1  UNL     1      28.811  42.039  15.524  1.00  0.00     0.005 C
ENDBRANCH  13  16
ENDBRANCH   7  10
ENDBRANCH   5   6
BRANCH   5  18
HETATM   18  C9  UNL     1      33.233  34.262  14.369  1.00  0.00     0.039 C
BRANCH  18  19
HETATM   19  C10 UNL     1      34.698  34.539  14.246  1.00  0.00    -0.012 C
HETATM   20  C11 UNL     1      35.267  33.479  13.314  1.00  0.00     0.005 C
HETATM   21  C12 UNL     1      35.677  34.096  11.993  1.00  0.00     0.000 C
HETATM   22  C13 UNL     1      36.828  35.046  12.299  1.00  0.00     0.000 C
HETATM   23  C14 UNL     1      36.371  36.110  13.247  1.00  0.00     0.000 C
HETATM   24  C15 UNL     1      34.969  35.937  13.740  1.00  0.00     0.005 C
ENDBRANCH  18  19
ENDBRANCH   5  18
ENDBRANCH   1   5
BRANCH   3  25
HETATM   25  C17 UNL     1      30.607  31.961  11.946  1.00  0.00     0.208 C
BRANCH  25  26
HETATM   26  C18 UNL     1      29.931  31.007  12.818  1.00  0.00     0.005 C
HETATM   27  C19 UNL     1      28.575  30.562  12.742  1.00  0.00    -0.026 C
BRANCH  27  28
HETATM   28  C20 UNL     1      27.902  30.133  11.501  1.00  0.00     0.046 C
BRANCH  28  29
HETATM   29  C21 UNL     1      28.504  28.883  10.897  1.00  0.00     0.128 C
BRANCH  29  30
HETATM   30  N3  UNL     1      29.204  29.300   9.673  1.00  0.00    -0.337 N
HETATM   31  C22 UNL     1      28.525  29.377   8.459  1.00  0.00     0.361 C
HETATM   32  O3  UNL     1      27.329  29.085   8.343  1.00  0.00    -0.238 OA
ATOM     33  H3  UNL     1      30.196  29.536   9.713  1.00  0.00     0.164 HD
BRANCH  31  34
HETATM   34  O4  UNL     1      29.154  29.796   7.274  1.00  0.00    -0.294 OA
BRANCH  34  35
HETATM   35  C23 UNL     1      29.984  28.924   6.531  1.00  0.00     0.061 C
HETATM   36  C24 UNL     1      31.374  28.795   7.097  1.00  0.00     0.046 C
HETATM   37  C25 UNL     1      30.137  29.574   5.149  1.00  0.00     0.046 C
HETATM   38  C26 UNL     1      29.330  27.587   6.307  1.00  0.00     0.046 C
ENDBRANCH  34  35
ENDBRANCH  31  34
ENDBRANCH  29  30
ENDBRANCH  28  29
ENDBRANCH  27  28
ENDBRANCH  25  26
BRANCH  25  39
HETATM   39  C27 UNL     1      31.831  31.238  11.370  1.00  0.00     0.200 C
HETATM   40  O5  UNL     1      31.767  30.803  10.187  1.00  0.00    -0.646 OA
HETATM   41  O6  UNL     1      32.966  31.035  12.065  1.00  0.00    -0.646 OA
ENDBRANCH  25  39
ENDBRANCH   3  25
TORSDOF 14
ENDMDL