MODEL 5
REMARK VINA RESULT: -7.775617324      4.650      6.678
REMARK  15 active torsions:
REMARK  status: ('A' for Active; 'I' for Inactive)
REMARK    1  A    between atoms: C2_2  and  C3_3
REMARK       I    between atoms: N1_14  and  C14_15
REMARK       I    between atoms: C14_15  and  N2_17
REMARK    2  A    between atoms: N2_17  and  C15_19
REMARK    3  A    between atoms: C15_19  and  C16_20
REMARK    4  A    between atoms: C16_20  and  C17_21
REMARK    5  A    between atoms: C17_21  and  N3_22
REMARK    6  A    between atoms: N3_22  and  C18_24
REMARK    7  A    between atoms: C18_24  and  C19_25
REMARK    8  A    between atoms: C19_25  and  C20_26
REMARK    9  A    between atoms: C20_26  and  C21_27
REMARK   10  A    between atoms: C21_27  and  N4_29
REMARK   11  A    between atoms: N4_29  and  C23_31
REMARK   12  A    between atoms: C23_31  and  C24_32
REMARK   13  A    between atoms: C24_32  and  O2_33
REMARK   14  A    between atoms: C24_32  and  C25_35
REMARK   15  A    between atoms: C25_35  and  O3_36
ROOT
HETATM    1  C3  UNL     1      33.552  36.187  13.659  1.00  0.00    -0.032 C
HETATM    2  C4  UNL     1      34.655  36.026  12.675  1.00  0.00     0.015 C
HETATM    3  C5  UNL     1      35.660  34.960  12.974  1.00  0.00    -0.013 C
HETATM    4  C6  UNL     1      36.155  34.960  14.388  1.00  0.00     0.009 C
HETATM    5  C7  UNL     1      34.919  34.778  15.245  1.00  0.00    -0.013 C
HETATM    6  C8  UNL     1      34.291  33.481  14.879  1.00  0.00     0.010 C
HETATM    7  C9  UNL     1      33.844  33.341  13.463  1.00  0.00    -0.004 C
HETATM    8  C10 UNL     1      34.995  33.671  12.550  1.00  0.00     0.010 C
HETATM    9  C11 UNL     1      32.534  33.929  13.112  1.00  0.00    -0.026 C
HETATM   10  C12 UNL     1      32.221  33.609  11.672  1.00  0.00     0.030 C
HETATM   11  C13 UNL     1      32.408  32.174  11.282  1.00  0.00     0.128 C
HETATM   12  N1  UNL     1      31.391  31.436  12.031  1.00  0.00    -0.334 N
HETATM   13  C14 UNL     1      30.445  30.649  11.396  1.00  0.00     0.318 C
HETATM   14  O1  UNL     1      30.469  30.604  10.120  1.00  0.00    -0.247 OA
HETATM   15  N2  UNL     1      29.440  29.876  12.019  1.00  0.00    -0.343 N
ATOM     16  H2  UNL     1      29.384  29.871  13.038  1.00  0.00     0.164 HD
HETATM   17  C26 UNL     1      31.469  31.624  13.432  1.00  0.00     0.128 C
HETATM   18  C27 UNL     1      31.490  33.077  13.865  1.00  0.00     0.030 C
HETATM   19  C28 UNL     1      32.324  35.371  13.417  1.00  0.00    -0.032 C
HETATM   20  C29 UNL     1      31.334  35.549  14.565  1.00  0.00     0.016 C
HETATM   21  C30 UNL     1      31.581  36.044  12.247  1.00  0.00     0.016 C
HETATM   22  C31 UNL     1      34.062  35.985  15.071  1.00  0.00     0.015 C
ENDROOT
BRANCH  15  23
HETATM   23  C15 UNL     1      28.479  29.084  11.259  1.00  0.00     0.126 C
BRANCH  23  24
HETATM   24  C16 UNL     1      27.359  29.997  10.832  1.00  0.00     0.039 C
BRANCH  24  25
HETATM   25  C17 UNL     1      27.003  29.850   9.388  1.00  0.00     0.115 C
BRANCH  25  26
HETATM   26  N3  UNL     1      28.025  30.119   8.450  1.00  0.00    -0.421 N
ATOM     27  H3  UNL     1      28.590  30.964   8.528  1.00  0.00     0.153 HD
BRANCH  26  28
HETATM   28  C18 UNL     1      28.251  29.196   7.401  1.00  0.00     0.113 C
BRANCH  28  29
HETATM   29  C19 UNL     1      29.636  28.498   7.490  1.00  0.00     0.021 C
BRANCH  29  30
HETATM   30  C20 UNL     1      29.448  27.280   8.337  1.00  0.00     0.026 C
BRANCH  30  31
HETATM   31  C21 UNL     1      30.607  26.717   9.031  1.00  0.00     0.072 C
HETATM   32  C22 UNL     1      30.987  25.452   8.154  1.00  0.00     0.031 C
BRANCH  31  33
HETATM   33  N4  UNL     1      30.602  26.335  10.346  1.00  0.00    -0.415 N
ATOM     34  H4  UNL     1      31.069  26.944  11.018  1.00  0.00     0.153 HD
BRANCH  33  35
HETATM   35  C23 UNL     1      30.010  25.182  10.831  1.00  0.00     0.147 C
BRANCH  35  36
HETATM   36  C24 UNL     1      30.117  25.092  12.370  1.00  0.00     0.159 C
BRANCH  36  37
HETATM   37  O2  UNL     1      31.410  24.746  12.717  1.00  0.00    -0.392 OA
ATOM     38  H2  UNL     1      31.498  23.801  12.691  1.00  0.00     0.210 HD
ENDBRANCH  36  37
BRANCH  36  39
HETATM   39  C25 UNL     1      29.092  24.114  12.856  1.00  0.00     0.197 C
BRANCH  39  40
HETATM   40  O3  UNL     1      29.659  23.195  13.729  1.00  0.00    -0.398 OA
ATOM     41  H3  UNL     1      29.900  23.610  14.549  1.00  0.00     0.209 HD
ENDBRANCH  39  40
ENDBRANCH  36  39
ENDBRANCH  35  36
ENDBRANCH  33  35
ENDBRANCH  31  33
ENDBRANCH  30  31
ENDBRANCH  29  30
ENDBRANCH  28  29
ENDBRANCH  26  28
ENDBRANCH  25  26
ENDBRANCH  24  25
ENDBRANCH  23  24
ENDBRANCH  15  23
BRANCH   1  42
HETATM   42  C2  UNL     1      33.254  37.693  13.574  1.00  0.00     0.006 C
HETATM   43  C1  UNL     1      34.466  38.534  13.541  1.00  0.00     0.006 C
ENDBRANCH   1  42
TORSDOF 15
ENDMDL