MODEL 2
REMARK VINA RESULT: -6.919183918      4.215      7.492
REMARK  15 active torsions:
REMARK  status: ('A' for Active; 'I' for Inactive)
REMARK    1  A    between atoms: C10_10  and  C11_11
REMARK    2  A    between atoms: C11_11  and  C13_13
REMARK    3  A    between atoms: C13_13  and  C14_14
REMARK    4  A    between atoms: C14_14  and  C15_15
REMARK    5  A    between atoms: C15_15  and  N1_16
REMARK    6  A    between atoms: N1_16  and  C16_18
REMARK    7  A    between atoms: C16_18  and  C17_19
REMARK    8  A    between atoms: C17_19  and  C18_20
REMARK    9  A    between atoms: C18_20  and  C19_21
REMARK   10  A    between atoms: C19_21  and  N2_22
REMARK   11  A    between atoms: N2_22  and  O1_24
REMARK   12  A    between atoms: C25_30  and  O2_31
REMARK   13  A    between atoms: C29_36  and  C30_37
REMARK   14  A    between atoms: C30_37  and  C31_38
REMARK   15  A    between atoms: C31_38  and  C32_39
ROOT
HETATM    1  C1  UNL     1      36.822  31.524   6.552  1.00  0.00     0.010 C
HETATM    2  C2  UNL     1      35.821  31.392   7.712  1.00  0.00    -0.014 C
HETATM    3  C3  UNL     1      36.562  31.715   8.950  1.00  0.00     0.005 C
HETATM    4  C4  UNL     1      35.794  31.401  10.215  1.00  0.00     0.006 C
HETATM    5  C5  UNL     1      34.396  31.057   9.754  1.00  0.00    -0.001 C
HETATM    6  C6  UNL     1      33.408  30.974  10.830  1.00  0.00    -0.002 C
HETATM    7  C7  UNL     1      33.261  32.275  11.645  1.00  0.00     0.015 C
HETATM    8  C8  UNL     1      31.830  32.498  11.833  1.00  0.00    -0.032 C
HETATM    9  C9  UNL     1      31.316  33.655  11.076  1.00  0.00     0.016 C
HETATM   10  C10 UNL     1      31.235  32.342  13.183  1.00  0.00     0.022 C
HETATM   11  C21 UNL     1      29.779  32.161  12.784  1.00  0.00     0.010 C
HETATM   12  C22 UNL     1      29.832  31.505  11.383  1.00  0.00     0.006 C
HETATM   13  C23 UNL     1      31.232  31.163  11.296  1.00  0.00     0.001 C
HETATM   14  C24 UNL     1      32.027  30.961  10.140  1.00  0.00     0.024 C
HETATM   15  C25 UNL     1      31.874  29.700   9.342  1.00  0.00     0.123 C
HETATM   16  C26 UNL     1      32.961  29.618   8.335  1.00  0.00     0.042 C
HETATM   17  C27 UNL     1      34.386  29.795   8.914  1.00  0.00    -0.034 C
HETATM   18  C28 UNL     1      34.616  28.570   9.719  1.00  0.00     0.016 C
HETATM   19  C29 UNL     1      35.289  29.930   7.756  1.00  0.00    -0.002 C
ENDROOT
BRANCH  10  20
HETATM   20  C11 UNL     1      31.496  33.376  14.197  1.00  0.00    -0.083 C
HETATM   21  C12 UNL     1      32.922  33.708  14.497  1.00  0.00     0.043 C
BRANCH  20  22
HETATM   22  C13 UNL     1      30.657  34.591  14.200  1.00  0.00    -0.022 C
BRANCH  22  23
HETATM   23  C14 UNL     1      31.211  35.912  13.936  1.00  0.00     0.046 C
BRANCH  23  24
HETATM   24  C15 UNL     1      30.662  37.102  14.642  1.00  0.00     0.117 C
BRANCH  24  25
HETATM   25  N1  UNL     1      31.243  37.451  15.881  1.00  0.00    -0.421 N
ATOM     26  H1  UNL     1      32.182  37.145  16.136  1.00  0.00     0.153 HD
BRANCH  25  27
HETATM   27  C16 UNL     1      30.451  38.253  16.762  1.00  0.00     0.113 C
BRANCH  27  28
HETATM   28  C17 UNL     1      30.655  39.721  16.591  1.00  0.00     0.020 C
BRANCH  28  29
HETATM   29  C18 UNL     1      29.363  40.436  16.295  1.00  0.00     0.018 C
BRANCH  29  30
HETATM   30  C19 UNL     1      29.108  40.604  14.840  1.00  0.00     0.120 C
BRANCH  30  31
HETATM   31  N2  UNL     1      27.743  40.283  14.467  1.00  0.00    -0.204 NA
HETATM   32  C20 UNL     1      27.614  38.921  13.993  1.00  0.00     0.143 C
BRANCH  31  33
HETATM   33  O1  UNL     1      27.334  41.090  13.463  1.00  0.00    -0.314 OA
ATOM     34  H1  UNL     1      26.430  40.900  13.239  1.00  0.00     0.237 HD
ENDBRANCH  31  33
ENDBRANCH  30  31
ENDBRANCH  29  30
ENDBRANCH  28  29
ENDBRANCH  27  28
ENDBRANCH  25  27
ENDBRANCH  24  25
ENDBRANCH  23  24
ENDBRANCH  22  23
ENDBRANCH  20  22
ENDBRANCH  10  20
BRANCH  15  35
HETATM   35  O2  UNL     1      31.653  28.567  10.084  1.00  0.00    -0.395 OA
ATOM     36  H2  UNL     1      32.439  28.125  10.385  1.00  0.00     0.210 HD
ENDBRANCH  15  35
BRANCH  19  37
HETATM   37  C30 UNL     1      36.438  29.087   7.486  1.00  0.00     0.014 C
BRANCH  37  38
HETATM   38  C31 UNL     1      36.468  28.112   6.353  1.00  0.00     0.100 C
BRANCH  38  39
HETATM   39  C32 UNL     1      36.721  26.713   6.888  1.00  0.00     0.231 C
HETATM   40  N3  UNL     1      37.639  25.901   6.222  1.00  0.00    -0.062 NA
HETATM   41  O3  UNL     1      36.105  26.334   7.896  1.00  0.00    -0.277 OA
ENDBRANCH  38  39
ENDBRANCH  37  38
ENDBRANCH  19  37
TORSDOF 15
ENDMDL