MODEL 3
REMARK VINA RESULT: -8.080676398      1.325      2.263
REMARK  13 active torsions:
REMARK  status: ('A' for Active; 'I' for Inactive)
REMARK       I    between atoms: C1_2  and  N1_3
REMARK       I    between atoms: C1_2  and  N2_21
REMARK    1  A    between atoms: N1_3  and  C2_5
REMARK    2  A    between atoms: C2_5  and  C3_6
REMARK    3  A    between atoms: C3_6  and  C4_7
REMARK    4  A    between atoms: C4_7  and  C5_8
REMARK    5  A    between atoms: C5_8  and  C6_9
REMARK    6  A    between atoms: C6_9  and  C7_10
REMARK    7  A    between atoms: C7_10  and  C8_11
REMARK    8  A    between atoms: N2_21  and  C18_23
REMARK    9  A    between atoms: C18_23  and  C19_24
REMARK   10  A    between atoms: C18_23  and  C30_41
REMARK   11  A    between atoms: C19_24  and  C20_25
REMARK   12  A    between atoms: C23_28  and  N3_29
REMARK       I    between atoms: N3_29  and  C24_31
REMARK   13  A    between atoms: C24_31  and  C25_33
ROOT
HETATM    1  O1  UNL     1      32.728  27.258   9.773  1.00  0.00    -0.247 OA
HETATM    2  C1  UNL     1      32.837  27.803   8.649  1.00  0.00     0.316 C
HETATM    3  N1  UNL     1      31.805  27.624   7.696  1.00  0.00    -0.343 N
ATOM      4  H1  UNL     1      31.893  28.071   6.783  1.00  0.00     0.164 HD
HETATM    5  N2  UNL     1      33.965  28.593   8.303  1.00  0.00    -0.328 N
ATOM      6  H2  UNL     1      34.016  29.027   7.382  1.00  0.00     0.165 HD
ENDROOT
BRANCH   5   7
HETATM    7  C18 UNL     1      35.052  28.789   9.258  1.00  0.00     0.191 C
BRANCH   7   8
HETATM    8  C19 UNL     1      35.413  30.235   9.186  1.00  0.00     0.076 C
BRANCH   8   9
HETATM    9  C20 UNL     1      35.009  31.068  10.317  1.00  0.00    -0.040 A
HETATM   10  C21 UNL     1      33.736  31.007  10.833  1.00  0.00     0.012 A
HETATM   11  C22 UNL     1      33.301  31.773  11.887  1.00  0.00     0.049 A
HETATM   12  C23 UNL     1      34.203  32.672  12.478  1.00  0.00     0.107 A
HETATM   13  N4  UNL     1      35.418  32.710  11.964  1.00  0.00    -0.352 N
HETATM   14  C29 UNL     1      35.866  31.975  10.939  1.00  0.00     0.096 A
ATOM     15  H4  UNL     1      36.079  33.360  12.389  1.00  0.00     0.166 HD
BRANCH  12  16
HETATM   16  N3  UNL     1      33.746  33.460  13.532  1.00  0.00    -0.311 N
HETATM   17  C24 UNL     1      34.485  34.373  14.295  1.00  0.00     0.252 C
HETATM   18  O2  UNL     1      33.820  35.018  15.187  1.00  0.00    -0.270 OA
ATOM     19  H3  UNL     1      32.761  33.359  13.777  1.00  0.00     0.170 HD
BRANCH  17  20
HETATM   20  C25 UNL     1      35.938  34.648  14.152  1.00  0.00     0.213 C
HETATM   21  C26 UNL     1      36.381  35.442  15.340  1.00  0.00     0.044 C
HETATM   22  C27 UNL     1      36.534  36.836  14.841  1.00  0.00     0.029 C
HETATM   23  C28 UNL     1      36.058  36.769  13.422  1.00  0.00     0.168 C
HETATM   24  O3  UNL     1      36.119  35.467  13.026  1.00  0.00    -0.376 OA
ENDBRANCH  17  20
ENDBRANCH  12  16
ENDBRANCH   8   9
ENDBRANCH   7   8
BRANCH   7  25
HETATM   25  C30 UNL     1      36.134  27.835   9.051  1.00  0.00     0.197 C
HETATM   26  O4  UNL     1      35.950  26.579   8.949  1.00  0.00    -0.646 OA
HETATM   27  O5  UNL     1      37.438  28.251   8.955  1.00  0.00    -0.646 OA
ENDBRANCH   7  25
ENDBRANCH   5   7
BRANCH   3  28
HETATM   28  C2  UNL     1      30.653  26.844   7.968  1.00  0.00     0.124 C
BRANCH  28  29
HETATM   29  C3  UNL     1      29.781  26.615   6.785  1.00  0.00     0.020 C
BRANCH  29  30
HETATM   30  C4  UNL     1      28.536  27.479   6.874  1.00  0.00     0.002 C
BRANCH  30  31
HETATM   31  C5  UNL     1      28.796  28.939   6.767  1.00  0.00     0.000 C
BRANCH  31  32
HETATM   32  C6  UNL     1      27.809  29.764   7.574  1.00  0.00     0.001 C
BRANCH  32  33
HETATM   33  C7  UNL     1      27.623  29.222   8.950  1.00  0.00     0.009 C
BRANCH  33  34
HETATM   34  C8  UNL     1      28.116  30.127  10.029  1.00  0.00    -0.039 C
HETATM   35  C9  UNL     1      27.563  29.639  11.379  1.00  0.00     0.014 C
HETATM   36  C10 UNL     1      28.082  30.540  12.458  1.00  0.00    -0.013 C
HETATM   37  C11 UNL     1      29.610  30.458  12.543  1.00  0.00     0.009 C
HETATM   38  C15 UNL     1      27.727  31.985  12.260  1.00  0.00     0.009 C
HETATM   39  C12 UNL     1      30.165  30.920  11.233  1.00  0.00    -0.013 C
HETATM   40  C13 UNL     1      29.777  32.330  10.896  1.00  0.00     0.009 C
HETATM   41  C17 UNL     1      29.615  30.009  10.140  1.00  0.00     0.014 C
HETATM   42  C14 UNL     1      28.271  32.423  10.926  1.00  0.00    -0.013 C
HETATM   43  C16 UNL     1      27.652  31.536   9.861  1.00  0.00     0.014 C
ENDBRANCH  33  34
ENDBRANCH  32  33
ENDBRANCH  31  32
ENDBRANCH  30  31
ENDBRANCH  29  30
ENDBRANCH  28  29
ENDBRANCH   3  28
TORSDOF 13
ENDMDL