MODEL 4
REMARK VINA RESULT: -7.349294896      6.827      9.971
REMARK  14 active torsions:
REMARK  status: ('A' for Active; 'I' for Inactive)
REMARK    1  A    between atoms: C2_2  and  C3_3
REMARK    2  A    between atoms: C2_2  and  N2_31
REMARK    3  A    between atoms: C3_3  and  C4_4
REMARK    4  A    between atoms: C4_4  and  C5_5
REMARK    5  A    between atoms: C5_5  and  C6_6
REMARK    6  A    between atoms: C6_6  and  C7_7
REMARK    7  A    between atoms: C7_7  and  C8_9
REMARK    8  A    between atoms: C8_9  and  C9_10
REMARK    9  A    between atoms: N2_31  and  C26_34
REMARK   10  A    between atoms: C26_34  and  C27_35
REMARK   11  A    between atoms: C27_35  and  N3_36
REMARK   12  A    between atoms: N3_36  and  C28_39
REMARK   13  A    between atoms: C28_39  and  C29_40
REMARK   14  A    between atoms: C29_40  and  C30_41
ROOT
HETATM    1  C9  UNL     1      33.026  37.621  13.472  1.00  0.00    -0.071 C
HETATM    2  C10 UNL     1      34.254  38.074  13.847  1.00  0.00    -0.022 C
HETATM    3  C11 UNL     1      35.235  36.920  13.842  1.00  0.00     0.040 C
HETATM    4  C12 UNL     1      34.242  35.822  14.211  1.00  0.00     0.067 C
HETATM    5  C13 UNL     1      34.661  34.486  13.830  1.00  0.00     0.132 C
HETATM    6  O2  UNL     1      35.379  33.823  14.570  1.00  0.00    -0.298 OA
HETATM    7  C14 UNL     1      34.204  33.935  12.527  1.00  0.00     0.084 C
HETATM    8  C15 UNL     1      32.715  34.080  12.283  1.00  0.00     0.011 C
HETATM    9  C16 UNL     1      32.153  35.232  13.128  1.00  0.00     0.000 C
HETATM   10  C17 UNL     1      31.672  34.764  14.451  1.00  0.00     0.008 C
HETATM   11  C18 UNL     1      30.463  33.860  14.123  1.00  0.00     0.026 C
HETATM   12  C19 UNL     1      31.085  32.627  13.541  1.00  0.00     0.097 C
HETATM   13  N1  UNL     1      30.109  31.591  13.409  1.00  0.00    -0.352 N
ATOM     14  H1  UNL     1      29.943  30.941  14.176  1.00  0.00     0.163 HD
HETATM   15  C20 UNL     1      29.374  31.476  12.201  1.00  0.00     0.241 C
HETATM   16  O3  UNL     1      28.249  30.873  12.166  1.00  0.00    -0.269 OA
HETATM   17  C21 UNL     1      29.962  32.071  11.014  1.00  0.00     0.071 C
HETATM   18  C22 UNL     1      31.104  32.672  11.094  1.00  0.00    -0.009 C
HETATM   19  C23 UNL     1      31.937  32.834  12.335  1.00  0.00    -0.001 C
HETATM   20  C24 UNL     1      32.846  31.581  12.281  1.00  0.00     0.022 C
HETATM   21  C25 UNL     1      33.202  36.237  13.152  1.00  0.00     0.030 C
ENDROOT
BRANCH   1  22
HETATM   22  C8  UNL     1      31.880  38.598  13.410  1.00  0.00     0.112 C
BRANCH  22  23
HETATM   23  C7  UNL     1      31.388  38.932  14.752  1.00  0.00     0.130 C
HETATM   24  O1  UNL     1      31.431  40.147  15.035  1.00  0.00    -0.298 OA
BRANCH  23  25
HETATM   25  C6  UNL     1      30.864  38.023  15.788  1.00  0.00     0.078 C
BRANCH  25  26
HETATM   26  C5  UNL     1      30.093  38.846  16.802  1.00  0.00     0.007 C
BRANCH  26  27
HETATM   27  C4  UNL     1      28.632  38.871  16.627  1.00  0.00     0.002 C
BRANCH  27  28
HETATM   28  C3  UNL     1      27.963  40.029  16.027  1.00  0.00     0.032 C
BRANCH  28  29
HETATM   29  C2  UNL     1      27.728  40.062  14.567  1.00  0.00     0.182 C
HETATM   30  C1  UNL     1      27.479  38.784  13.853  1.00  0.00     0.040 C
BRANCH  29  31
HETATM   31  N2  UNL     1      28.764  40.809  13.851  1.00  0.00    -0.070 N
ATOM     32  H22 UNL     1      29.693  40.602  14.220  1.00  0.00     0.277 HD
ATOM     33  H21 UNL     1      28.888  40.456  12.902  1.00  0.00     0.277 HD
BRANCH  31  34
HETATM   34  C26 UNL     1      28.505  42.213  13.854  1.00  0.00     0.260 C
BRANCH  34  35
HETATM   35  C27 UNL     1      29.601  42.947  13.128  1.00  0.00     0.259 C
BRANCH  35  36
HETATM   36  N3  UNL     1      30.697  42.100  12.771  1.00  0.00    -0.073 N
ATOM     37  H32 UNL     1      31.268  41.874  13.585  1.00  0.00     0.277 HD
ATOM     38  H31 UNL     1      30.374  41.162  12.533  1.00  0.00     0.277 HD
BRANCH  36  39
HETATM   39  C28 UNL     1      31.506  42.659  11.705  1.00  0.00     0.233 C
BRANCH  39  40
HETATM   40  C29 UNL     1      32.633  41.668  11.452  1.00  0.00     0.038 C
BRANCH  40  41
HETATM   41  C30 UNL     1      32.378  40.782  10.257  1.00  0.00     0.088 C
HETATM   42  S1  UNL     1      31.634  41.701   8.877  1.00  0.00    -0.098 SA
ENDBRANCH  40  41
ENDBRANCH  39  40
ENDBRANCH  36  39
ENDBRANCH  35  36
ENDBRANCH  34  35
ENDBRANCH  31  34
ENDBRANCH  29  31
ENDBRANCH  28  29
ENDBRANCH  27  28
ENDBRANCH  26  27
ENDBRANCH  25  26
ENDBRANCH  23  25
ENDBRANCH  22  23
ENDBRANCH   1  22
TORSDOF 14
ENDMDL