MODEL 2
REMARK VINA RESULT: -7.594573190      2.035      5.847
REMARK  15 active torsions:
REMARK  status: ('A' for Active; 'I' for Inactive)
REMARK    1  A    between atoms: C2_2  and  C4_4
REMARK    2  A    between atoms: C4_4  and  C6_6
REMARK    3  A    between atoms: C6_6  and  O1_7
REMARK    4  A    between atoms: C6_6  and  N1_9
REMARK    5  A    between atoms: C9_12  and  N2_13
REMARK    6  A    between atoms: N2_13  and  C10_15
REMARK    7  A    between atoms: C10_15  and  C11_16
REMARK    8  A    between atoms: C11_16  and  C12_17
REMARK    9  A    between atoms: C11_16  and  C15_20
REMARK   10  A    between atoms: C15_20  and  N3_21
REMARK   11  A    between atoms: C15_20  and  C27_36
REMARK       I    between atoms: N3_21  and  C16_22
REMARK   12  A    between atoms: C16_22  and  C17_24
REMARK   13  A    between atoms: C17_24  and  C18_25
REMARK   14  A    between atoms: C18_25  and  C19_26
REMARK   15  A    between atoms: C19_26  and  C20_27
ROOT
HETATM    1  C11 UNL     1      29.737  28.593   9.146  1.00  0.00    -0.025 C
ENDROOT
BRANCH   1   2
HETATM    2  C10 UNL     1      30.400  28.230   7.855  1.00  0.00     0.089 C
BRANCH   2   3
HETATM    3  N2  UNL     1      31.168  29.226   7.228  1.00  0.00    -0.393 N
ATOM      4  H2  UNL     1      31.363  30.046   7.802  1.00  0.00     0.159 HD
BRANCH   3   5
HETATM    5  C9  UNL     1      31.694  29.265   5.973  1.00  0.00     0.090 C
HETATM    6  C8  UNL     1      31.961  27.848   5.442  1.00  0.00     0.070 C
HETATM    7  C7  UNL     1      33.413  27.473   5.700  1.00  0.00     0.068 C
HETATM    8  N1  UNL     1      33.998  28.166   6.778  1.00  0.00    -0.347 N
HETATM    9  C32 UNL     1      33.975  29.571   6.803  1.00  0.00     0.068 C
HETATM   10  C31 UNL     1      32.967  30.061   5.793  1.00  0.00     0.070 C
BRANCH   8  11
HETATM   11  C6  UNL     1      34.955  27.481   7.580  1.00  0.00     0.227 C
BRANCH  11  12
HETATM   12  C4  UNL     1      36.352  27.985   7.431  1.00  0.00     0.034 C
HETATM   13  C5  UNL     1      36.988  28.122   8.788  1.00  0.00     0.015 C
BRANCH  12  14
HETATM   14  C2  UNL     1      37.239  27.073   6.618  1.00  0.00    -0.015 C
HETATM   15  C1  UNL     1      36.771  25.656   6.555  1.00  0.00     0.010 C
HETATM   16  C3  UNL     1      37.269  27.616   5.190  1.00  0.00     0.010 C
ENDBRANCH  12  14
ENDBRANCH  11  12
BRANCH  11  17
HETATM   17  O1  UNL     1      34.536  27.471   8.917  1.00  0.00    -0.376 OA
ATOM     18  H1  UNL     1      33.830  26.854   9.067  1.00  0.00     0.212 HD
ENDBRANCH  11  17
ENDBRANCH   8  11
ENDBRANCH   3   5
ENDBRANCH   2   3
ENDBRANCH   1   2
BRANCH   1  19
HETATM   19  C12 UNL     1      30.134  27.509  10.028  1.00  0.00     0.011 C
HETATM   20  C13 UNL     1      29.221  26.518  10.613  1.00  0.00     0.014 C
HETATM   21  C14 UNL     1      31.201  26.692   9.312  1.00  0.00     0.014 C
ENDBRANCH   1  19
BRANCH   1  22
HETATM   22  C15 UNL     1      29.594  29.974   9.474  1.00  0.00     0.205 C
BRANCH  22  23
HETATM   23  N3  UNL     1      30.562  30.583  10.335  1.00  0.00    -0.404 NA
HETATM   24  C16 UNL     1      31.454  31.140  11.123  1.00  0.00     0.287 C
HETATM   25  O2  UNL     1      32.718  31.234  10.861  1.00  0.00    -0.258 OA
BRANCH  24  26
HETATM   26  C17 UNL     1      31.270  31.799  12.515  1.00  0.00     0.119 C
BRANCH  26  27
HETATM   27  C18 UNL     1      30.549  33.074  12.342  1.00  0.00     0.011 C
BRANCH  27  28
HETATM   28  C19 UNL     1      31.297  34.272  12.034  1.00  0.00     0.005 C
BRANCH  28  29
HETATM   29  C20 UNL     1      31.997  35.066  13.048  1.00  0.00    -0.011 C
HETATM   30  C21 UNL     1      33.445  35.200  13.107  1.00  0.00     0.024 C
HETATM   31  C22 UNL     1      33.798  35.844  14.459  1.00  0.00     0.115 C
HETATM   32  N4  UNL     1      32.704  36.462  15.121  1.00  0.00    -0.413 N
HETATM   33  C23 UNL     1      31.839  37.254  14.269  1.00  0.00     0.018 C
ATOM     34  H4  UNL     1      32.540  36.355  16.122  1.00  0.00     0.153 HD
HETATM   35  C24 UNL     1      32.525  38.562  13.871  1.00  0.00     0.037 C
HETATM   36  C25 UNL     1      30.621  37.642  15.084  1.00  0.00     0.037 C
HETATM   37  C26 UNL     1      31.383  36.507  13.064  1.00  0.00     0.034 C
ENDBRANCH  28  29
ENDBRANCH  27  28
ENDBRANCH  26  27
ENDBRANCH  24  26
ENDBRANCH  22  23
BRANCH  22  38
HETATM   38  C27 UNL     1      28.287  30.371  10.198  1.00  0.00    -0.015 C
HETATM   39  C28 UNL     1      27.835  31.758  10.046  1.00  0.00     0.018 C
HETATM   40  C29 UNL     1      28.124  29.893  11.595  1.00  0.00     0.018 C
HETATM   41  C30 UNL     1      27.128  29.568   9.471  1.00  0.00     0.018 C
ENDBRANCH  22  38
ENDBRANCH   1  22
TORSDOF 15
ENDMDL