MODEL 3
REMARK VINA RESULT: -7.954061735      0.949      1.117
REMARK  15 active torsions:
REMARK  status: ('A' for Active; 'I' for Inactive)
REMARK    1  A    between atoms: C2_2  and  N1_4
REMARK       I    between atoms: N1_4  and  C4_6
REMARK    2  A    between atoms: C4_6  and  C5_8
REMARK    3  A    between atoms: C5_8  and  C6_9
REMARK    4  A    between atoms: C5_8  and  N3_27
REMARK    5  A    between atoms: C6_9  and  C7_10
REMARK    6  A    between atoms: C10_13  and  C11_14
REMARK    7  A    between atoms: C11_14  and  C12_15
REMARK    8  A    between atoms: C12_15  and  C13_16
REMARK    9  A    between atoms: C13_16  and  C14_17
REMARK   10  A    between atoms: C14_17  and  C15_18
REMARK       I    between atoms: N3_27  and  C22_29
REMARK   11  A    between atoms: C22_29  and  C23_31
REMARK   12  A    between atoms: C23_31  and  C24_32
REMARK   13  A    between atoms: C23_31  and  N4_34
REMARK       I    between atoms: N4_34  and  C25_36
REMARK   14  A    between atoms: C25_36  and  O5_38
REMARK   15  A    between atoms: O5_38  and  C26_39
ROOT
HETATM    1  C5  UNL     1      33.337  32.168  11.844  1.00  0.00     0.178 C
ENDROOT
BRANCH   1   2
HETATM    2  C4  UNL     1      33.963  33.118  12.826  1.00  0.00     0.240 C
HETATM    3  N1  UNL     1      33.425  34.390  13.076  1.00  0.00    -0.355 N
ATOM      4  H1  UNL     1      32.584  34.650  12.560  1.00  0.00     0.162 HD
HETATM    5  O1  UNL     1      34.987  32.764  13.436  1.00  0.00    -0.271 OA
BRANCH   3   6
HETATM    6  C2  UNL     1      33.954  35.351  13.991  1.00  0.00     0.076 C
HETATM    7  C1  UNL     1      35.120  36.133  13.433  1.00  0.00     0.032 C
HETATM    8  C3  UNL     1      32.849  36.356  14.306  1.00  0.00     0.032 C
ENDBRANCH   3   6
ENDBRANCH   1   2
BRANCH   1   9
HETATM    9  C6  UNL     1      32.146  31.504  12.415  1.00  0.00     0.059 C
BRANCH   9  10
HETATM   10  C7  UNL     1      30.843  32.211  12.286  1.00  0.00     0.079 C
HETATM   11  C8  UNL     1      30.294  32.431  10.926  1.00  0.00     0.025 C
HETATM   12  C9  UNL     1      28.767  32.044  10.936  1.00  0.00     0.008 C
HETATM   13  C10 UNL     1      28.749  30.624  11.339  1.00  0.00     0.003 C
HETATM   14  C21 UNL     1      29.127  30.567  12.820  1.00  0.00     0.118 C
HETATM   15  N2  UNL     1      29.864  31.705  13.241  1.00  0.00    -0.417 N
ATOM     16  H2  UNL     1      29.717  32.141  14.151  1.00  0.00     0.153 HD
BRANCH  13  17
HETATM   17  C11 UNL     1      27.613  29.758  11.051  1.00  0.00     0.006 C
BRANCH  17  18
HETATM   18  C12 UNL     1      26.779  29.914   9.838  1.00  0.00     0.000 C
BRANCH  18  19
HETATM   19  C13 UNL     1      27.342  29.377   8.593  1.00  0.00     0.000 C
BRANCH  19  20
HETATM   20  C14 UNL     1      27.733  27.936   8.572  1.00  0.00     0.004 C
BRANCH  20  21
HETATM   21  C15 UNL     1      29.170  27.557   8.563  1.00  0.00    -0.014 C
HETATM   22  C16 UNL     1      29.425  26.914   9.952  1.00  0.00     0.004 C
HETATM   23  C17 UNL     1      30.676  26.099   9.826  1.00  0.00     0.000 C
HETATM   24  C18 UNL     1      31.813  27.045   9.473  1.00  0.00     0.000 C
HETATM   25  C19 UNL     1      31.335  28.472   9.436  1.00  0.00     0.000 C
HETATM   26  C20 UNL     1      30.168  28.660   8.461  1.00  0.00     0.004 C
ENDBRANCH  20  21
ENDBRANCH  19  20
ENDBRANCH  18  19
ENDBRANCH  17  18
ENDBRANCH  13  17
ENDBRANCH   9  10
ENDBRANCH   1   9
BRANCH   1  27
HETATM   27  N3  UNL     1      34.331  31.277  11.331  1.00  0.00    -0.346 N
HETATM   28  C22 UNL     1      34.346  30.820   9.990  1.00  0.00     0.248 C
HETATM   29  O2  UNL     1      33.472  31.169   9.173  1.00  0.00    -0.271 OA
ATOM     30  H3  UNL     1      35.066  30.956  11.961  1.00  0.00     0.163 HD
BRANCH  28  31
HETATM   31  C23 UNL     1      35.429  29.906   9.563  1.00  0.00     0.240 C
BRANCH  31  32
HETATM   32  C24 UNL     1      36.662  30.690   9.180  1.00  0.00     0.266 C
HETATM   33  O3  UNL     1      37.182  31.519   9.892  1.00  0.00    -0.304 OA
ENDBRANCH  31  32
BRANCH  31  34
HETATM   34  N4  UNL     1      35.057  29.069   8.461  1.00  0.00    -0.317 N
HETATM   35  C25 UNL     1      35.270  27.675   8.482  1.00  0.00     0.362 C
HETATM   36  O4  UNL     1      35.784  27.049   9.425  1.00  0.00    -0.238 OA
ATOM     37  H4  UNL     1      34.626  29.492   7.639  1.00  0.00     0.166 HD
BRANCH  35  38
HETATM   38  O5  UNL     1      34.878  26.945   7.370  1.00  0.00    -0.294 OA
BRANCH  38  39
HETATM   39  C26 UNL     1      35.643  26.768   6.211  1.00  0.00     0.061 C
HETATM   40  C27 UNL     1      35.442  25.301   5.791  1.00  0.00     0.046 C
HETATM   41  C28 UNL     1      37.117  27.012   6.397  1.00  0.00     0.046 C
HETATM   42  C29 UNL     1      35.071  27.630   5.081  1.00  0.00     0.046 C
ENDBRANCH  38  39
ENDBRANCH  35  38
ENDBRANCH  31  34
ENDBRANCH  28  31
ENDBRANCH   1  27
TORSDOF 15
ENDMDL