MODEL 4
REMARK VINA RESULT: -8.106216343      1.567      2.162
REMARK  15 active torsions:
REMARK  status: ('A' for Active; 'I' for Inactive)
REMARK    1  A    between atoms: C2_2  and  C3_3
REMARK    2  A    between atoms: C3_3  and  C4_4
REMARK    3  A    between atoms: C4_4  and  O1_5
REMARK    4  A    between atoms: C8_13  and  C9_14
REMARK    5  A    between atoms: C9_14  and  S1_15
REMARK    6  A    between atoms: S1_15  and  C10_16
REMARK    7  A    between atoms: C10_16  and  C11_17
REMARK    8  A    between atoms: C11_17  and  N2_18
REMARK       I    between atoms: N2_18  and  C12_20
REMARK    9  A    between atoms: C12_20  and  C13_22
REMARK   10  A    between atoms: C13_22  and  C14_23
REMARK   11  A    between atoms: C13_22  and  N3_30
REMARK   12  A    between atoms: C14_23  and  C15_24
REMARK       I    between atoms: N3_30  and  C21_32
REMARK   13  A    between atoms: C21_32  and  C22_34
REMARK   14  A    between atoms: C22_34  and  C24_36
REMARK   15  A    between atoms: C24_36  and  C25_37
ROOT
HETATM    1  N2  UNL     1      31.350  36.090  14.273  1.00  0.00    -0.359 N
ATOM      2  H2  UNL     1      31.341  35.651  15.194  1.00  0.00     0.162 HD
HETATM    3  C12 UNL     1      31.667  35.341  13.103  1.00  0.00     0.240 C
HETATM    4  O2  UNL     1      31.685  35.897  11.991  1.00  0.00    -0.271 OA
ENDROOT
BRANCH   3   5
HETATM    5  C13 UNL     1      31.978  33.863  13.255  1.00  0.00     0.177 C
BRANCH   5   6
HETATM    6  C14 UNL     1      33.237  33.599  12.519  1.00  0.00     0.039 C
BRANCH   6   7
HETATM    7  C15 UNL     1      34.484  33.788  13.330  1.00  0.00    -0.012 C
HETATM    8  C16 UNL     1      35.199  35.009  12.786  1.00  0.00     0.005 C
HETATM    9  C17 UNL     1      36.502  35.297  13.495  1.00  0.00     0.000 C
HETATM   10  C18 UNL     1      36.193  35.509  14.962  1.00  0.00     0.000 C
HETATM   11  C19 UNL     1      35.563  34.227  15.474  1.00  0.00     0.000 C
HETATM   12  C20 UNL     1      34.236  33.956  14.798  1.00  0.00     0.005 C
ENDBRANCH   6   7
ENDBRANCH   5   6
BRANCH   5  13
HETATM   13  N3  UNL     1      30.847  33.172  12.682  1.00  0.00    -0.347 N
HETATM   14  C21 UNL     1      30.533  31.820  12.902  1.00  0.00     0.222 C
HETATM   15  O3  UNL     1      31.260  31.133  13.647  1.00  0.00    -0.273 OA
ATOM     16  H3  UNL     1      30.229  33.706  12.070  1.00  0.00     0.163 HD
BRANCH  14  17
HETATM   17  C22 UNL     1      29.329  31.183  12.252  1.00  0.00     0.074 C
HETATM   18  C23 UNL     1      28.099  31.808  12.848  1.00  0.00     0.020 C
BRANCH  17  19
HETATM   19  C24 UNL     1      29.439  31.227  10.776  1.00  0.00     0.018 C
BRANCH  19  20
HETATM   20  C25 UNL     1      28.819  30.135   9.990  1.00  0.00    -0.014 C
HETATM   21  C26 UNL     1      27.404  30.283   9.585  1.00  0.00     0.005 C
HETATM   22  C27 UNL     1      27.179  29.355   8.388  1.00  0.00     0.000 C
HETATM   23  C28 UNL     1      28.076  28.147   8.422  1.00  0.00     0.000 C
HETATM   24  C29 UNL     1      28.366  27.716   9.842  1.00  0.00     0.000 C
HETATM   25  C30 UNL     1      28.984  28.782  10.674  1.00  0.00     0.005 C
ENDBRANCH  19  20
ENDBRANCH  17  19
ENDBRANCH  14  17
ENDBRANCH   5  13
ENDBRANCH   3   5
BRANCH   1  26
HETATM   26  C11 UNL     1      31.040  37.506  14.107  1.00  0.00     0.132 C
BRANCH  26  27
HETATM   27  C10 UNL     1      29.893  37.824  15.047  1.00  0.00     0.093 C
BRANCH  27  28
HETATM   28  S1  UNL     1      30.652  38.140  16.690  1.00  0.00    -0.167 SA
BRANCH  28  29
HETATM   29  C9  UNL     1      30.313  39.848  17.090  1.00  0.00     0.081 C
BRANCH  29  30
HETATM   30  C8  UNL     1      29.922  40.729  15.955  1.00  0.00     0.031 C
HETATM   31  C3  UNL     1      28.517  41.206  15.970  1.00  0.00    -0.012 C
HETATM   32  C5  UNL     1      28.376  42.456  16.817  1.00  0.00     0.039 C
HETATM   33  C6  UNL     1      29.389  43.481  16.445  1.00  0.00     0.233 C
HETATM   34  N1  UNL     1      30.715  42.914  16.604  1.00  0.00    -0.075 N
HETATM   35  C7  UNL     1      30.933  41.802  15.738  1.00  0.00     0.238 C
ATOM     36  H12 UNL     1      31.437  43.624  16.483  1.00  0.00     0.277 HD
ATOM     37  H11 UNL     1      30.896  42.665  17.577  1.00  0.00     0.277 HD
BRANCH  31  38
HETATM   38  C2  UNL     1      28.126  41.598  14.548  1.00  0.00     0.007 C
HETATM   39  C1  UNL     1      27.324  40.525  13.882  1.00  0.00     0.006 C
ENDBRANCH  31  38
BRANCH  31  40
HETATM   40  C4  UNL     1      27.570  40.156  16.472  1.00  0.00     0.174 C
BRANCH  40  41
HETATM   41  O1  UNL     1      26.877  40.570  17.596  1.00  0.00    -0.400 OA
ATOM     42  H1  UNL     1      26.070  40.084  17.720  1.00  0.00     0.209 HD
ENDBRANCH  40  41
ENDBRANCH  31  40
ENDBRANCH  29  30
ENDBRANCH  28  29
ENDBRANCH  27  28
ENDBRANCH  26  27
ENDBRANCH   1  26
TORSDOF 15
ENDMDL