MODEL 4
REMARK VINA RESULT: -7.687476611      1.450      1.886
REMARK  15 active torsions:
REMARK  status: ('A' for Active; 'I' for Inactive)
REMARK    1  A    between atoms: C2_2  and  O1_3
REMARK    2  A    between atoms: O1_3  and  C3_4
REMARK       I    between atoms: C3_4  and  N1_6
REMARK    3  A    between atoms: N1_6  and  C4_8
REMARK    4  A    between atoms: C4_8  and  C5_9
REMARK    5  A    between atoms: C5_9  and  C6_10
REMARK    6  A    between atoms: C6_10  and  C7_11
REMARK       I    between atoms: C7_11  and  N2_13
REMARK    7  A    between atoms: N2_13  and  C8_15
REMARK    8  A    between atoms: C8_15  and  C9_16
REMARK    9  A    between atoms: C8_15  and  C16_23
REMARK   10  A    between atoms: C9_16  and  C10_17
REMARK   11  A    between atoms: C18_28  and  C19_29
REMARK   12  A    between atoms: C19_29  and  C21_31
REMARK   13  A    between atoms: C23_33  and  O5_34
REMARK   14  A    between atoms: C24_36  and  C25_37
REMARK   15  A    between atoms: C25_37  and  C26_38
ROOT
HETATM    1  C8  UNL     1      31.807  32.786  11.871  1.00  0.00     0.098 C
ENDROOT
BRANCH   1   2
HETATM    2  N2  UNL     1      30.671  32.166  12.526  1.00  0.00    -0.356 N
HETATM    3  C7  UNL     1      29.387  32.180  11.924  1.00  0.00     0.217 C
HETATM    4  O3  UNL     1      29.264  32.747  10.812  1.00  0.00    -0.274 OA
ATOM      5  H2  UNL     1      30.798  31.713  13.431  1.00  0.00     0.162 HD
BRANCH   3   6
HETATM    6  C6  UNL     1      28.200  31.547  12.572  1.00  0.00     0.104 C
BRANCH   6   7
HETATM    7  C5  UNL     1      28.477  30.048  12.720  1.00  0.00     0.029 C
BRANCH   7   8
HETATM    8  C4  UNL     1      28.283  29.418  11.370  1.00  0.00     0.125 C
BRANCH   8   9
HETATM    9  N1  UNL     1      29.400  28.607  10.969  1.00  0.00    -0.337 N
HETATM   10  C3  UNL     1      29.358  27.631   9.944  1.00  0.00     0.360 C
HETATM   11  O2  UNL     1      28.291  27.441   9.329  1.00  0.00    -0.239 OA
ATOM     12  H1  UNL     1      30.285  28.745  11.456  1.00  0.00     0.164 HD
BRANCH  10  13
HETATM   13  O1  UNL     1      30.467  26.883   9.609  1.00  0.00    -0.304 OA
BRANCH  13  14
HETATM   14  C2  UNL     1      30.532  25.478   9.714  1.00  0.00     0.176 C
HETATM   15  C1  UNL     1      30.293  25.103  11.162  1.00  0.00     0.034 C
ENDBRANCH  13  14
ENDBRANCH  10  13
ENDBRANCH   8   9
ENDBRANCH   7   8
ENDBRANCH   6   7
ENDBRANCH   3   6
ENDBRANCH   1   2
BRANCH   1  16
HETATM   16  C9  UNL     1      32.268  33.877  12.796  1.00  0.00     0.030 C
BRANCH  16  17
HETATM   17  C10 UNL     1      31.390  35.088  12.826  1.00  0.00    -0.013 C
HETATM   18  C11 UNL     1      30.684  35.229  14.181  1.00  0.00     0.005 C
HETATM   19  C12 UNL     1      30.484  36.705  14.487  1.00  0.00     0.000 C
HETATM   20  C13 UNL     1      31.813  37.296  14.945  1.00  0.00     0.000 C
HETATM   21  C14 UNL     1      32.883  36.679  14.078  1.00  0.00     0.000 C
HETATM   22  C15 UNL     1      32.317  36.302  12.728  1.00  0.00     0.005 C
ENDBRANCH  16  17
ENDBRANCH   1  16
BRANCH   1  23
HETATM   23  C16 UNL     1      32.875  31.835  11.481  1.00  0.00     0.107 C
HETATM   24  C17 UNL     1      32.604  31.138  10.198  1.00  0.00     0.224 C
HETATM   25  O4  UNL     1      31.567  30.452   9.970  1.00  0.00    -0.273 OA
HETATM   26  N3  UNL     1      33.525  31.186   9.077  1.00  0.00    -0.353 N
HETATM   27  C18 UNL     1      34.932  31.419   9.286  1.00  0.00     0.117 C
ATOM     28  H3  UNL     1      33.173  31.053   8.130  1.00  0.00     0.163 HD
HETATM   29  C23 UNL     1      35.101  31.356  10.789  1.00  0.00     0.146 C
HETATM   30  C24 UNL     1      34.239  32.490  11.308  1.00  0.00     0.032 C
BRANCH  27  31
HETATM   31  C19 UNL     1      35.851  30.623   8.489  1.00  0.00     0.006 C
HETATM   32  C20 UNL     1      35.193  29.576   7.609  1.00  0.00     0.012 C
BRANCH  31  33
HETATM   33  C21 UNL     1      36.853  31.326   7.630  1.00  0.00     0.002 C
HETATM   34  C22 UNL     1      37.076  32.782   7.947  1.00  0.00     0.005 C
ENDBRANCH  31  33
ENDBRANCH  27  31
BRANCH  29  35
HETATM   35  O5  UNL     1      36.371  31.314  11.225  1.00  0.00    -0.393 OA
ATOM     36  H5  UNL     1      36.779  32.159  11.376  1.00  0.00     0.210 HD
ENDBRANCH  29  35
BRANCH  30  37
HETATM   37  C25 UNL     1      34.751  33.106  12.535  1.00  0.00     0.012 C
BRANCH  37  38
HETATM   38  C26 UNL     1      35.293  34.493  12.414  1.00  0.00    -0.014 C
HETATM   39  C27 UNL     1      35.894  34.960  13.756  1.00  0.00     0.005 C
HETATM   40  C28 UNL     1      36.712  36.155  13.300  1.00  0.00     0.000 C
HETATM   41  C29 UNL     1      37.110  35.879  11.877  1.00  0.00     0.000 C
HETATM   42  C30 UNL     1      36.622  34.470  11.618  1.00  0.00     0.005 C
ENDBRANCH  37  38
ENDBRANCH  30  37
ENDBRANCH   1  23
TORSDOF 15
ENDMDL