MODEL 2
REMARK VINA RESULT: -5.906446622      0.953      1.307
REMARK  3 active torsions:
REMARK  status: ('A' for Active; 'I' for Inactive)
REMARK    1  A    between atoms: N1_1  and  N2_4
REMARK    2  A    between atoms: N2_4  and  N3_5
REMARK    3  A    between atoms: N3_5  and  C1_7
ROOT
HETATM    1  C1  UNL     1      25.233  25.364  13.287  1.00  0.00     0.103 A
HETATM    2  C2  UNL     1      24.717  25.920  14.440  1.00  0.00     0.067 A
HETATM    3  C3  UNL     1      24.358  25.136  15.534  1.00  0.00     0.063 A
HETATM    4  N4  UNL     1      23.845  25.434  16.742  1.00  0.00    -0.331 N
ATOM      5  H4  UNL     1      23.611  26.362  17.095  1.00  0.00     0.168 HD
HETATM    6  C4  UNL     1      23.700  24.257  17.398  1.00  0.00     0.176 A
HETATM    7  S1  UNL     1      23.112  24.058  18.920  1.00  0.00    -0.041 SA
HETATM    8  N5  UNL     1      24.107  23.245  16.631  1.00  0.00    -0.331 N
ATOM      9  H5  UNL     1      24.101  22.259  16.891  1.00  0.00     0.168 HD
HETATM   10  C5  UNL     1      24.531  23.754  15.444  1.00  0.00     0.064 A
HETATM   11  C6  UNL     1      25.047  23.218  14.285  1.00  0.00     0.076 A
HETATM   12  C7  UNL     1      25.405  24.002  13.195  1.00  0.00     0.147 A
HETATM   13  F1  UNL     1      25.909  23.405  12.083  1.00  0.00    -0.204 F
ENDROOT
BRANCH   1  14
HETATM   14  N3  UNL     1      25.608  26.143  12.155  1.00  0.00    -0.214 N
ATOM     15  H3  UNL     1      24.895  26.690  11.673  1.00  0.00     0.204 HD
BRANCH  14  16
HETATM   16  N2  UNL     1      26.767  26.174  11.743  1.00  0.00    -0.243 NA
BRANCH  16  17
HETATM   17  N1  UNL     1      27.829  26.177  11.082  1.00  0.00    -0.260 N
ATOM     18  H12 UNL     1      27.305  26.198  10.208  1.00  0.00     0.193 HD
ATOM     19  H11 UNL     1      28.790  26.176  10.742  1.00  0.00     0.193 HD
ENDBRANCH  16  17
ENDBRANCH  14  16
ENDBRANCH   1  14
TORSDOF 3
ENDMDL