MODEL 3
REMARK VINA RESULT: -6.181974079      2.032      2.635
REMARK  2 active torsions:
REMARK  status: ('A' for Active; 'I' for Inactive)
REMARK    1  A    between atoms: N1_2  and  C2_4
REMARK    2  A    between atoms: C5_11  and  C6_12
ROOT
HETATM    1  C2  UNL     1      23.112  23.478  17.703  1.00  0.00     0.069 A
HETATM    2  C3  UNL     1      23.538  24.780  17.491  1.00  0.00     0.064 A
HETATM    3  C4  UNL     1      24.275  25.169  16.401  1.00  0.00     0.062 A
HETATM    4  N2  UNL     1      24.808  26.332  15.955  1.00  0.00    -0.300 N
ATOM      5  H2  UNL     1      24.730  27.230  16.432  1.00  0.00     0.187 HD
HETATM    6  N3  UNL     1      25.442  26.136  14.813  1.00  0.00    -0.303 N
ATOM      7  H3  UNL     1      25.926  26.857  14.278  1.00  0.00     0.186 HD
HETATM    8  C5  UNL     1      25.349  24.841  14.465  1.00  0.00     0.046 A
HETATM    9  C10 UNL     1      24.622  24.235  15.456  1.00  0.00     0.020 A
HETATM   10  C11 UNL     1      24.227  22.942  15.619  1.00  0.00     0.060 A
HETATM   11  C12 UNL     1      23.476  22.558  16.735  1.00  0.00     0.143 A
HETATM   12  F1  UNL     1      23.097  21.261  16.870  1.00  0.00    -0.204 F
ENDROOT
BRANCH   8  13
HETATM   13  C6  UNL     1      25.915  24.258  13.284  1.00  0.00    -0.006 C
HETATM   14  C7  UNL     1      26.156  25.350  12.258  1.00  0.00     0.021 C
HETATM   15  C8  UNL     1      25.171  23.175  12.604  1.00  0.00     0.021 C
HETATM   16  C9  UNL     1      27.314  23.698  13.596  1.00  0.00     0.021 C
ENDBRANCH   8  13
BRANCH   1  17
HETATM   17  N1  UNL     1      22.355  23.118  18.840  1.00  0.00    -0.392 N
HETATM   18  C1  UNL     1      22.837  23.275  20.172  1.00  0.00     0.146 C
ATOM     19  H1  UNL     1      21.422  22.729  18.702  1.00  0.00     0.159 HD
ENDBRANCH   1  17
TORSDOF 2
ENDMDL