MODEL 1
REMARK VINA RESULT: -5.146975511      0.000      0.000
REMARK  0 active torsions:
REMARK  status: ('A' for Active; 'I' for Inactive)
ROOT
HETATM    1  C1  UNL     1      24.350  22.210  15.990  1.00  0.00     0.070 C
HETATM    2  C2  UNL     1      24.708  23.218  14.930  1.00  0.00     0.025 A
HETATM    3  N1  UNL     1      25.185  22.965  13.700  1.00  0.00    -0.343 N
ATOM      4  H1  UNL     1      25.370  22.037  13.319  1.00  0.00     0.167 HD
HETATM    5  C3  UNL     1      25.381  24.134  13.045  1.00  0.00     0.134 A
HETATM    6  N2  UNL     1      25.789  24.687  11.903  1.00  0.00    -0.285 N
ATOM      7  H2  UNL     1      26.117  24.153  11.099  1.00  0.00     0.188 HD
HETATM    8  N3  UNL     1      25.719  26.004  11.933  1.00  0.00    -0.303 N
ATOM      9  H3  UNL     1      25.975  26.647  11.183  1.00  0.00     0.186 HD
HETATM   10  C4  UNL     1      25.245  26.330  13.147  1.00  0.00     0.037 A
HETATM   11  C5  UNL     1      24.999  27.695  13.635  1.00  0.00     0.070 C
HETATM   12  C6  UNL     1      25.023  25.172  13.866  1.00  0.00     0.052 A
HETATM   13  C7  UNL     1      24.606  24.585  15.039  1.00  0.00     0.049 A
HETATM   14 BR1  UNL     1      23.989  25.549  16.552  1.00  0.00    -0.048 Br
ENDROOT
TORSDOF 0
ENDMDL