MODEL 3
REMARK VINA RESULT: -6.272766643      2.222      3.344
REMARK  3 active torsions:
REMARK  status: ('A' for Active; 'I' for Inactive)
REMARK    1  A    between atoms: C2_2  and  O1_4
REMARK    2  A    between atoms: C2_2  and  C4_6
REMARK    3  A    between atoms: C6_10  and  C7_11
ROOT
HETATM    1  C4  UNL     1      25.602  24.934  13.824  1.00  0.00     0.116 A
HETATM    2  N1  UNL     1      26.263  23.972  14.499  1.00  0.00    -0.351 N
ATOM      3  H1  UNL     1      27.142  23.547  14.204  1.00  0.00     0.166 HD
HETATM    4  C5  UNL     1      25.593  23.657  15.616  1.00  0.00     0.115 A
HETATM    5  C6  UNL     1      24.467  24.432  15.680  1.00  0.00     0.030 A
HETATM    6  N2  UNL     1      24.507  25.205  14.556  1.00  0.00    -0.345 N
ATOM      7  H2  UNL     1      23.801  25.896  14.304  1.00  0.00     0.167 HD
ENDROOT
BRANCH   5   8
HETATM    8  C7  UNL     1      23.453  24.423  16.731  1.00  0.00     0.037 C
HETATM    9  C8  UNL     1      22.638  23.171  16.831  1.00  0.00     0.011 C
HETATM   10  C9  UNL     1      22.605  22.535  18.188  1.00  0.00     0.001 C
HETATM   11  C10 UNL     1      22.341  23.492  19.315  1.00  0.00     0.000 C
HETATM   12  C11 UNL     1      22.959  24.834  19.122  1.00  0.00     0.001 C
HETATM   13  C12 UNL     1      24.063  24.815  18.076  1.00  0.00     0.011 C
ENDBRANCH   5   8
BRANCH   1  14
HETATM   14  C2  UNL     1      25.998  25.585  12.541  1.00  0.00     0.108 C
HETATM   15  C1  UNL     1      25.338  26.964  12.528  1.00  0.00     0.054 C
HETATM   16  C3  UNL     1      27.472  25.667  12.339  1.00  0.00     0.054 C
BRANCH  14  17
HETATM   17  O1  UNL     1      25.412  24.891  11.451  1.00  0.00    -0.383 OA
ATOM     18  H1  UNL     1      24.805  24.279  11.850  1.00  0.00     0.211 HD
ENDBRANCH  14  17
ENDBRANCH   1  14
TORSDOF 3
ENDMDL