MODEL 1
REMARK VINA RESULT: -7.675800649      0.000      0.000
REMARK  1 active torsions:
REMARK  status: ('A' for Active; 'I' for Inactive)
REMARK    1  A    between atoms: C4_7  and  C5_8
ROOT
HETATM    1  F1  UNL     1      25.568  28.335  11.905  1.00  0.00    -0.186 F
HETATM    2  C1  UNL     1      25.378  27.154  12.577  1.00  0.00     0.190 A
HETATM    3  C2  UNL     1      24.904  27.130  13.878  1.00  0.00     0.093 A
HETATM    4  C3  UNL     1      24.714  25.929  14.553  1.00  0.00     0.066 A
HETATM    5  N1  UNL     1      24.280  25.649  15.777  1.00  0.00    -0.344 N
ATOM      6  H1  UNL     1      23.996  26.342  16.469  1.00  0.00     0.167 HD
HETATM    7  C4  UNL     1      24.271  24.317  15.973  1.00  0.00     0.086 A
HETATM    8  N2  UNL     1      24.717  23.779  14.817  1.00  0.00    -0.343 N
ATOM      9  H2  UNL     1      24.826  22.780  14.644  1.00  0.00     0.167 HD
HETATM   10  C11 UNL     1      24.998  24.749  13.925  1.00  0.00     0.076 A
HETATM   11  C12 UNL     1      25.468  24.799  12.631  1.00  0.00     0.122 A
HETATM   12  N3  UNL     1      25.650  25.974  11.981  1.00  0.00    -0.341 N
ATOM     13  H3  UNL     1      26.000  25.966  11.023  1.00  0.00     0.167 HD
ENDROOT
BRANCH   7  14
HETATM   14  C5  UNL     1      23.854  23.607  17.207  1.00  0.00     0.053 C
HETATM   15  C6  UNL     1      23.401  24.647  18.241  1.00  0.00     0.012 C
HETATM   16  C7  UNL     1      23.093  23.795  19.481  1.00  0.00     0.001 C
HETATM   17  C8  UNL     1      21.767  23.155  19.206  1.00  0.00     0.000 C
HETATM   18  C9  UNL     1      21.563  22.738  17.790  1.00  0.00     0.001 C
HETATM   19  C10 UNL     1      22.792  22.581  16.972  1.00  0.00     0.012 C
ENDBRANCH   7  14
TORSDOF 1
ENDMDL