MODEL 1
REMARK VINA RESULT: -6.143985326      0.000      0.000
REMARK  1 active torsions:
REMARK  status: ('A' for Active; 'I' for Inactive)
REMARK    1  A    between atoms: C4_9  and  C5_10
ROOT
HETATM    1  C1  UNL     1      22.914  24.044  19.164  1.00  0.00     0.070 C
HETATM    2  C2  UNL     1      23.370  24.253  17.778  1.00  0.00     0.034 A
HETATM    3  N1  UNL     1      24.118  25.252  17.369  1.00  0.00    -0.338 N
ATOM      4  H1  UNL     1      24.436  26.038  17.936  1.00  0.00     0.168 HD
HETATM    5  C3  UNL     1      24.385  25.056  16.096  1.00  0.00     0.156 A
HETATM    6  S1  UNL     1      25.357  26.198  15.075  1.00  0.00    -0.013 SA
HETATM    7  N2  UNL     1      23.808  23.929  15.702  1.00  0.00    -0.334 N
ATOM      8  H2  UNL     1      23.853  23.529  14.765  1.00  0.00     0.168 HD
HETATM    9  C4  UNL     1      23.143  23.397  16.767  1.00  0.00     0.061 A
ENDROOT
BRANCH   9  10
HETATM   10  C5  UNL     1      22.290  22.235  16.588  1.00  0.00    -0.018 C
HETATM   11  C6  UNL     1      22.983  20.971  16.989  1.00  0.00     0.039 C
HETATM   12  C7  UNL     1      22.352  19.779  16.308  1.00  0.00     0.004 C
HETATM   13  C8  UNL     1      20.859  19.758  16.640  1.00  0.00     0.004 C
HETATM   14  C9  UNL     1      20.287  21.024  16.063  1.00  0.00     0.042 C
HETATM   15  C10 UNL     1      20.872  22.249  16.821  1.00  0.00     0.201 C
HETATM   16  F1  UNL     1      20.400  22.082  18.099  1.00  0.00    -0.245 F
ENDBRANCH   9  10
TORSDOF 1
ENDMDL