MODEL 3
REMARK VINA RESULT: -6.863280323      3.350      4.808
REMARK  1 active torsions:
REMARK  status: ('A' for Active; 'I' for Inactive)
REMARK    1  A    between atoms: C3_6  and  C4_7
ROOT
HETATM    1  N1  UNL     1      26.439  24.776  11.357  1.00  0.00    -0.378 N
ATOM      2  H11 UNL     1      26.787  24.268  10.543  1.00  0.00     0.158 HD
ATOM      3  H12 UNL     1      26.593  25.762  11.150  1.00  0.00     0.158 HD
HETATM    4  C1  UNL     1      25.931  24.220  12.380  1.00  0.00     0.165 A
HETATM    5  C2  UNL     1      25.455  24.913  13.491  1.00  0.00     0.085 A
HETATM    6  C3  UNL     1      24.976  23.983  14.406  1.00  0.00     0.043 A
HETATM    7  N2  UNL     1      25.183  22.795  13.812  1.00  0.00    -0.263 N
ATOM      8  H2  UNL     1      24.943  21.889  14.215  1.00  0.00     0.194 HD
HETATM    9  O1  UNL     1      25.736  22.971  12.642  1.00  0.00    -0.220 OA
ENDROOT
BRANCH   6  10
HETATM   10  C4  UNL     1      24.368  24.206  15.741  1.00  0.00     0.071 C
HETATM   11  C5  UNL     1      23.906  22.921  16.388  1.00  0.00     0.013 C
HETATM   12  C6  UNL     1      22.457  22.935  16.755  1.00  0.00     0.001 C
HETATM   13  C7  UNL     1      22.191  22.871  18.219  1.00  0.00     0.000 C
HETATM   14  C8  UNL     1      23.006  23.762  19.065  1.00  0.00     0.000 C
HETATM   15  C9  UNL     1      23.558  24.972  18.385  1.00  0.00     0.003 C
HETATM   16  C10 UNL     1      25.024  24.865  18.076  1.00  0.00     0.038 C
HETATM   17  C11 UNL     1      25.247  25.034  16.606  1.00  0.00     0.180 C
HETATM   18  F1  UNL     1      25.004  26.384  16.315  1.00  0.00    -0.249 F
ENDBRANCH   6  10
TORSDOF 1
ENDMDL