MODEL 3
REMARK VINA RESULT: -5.745945252      1.733      3.132
REMARK  3 active torsions:
REMARK  status: ('A' for Active; 'I' for Inactive)
REMARK    1  A    between atoms: C2_2  and  N1_4
REMARK       I    between atoms: C4_6  and  N2_7
REMARK       I    between atoms: C4_6  and  N4_17
REMARK    2  A    between atoms: N3_9  and  C5_11
REMARK    3  A    between atoms: N4_17  and  N5_19
ROOT
HETATM    1  N1  UNL     1      23.232  22.822  18.302  1.00  0.00    -0.220 N
ATOM      2  H1  UNL     1      24.158  22.514  18.598  1.00  0.00     0.178 HD
HETATM    3  C4  UNL     1      22.854  22.472  17.138  1.00  0.00     0.706 C
HETATM    4  N2  UNL     1      23.723  21.695  16.338  1.00  0.00    -0.135 N
ATOM      5  H2  UNL     1      23.636  20.679  16.332  1.00  0.00     0.205 HD
HETATM    6  N3  UNL     1      24.600  22.252  15.638  1.00  0.00    -0.317 N
ATOM      7  H3  UNL     1      25.227  21.692  15.060  1.00  0.00     0.181 HD
HETATM    8  N4  UNL     1      21.563  22.877  16.680  1.00  0.00    -0.138 N
ATOM      9  H4  UNL     1      21.283  23.847  16.828  1.00  0.00     0.205 HD
ENDROOT
BRANCH   1  10
HETATM   10  C2  UNL     1      22.483  23.603  19.235  1.00  0.00     0.091 C
HETATM   11  C1  UNL     1      22.917  25.061  19.049  1.00  0.00     0.032 C
HETATM   12  C3  UNL     1      22.838  23.206  20.629  1.00  0.00     0.032 C
ENDBRANCH   1  10
BRANCH   8  13
HETATM   13  N5  UNL     1      20.673  22.030  16.047  1.00  0.00    -0.331 N
ATOM     14  H52 UNL     1      20.886  21.033  16.068  1.00  0.00     0.177 HD
ATOM     15  H51 UNL     1      19.829  22.350  15.570  1.00  0.00     0.177 HD
ENDBRANCH   8  13
BRANCH   6  16
HETATM   16  C5  UNL     1      24.714  23.688  15.654  1.00  0.00     0.100 C
HETATM   17  C6  UNL     1      25.857  24.152  16.505  1.00  0.00     0.026 C
HETATM   18  C7  UNL     1      26.961  24.804  15.716  1.00  0.00     0.002 C
HETATM   19  C8  UNL     1      27.230  23.894  14.514  1.00  0.00     0.000 C
HETATM   20  C9  UNL     1      26.084  24.086  13.578  1.00  0.00     0.002 C
HETATM   21  C10 UNL     1      24.749  24.199  14.246  1.00  0.00     0.026 C
ENDBRANCH   6  16
TORSDOF 3
ENDMDL