MODEL 3
REMARK VINA RESULT: -6.796112851      2.967      3.865
REMARK  2 active torsions:
REMARK  status: ('A' for Active; 'I' for Inactive)
REMARK    1  A    between atoms: C2_5  and  C3_6
REMARK    2  A    between atoms: C13_17  and  O1_18
ROOT
HETATM    1  N1  UNL     1      24.954  25.989  17.593  1.00  0.00    -0.399 N
ATOM      2  H11 UNL     1      25.042  26.643  18.372  1.00  0.00     0.156 HD
ATOM      3  H12 UNL     1      25.497  26.086  16.735  1.00  0.00     0.156 HD
HETATM    4  C1  UNL     1      24.132  25.017  17.581  1.00  0.00     0.049 A
HETATM    5  C2  UNL     1      24.009  24.095  16.483  1.00  0.00     0.028 A
HETATM    6  C10 UNL     1      23.164  23.023  16.646  1.00  0.00     0.016 A
HETATM    7  C11 UNL     1      22.432  22.863  17.880  1.00  0.00    -0.000 A
HETATM    8  C12 UNL     1      22.502  23.695  18.889  1.00  0.00     0.011 A
HETATM    9  C13 UNL     1      23.345  24.877  18.822  1.00  0.00     0.191 A
ENDROOT
BRANCH   5  10
HETATM   10  C3  UNL     1      24.730  24.179  15.239  1.00  0.00     0.131 C
HETATM   11  F1  UNL     1      25.355  22.887  14.952  1.00  0.00    -0.205 F
HETATM   12  C4  UNL     1      24.986  25.035  14.336  1.00  0.00    -0.040 C
HETATM   13  C5  UNL     1      24.732  26.421  13.979  1.00  0.00     0.037 C
HETATM   14  C9  UNL     1      25.986  24.456  13.234  1.00  0.00     0.037 C
HETATM   15  C6  UNL     1      26.000  27.270  14.134  1.00  0.00     0.004 C
HETATM   16  C7  UNL     1      27.143  26.613  13.379  1.00  0.00     0.001 C
HETATM   17  C8  UNL     1      27.268  25.147  13.627  1.00  0.00     0.004 C
ENDBRANCH   5  10
BRANCH   9  18
HETATM   18  O1  UNL     1      22.583  26.036  19.047  1.00  0.00    -0.386 OA
ATOM     19  H1  UNL     1      21.977  26.175  18.329  1.00  0.00     0.210 HD
ENDBRANCH   9  18
TORSDOF 2
ENDMDL