MODEL 1
REMARK VINA RESULT: -5.982275245      0.000      0.000
REMARK  2 active torsions:
REMARK  status: ('A' for Active; 'I' for Inactive)
REMARK    1  A    between atoms: C2_2  and  C6_11
REMARK    2  A    between atoms: C4_6  and  O1_7
ROOT
HETATM    1  C1  UNL     1      24.955  22.681  15.181  1.00  0.00     0.046 C
HETATM    2  C2  UNL     1      24.629  24.116  15.236  1.00  0.00    -0.046 C
HETATM    3  C3  UNL     1      25.072  24.914  14.291  1.00  0.00     0.078 A
HETATM    4  N1  UNL     1      25.864  24.617  13.148  1.00  0.00    -0.331 N
ATOM      5  H1  UNL     1      26.184  23.670  12.951  1.00  0.00     0.168 HD
HETATM    6  C4  UNL     1      26.179  25.673  12.321  1.00  0.00     0.147 A
HETATM    7  C5  UNL     1      25.742  26.866  12.627  1.00  0.00     0.107 A
HETATM    8  S1  UNL     1      24.809  26.692  14.139  1.00  0.00    -0.080 SA
ENDROOT
BRANCH   2   9
HETATM    9  C6  UNL     1      23.815  24.677  16.329  1.00  0.00     0.017 C
HETATM   10  C7  UNL     1      22.870  23.663  16.926  1.00  0.00     0.009 C
HETATM   11  C8  UNL     1      22.998  23.570  18.430  1.00  0.00     0.001 C
HETATM   12  C9  UNL     1      22.800  24.928  19.025  1.00  0.00     0.000 C
HETATM   13  C10 UNL     1      23.870  25.844  18.490  1.00  0.00     0.001 C
HETATM   14  C11 UNL     1      24.735  25.162  17.457  1.00  0.00     0.009 C
ENDBRANCH   2   9
BRANCH   6  15
HETATM   15  O1  UNL     1      26.962  25.518  11.146  1.00  0.00    -0.346 OA
ATOM     16  H1  UNL     1      27.812  25.929  11.040  1.00  0.00     0.219 HD
ENDBRANCH   6  15
TORSDOF 2
ENDMDL