MODEL 1
REMARK VINA RESULT: -4.608268967      0.000      0.000
REMARK  0 active torsions:
REMARK  status: ('A' for Active; 'I' for Inactive)
ROOT
HETATM    1  C1  UNL     1      26.005   5.564   6.261  1.00  0.00     0.011 C
HETATM    2  C2  UNL     1      25.405   5.598   4.866  1.00  0.00     0.009 C
HETATM    3  C3  UNL     1      26.018   4.495   4.033  1.00  0.00     0.237 C
HETATM    4  N1  UNL     1      26.788   5.159   2.984  1.00  0.00    -0.071 N
ATOM      5  H11 UNL     1      26.281   5.328   2.115  1.00  0.00     0.277 HD
ATOM      6  H12 UNL     1      27.519   4.591   2.556  1.00  0.00     0.277 HD
HETATM    7  C4  UNL     1      27.249   6.337   3.663  1.00  0.00     0.182 C
HETATM    8  C5  UNL     1      27.951   7.318   2.778  1.00  0.00     0.040 C
HETATM    9  C6  UNL     1      25.945   6.881   4.220  1.00  0.00     0.038 C
ENDROOT
TORSDOF 0
ENDMDL