MODEL 4
REMARK VINA RESULT: -4.677658624      1.482      2.869
REMARK  0 active torsions:
REMARK  status: ('A' for Active; 'I' for Inactive)
ROOT
HETATM    1  C1  UNL     1      26.287   4.523   3.667  1.00  0.00     0.002 C
HETATM    2  C2  UNL     1      26.009   4.823   5.128  1.00  0.00     0.008 C
HETATM    3  C3  UNL     1      25.626   6.270   5.106  1.00  0.00     0.042 C
HETATM    4  C4  UNL     1      26.412   7.039   6.150  1.00  0.00     0.239 C
HETATM    5  N1  UNL     1      27.423   7.265   5.149  1.00  0.00    -0.070 N
ATOM      6  H11 UNL     1      28.317   6.780   5.231  1.00  0.00     0.277 HD
ATOM      7  H12 UNL     1      27.893   8.170   5.117  1.00  0.00     0.277 HD
HETATM    8  C5  UNL     1      26.519   6.900   4.061  1.00  0.00     0.191 C
HETATM    9  C6  UNL     1      26.996   5.765   3.198  1.00  0.00     0.033 C
ENDROOT
TORSDOF 0
ENDMDL