MODEL 4
REMARK VINA RESULT: -3.082385551      1.603      1.603
REMARK  1 active torsions:
REMARK  status: ('A' for Active; 'I' for Inactive)
REMARK    1  A    between atoms: C1_2  and  C2_4
ROOT
HETATM    1  O1  UNL     1      26.841   7.125   4.074  1.00  0.00    -0.283 OA
HETATM    2  C1  UNL     1      26.444   6.014   3.764  1.00  0.00     0.210 C
HETATM    3  S1  UNL     1      27.243   5.032   2.500  1.00  0.00    -0.011 SA
ENDROOT
BRANCH   2   4
HETATM    4  C2  UNL     1      25.252   5.517   4.494  1.00  0.00     0.206 C
HETATM    5 CL1  UNL     1      25.514   5.408   6.233  1.00  0.00    -0.122 Cl
ENDBRANCH   2   4
TORSDOF 1
ENDMDL