MODEL 3
REMARK VINA RESULT: -3.445517050      1.633      1.773
REMARK  1 active torsions:
REMARK  status: ('A' for Active; 'I' for Inactive)
REMARK    1  A    between atoms: O1_2  and  C2_3
ROOT
HETATM    1  C2  UNL     1      26.735   6.209   4.191  1.00  0.00     0.149 C
HETATM    2 CL1  UNL     1      27.366   7.466   5.231  1.00  0.00    -0.056 Cl
HETATM    3  C3  UNL     1      25.865   5.354   4.679  1.00  0.00     0.134 C
HETATM    4 CL2  UNL     1      25.298   5.409   6.334  1.00  0.00    -0.093 Cl
ENDROOT
BRANCH   1   5
HETATM    5  O1  UNL     1      27.149   6.131   2.897  1.00  0.00    -0.344 OA
HETATM    6  C1  UNL     1      27.564   4.932   2.259  1.00  0.00     0.211 C
ENDBRANCH   1   5
TORSDOF 1
ENDMDL