MODEL 2
REMARK VINA RESULT: -4.534649475      1.794      3.404
REMARK  0 active torsions:
REMARK  status: ('A' for Active; 'I' for Inactive)
ROOT
HETATM    1  C1  UNL     1      27.891   7.518   4.232  1.00  0.00     0.012 C
HETATM    2  C2  UNL     1      26.629   6.814   4.556  1.00  0.00     0.013 C
HETATM    3  C3  UNL     1      26.426   6.619   6.066  1.00  0.00     0.034 C
HETATM    4  C4  UNL     1      25.303   5.602   6.036  1.00  0.00     0.233 C
HETATM    5  N1  UNL     1      25.424   4.876   4.796  1.00  0.00    -0.071 N
ATOM      6  H11 UNL     1      24.593   4.946   4.209  1.00  0.00     0.277 HD
ATOM      7  H12 UNL     1      25.409   3.864   4.924  1.00  0.00     0.277 HD
HETATM    8  C5  UNL     1      26.626   5.348   4.137  1.00  0.00     0.185 C
HETATM    9  C6  UNL     1      26.607   5.168   2.658  1.00  0.00     0.040 C
ENDROOT
TORSDOF 0
ENDMDL