MODEL 2
REMARK VINA RESULT: -4.654008766      0.180      2.468
REMARK  0 active torsions:
REMARK  status: ('A' for Active; 'I' for Inactive)
ROOT
HETATM    1  C1  UNL     1      27.066   6.145   3.609  1.00  0.00     0.035 C
HETATM    2  C2  UNL     1      26.469   4.728   3.607  1.00  0.00     0.035 C
HETATM    3  C3  UNL     1      25.442   4.874   4.713  1.00  0.00     0.186 C
HETATM    4  C4  UNL     1      26.114   5.293   5.983  1.00  0.00     0.035 C
HETATM    5  C5  UNL     1      26.351   6.805   5.833  1.00  0.00     0.035 C
HETATM    6  C6  UNL     1      26.051   6.952   4.346  1.00  0.00     0.186 C
HETATM    7  N1  UNL     1      24.820   6.142   4.287  1.00  0.00    -0.067 N
ATOM      8  H11 UNL     1      24.015   6.472   4.820  1.00  0.00     0.278 HD
ATOM      9  H12 UNL     1      24.302   6.139   3.409  1.00  0.00     0.278 HD
ENDROOT
TORSDOF 0
ENDMDL