MODEL 1
REMARK VINA RESULT: -4.567666099      0.000      0.000
REMARK  0 active torsions:
REMARK  status: ('A' for Active; 'I' for Inactive)
ROOT
HETATM    1  C1  UNL     1      26.137   6.774   6.236  1.00  0.00     0.003 C
HETATM    2  C2  UNL     1      27.204   7.253   5.307  1.00  0.00     0.027 C
HETATM    3  C3  UNL     1      27.012   6.905   3.882  1.00  0.00     0.232 C
HETATM    4  N1  UNL     1      26.397   5.655   3.615  1.00  0.00    -0.075 N
ATOM      5  H11 UNL     1      27.084   4.902   3.644  1.00  0.00     0.277 HD
ATOM      6  H12 UNL     1      26.117   5.592   2.636  1.00  0.00     0.277 HD
HETATM    7  C4  UNL     1      25.275   5.360   4.489  1.00  0.00     0.232 C
HETATM    8  C5  UNL     1      25.879   5.302   5.898  1.00  0.00     0.027 C
ENDROOT
TORSDOF 0
ENDMDL