MODEL 4
REMARK VINA RESULT: -4.315907311      1.311      2.046
REMARK  0 active torsions:
REMARK  status: ('A' for Active; 'I' for Inactive)
ROOT
HETATM    1  C1  UNL     1      27.588   7.686   5.241  1.00  0.00     0.012 C
HETATM    2  C2  UNL     1      26.650   6.850   4.401  1.00  0.00     0.012 C
HETATM    3  C3  UNL     1      27.389   6.386   3.148  1.00  0.00     0.237 C
HETATM    4  N1  UNL     1      26.593   5.232   2.731  1.00  0.00    -0.074 N
ATOM      5  H11 UNL     1      27.051   4.644   2.034  1.00  0.00     0.277 HD
ATOM      6  H12 UNL     1      25.780   5.474   2.164  1.00  0.00     0.277 HD
HETATM    7  C4  UNL     1      26.266   4.540   3.958  1.00  0.00     0.237 C
HETATM    8  C5  UNL     1      26.465   5.514   5.088  1.00  0.00     0.012 C
HETATM    9  C6  UNL     1      25.307   5.474   6.019  1.00  0.00     0.012 C
ENDROOT
TORSDOF 0
ENDMDL