MODEL 2
REMARK VINA RESULT: -4.133037407      2.382      3.192
REMARK  0 active torsions:
REMARK  status: ('A' for Active; 'I' for Inactive)
ROOT
HETATM    1  C1  UNL     1      27.751   4.908   2.276  1.00  0.00     0.040 C
HETATM    2  C2  UNL     1      26.474   5.290   2.945  1.00  0.00     0.186 C
HETATM    3  C3  UNL     1      26.583   6.364   4.014  1.00  0.00     0.081 C
HETATM    4  C4  UNL     1      25.486   5.498   4.654  1.00  0.00     0.283 C
HETATM    5 CL1  UNL     1      25.435   5.530   6.396  1.00  0.00    -0.095 Cl
HETATM    6  N1  UNL     1      26.213   4.365   4.061  1.00  0.00    -0.054 N
ATOM      7  H11 UNL     1      26.963   3.880   4.555  1.00  0.00     0.279 HD
ATOM      8  H12 UNL     1      25.780   3.452   3.923  1.00  0.00     0.279 HD
ENDROOT
TORSDOF 0
ENDMDL