MODEL 4
REMARK VINA RESULT: -3.673930268      2.069      2.644
REMARK  2 active torsions:
REMARK  status: ('A' for Active; 'I' for Inactive)
REMARK    1  A    between atoms: C2_2  and  C4_5
REMARK    2  A    between atoms: C4_5  and  O1_6
ROOT
HETATM    1  C1  UNL     1      25.834   5.368   6.054  1.00  0.00     0.034 C
HETATM    2  C2  UNL     1      25.953   5.654   4.582  1.00  0.00     0.051 C
HETATM    3  C3  UNL     1      24.575   5.963   4.004  1.00  0.00     0.034 C
HETATM    4 CL1  UNL     1      26.985   7.036   4.298  1.00  0.00    -0.118 Cl
ENDROOT
BRANCH   2   5
HETATM    5  C4  UNL     1      26.434   4.397   3.898  1.00  0.00     0.189 C
BRANCH   5   6
HETATM    6  O1  UNL     1      27.112   4.697   2.722  1.00  0.00    -0.399 OA
ATOM      7  H1  UNL     1      27.934   4.224   2.671  1.00  0.00     0.209 HD
ENDBRANCH   5   6
ENDBRANCH   2   5
TORSDOF 2
ENDMDL