MODEL 2
REMARK VINA RESULT: -10.174656527      1.783      2.908
REMARK  0 active torsions:
REMARK  status: ('A' for Active; 'I' for Inactive)
ROOT
HETATM    1  C1  UNL     1      25.733  14.455  32.124  1.00  0.00     0.055 C
HETATM    2  C2  UNL     1      25.175  13.113  32.332  1.00  0.00     0.021 A
HETATM    3  C3  UNL     1      23.855  12.983  32.776  1.00  0.00    -0.035 A
HETATM    4  C4  UNL     1      23.284  14.231  33.279  1.00  0.00     0.050 C
HETATM    5  C5  UNL     1      23.363  11.722  32.937  1.00  0.00     0.035 A
HETATM    6  C6  UNL     1      24.190  10.620  32.676  1.00  0.00     0.164 A
HETATM    7  N1  UNL     1      23.497   9.503  32.930  1.00  0.00    -0.335 N
ATOM      8  H1  UNL     1      23.847   8.550  32.836  1.00  0.00     0.168 HD
HETATM    9  C7  UNL     1      22.270   9.848  33.325  1.00  0.00     0.053 A
HETATM   10  C8  UNL     1      21.202   9.050  33.692  1.00  0.00    -0.016 A
HETATM   11  C9  UNL     1      21.367   7.574  33.690  1.00  0.00     0.052 C
HETATM   12  C10 UNL     1      20.024   9.636  34.047  1.00  0.00     0.067 A
HETATM   13  C11 UNL     1      19.891  10.995  34.036  1.00  0.00     0.058 A
HETATM   14  C12 UNL     1      20.965  11.837  33.663  1.00  0.00    -0.021 A
HETATM   15  C13 UNL     1      20.555  13.224  33.428  1.00  0.00     0.052 C
HETATM   16  C14 UNL     1      22.139  11.240  33.331  1.00  0.00     0.014 A
HETATM   17  N2  UNL     1      18.535  10.912  34.483  1.00  0.00    -0.321 N
ATOM     18  H2  UNL     1      17.795  11.582  34.698  1.00  0.00     0.169 HD
HETATM   19  C15 UNL     1      18.658   9.508  34.499  1.00  0.00     0.259 A
HETATM   20  O1  UNL     1      17.871   8.543  34.797  1.00  0.00    -0.267 OA
HETATM   21  O2  UNL     1      25.418  10.793  32.269  1.00  0.00    -0.257 OA
HETATM   22  C16 UNL     1      25.918  11.977  32.091  1.00  0.00     0.296 A
HETATM   23  O3  UNL     1      27.107  12.069  31.688  1.00  0.00    -0.259 OA
ENDROOT
TORSDOF 0
ENDMDL