MODEL 5
REMARK VINA RESULT: -8.983711274      1.928      5.529
REMARK  0 active torsions:
REMARK  status: ('A' for Active; 'I' for Inactive)
ROOT
HETATM    1  O1  UNL     1      17.776   8.981  33.851  1.00  0.00    -0.287 OA
HETATM    2  C1  UNL     1      18.974   8.726  33.731  1.00  0.00     0.186 A
HETATM    3  C2  UNL     1      19.316   7.369  33.824  1.00  0.00     0.072 A
HETATM    4  C3  UNL     1      20.629   6.977  33.704  1.00  0.00     0.092 A
HETATM    5  N1  UNL     1      21.583   7.908  33.498  1.00  0.00    -0.363 N
ATOM      6  H1  UNL     1      22.553   7.605  33.412  1.00  0.00     0.165 HD
HETATM    7  C4  UNL     1      21.307   9.204  33.404  1.00  0.00     0.075 A
HETATM    8  C5  UNL     1      22.300  10.141  33.192  1.00  0.00     0.074 A
HETATM    9  N2  UNL     1      23.644  10.046  33.039  1.00  0.00    -0.353 N
ATOM     10  H2  UNL     1      24.183   9.180  33.058  1.00  0.00     0.166 HD
HETATM   11  C6  UNL     1      24.154  11.278  32.857  1.00  0.00     0.044 A
HETATM   12  C7  UNL     1      25.446  11.761  32.654  1.00  0.00     0.030 A
HETATM   13  C8  UNL     1      25.725  13.093  32.489  1.00  0.00     0.002 A
HETATM   14  C9  UNL     1      24.698  14.005  32.523  1.00  0.00     0.001 A
HETATM   15  C10 UNL     1      23.405  13.566  32.722  1.00  0.00     0.014 A
HETATM   16  C11 UNL     1      23.141  12.220  32.886  1.00  0.00     0.006 A
HETATM   17  C12 UNL     1      21.971  11.482  33.100  1.00  0.00     0.040 A
HETATM   18  C13 UNL     1      20.668  11.912  33.214  1.00  0.00     0.099 A
HETATM   19  O2  UNL     1      20.100  13.106  33.166  1.00  0.00    -0.321 OA
HETATM   20  C14 UNL     1      18.808  12.985  33.333  1.00  0.00     0.143 A
HETATM   21  C15 UNL     1      18.507  11.626  33.503  1.00  0.00     0.040 A
HETATM   22  C16 UNL     1      19.677  10.952  33.428  1.00  0.00     0.017 A
HETATM   23  C17 UNL     1      19.978   9.614  33.523  1.00  0.00     0.056 A
ENDROOT
TORSDOF 0
ENDMDL