MODEL 5
REMARK VINA RESULT: -7.175877608      1.543      5.367
REMARK  4 active torsions:
REMARK  status: ('A' for Active; 'I' for Inactive)
REMARK    1  A    between atoms: C1_2  and  N1_3
REMARK    2  A    between atoms: C1_2  and  N3_15
REMARK    3  A    between atoms: N1_3  and  C2_5
REMARK    4  A    between atoms: N3_15  and  C9_17
ROOT
HETATM    1  N1  UNL     1      22.329   8.517  33.642  1.00  0.00    -0.313 N
ATOM      2  H1  UNL     1      22.965   7.834  34.054  1.00  0.00     0.170 HD
ENDROOT
BRANCH   1   3
HETATM    3  C1  UNL     1      20.890   8.368  33.773  1.00  0.00     0.178 C
HETATM    4  S1  UNL     1      20.186   7.029  33.189  1.00  0.00    -0.040 SA
BRANCH   3   5
HETATM    5  N3  UNL     1      20.137   9.358  34.431  1.00  0.00    -0.333 N
ATOM      6  H3  UNL     1      20.130   9.326  35.451  1.00  0.00     0.168 HD
BRANCH   5   7
HETATM    7  C9  UNL     1      19.396  10.383  33.830  1.00  0.00     0.034 A
HETATM    8  C10 UNL     1      18.901  10.345  32.561  1.00  0.00     0.029 A
HETATM    9  C11 UNL     1      18.139  11.400  32.037  1.00  0.00     0.002 A
HETATM   10  C12 UNL     1      17.868  12.511  32.794  1.00  0.00     0.000 A
HETATM   11  C13 UNL     1      18.355  12.574  34.072  1.00  0.00     0.002 A
HETATM   12  C14 UNL     1      19.100  11.540  34.579  1.00  0.00     0.029 A
ENDBRANCH   5   7
ENDBRANCH   3   5
ENDBRANCH   1   3
BRANCH   1  13
HETATM   13  C2  UNL     1      22.792   9.554  32.978  1.00  0.00     0.152 A
HETATM   14  N2  UNL     1      23.661  10.470  33.410  1.00  0.00    -0.335 N
HETATM   15  C3  UNL     1      24.006  11.443  32.589  1.00  0.00     0.051 A
ATOM     16  H2  UNL     1      24.048  10.419  34.353  1.00  0.00     0.168 HD
HETATM   17  C4  UNL     1      24.900  12.502  32.848  1.00  0.00     0.031 A
HETATM   18  C8  UNL     1      23.448  11.447  31.343  1.00  0.00     0.035 A
HETATM   19  C5  UNL     1      25.167  13.446  31.901  1.00  0.00     0.002 A
HETATM   20  C6  UNL     1      24.607  13.451  30.649  1.00  0.00     0.002 A
HETATM   21  C7  UNL     1      23.727  12.425  30.370  1.00  0.00     0.021 A
HETATM   22  S2  UNL     1      22.450  10.062  31.389  1.00  0.00    -0.052 SA
ENDBRANCH   1  13
TORSDOF 4
ENDMDL