MODEL 3
REMARK VINA RESULT: -10.671648508      1.834      3.664
REMARK  1 active torsions:
REMARK  status: ('A' for Active; 'I' for Inactive)
REMARK       I    between atoms: C1_4  and  N3_6
REMARK    1  A    between atoms: N3_6  and  N4_8
ROOT
HETATM    1  N4  UNL     1      23.905   9.519  32.641  1.00  0.00    -0.297 N
ATOM      2  H4  UNL     1      23.528   8.573  32.695  1.00  0.00     0.187 HD
HETATM    3  C2  UNL     1      23.019  10.298  32.958  1.00  0.00     0.070 A
HETATM    4  C3  UNL     1      23.108  11.744  33.023  1.00  0.00     0.004 A
HETATM    5  C4  UNL     1      24.274  12.418  32.713  1.00  0.00     0.014 A
HETATM    6  C5  UNL     1      24.413  13.777  32.757  1.00  0.00     0.001 A
HETATM    7  C6  UNL     1      23.344  14.528  33.127  1.00  0.00     0.001 A
HETATM    8  C7  UNL     1      22.133  13.902  33.455  1.00  0.00     0.013 A
HETATM    9  C8  UNL     1      22.018  12.534  33.403  1.00  0.00    -0.013 A
HETATM   10  C9  UNL     1      20.720  11.923  33.756  1.00  0.00    -0.013 A
HETATM   11  C10 UNL     1      19.621  12.653  34.135  1.00  0.00     0.013 A
HETATM   12  C11 UNL     1      18.407  12.047  34.464  1.00  0.00     0.002 A
HETATM   13  C12 UNL     1      18.319  10.689  34.405  1.00  0.00     0.012 A
HETATM   14  C13 UNL     1      19.424   9.960  34.025  1.00  0.00    -0.024 A
HETATM   15  C14 UNL     1      19.253   8.581  33.989  1.00  0.00     0.012 A
HETATM   16  C15 UNL     1      20.319   7.814  33.618  1.00  0.00     0.002 A
HETATM   17  C16 UNL     1      21.516   8.380  33.292  1.00  0.00     0.014 A
HETATM   18  C17 UNL     1      21.697   9.738  33.323  1.00  0.00     0.005 A
HETATM   19  C18 UNL     1      20.645  10.544  33.692  1.00  0.00    -0.002 A
ENDROOT
BRANCH   1  20
HETATM   20  N3  UNL     1      25.179   9.433  32.251  1.00  0.00    -0.273 N
HETATM   21  C1  UNL     1      25.836  10.172  31.245  1.00  0.00     0.200 C
HETATM   22  N1  UNL     1      26.426  11.254  31.554  1.00  0.00    -0.372 N
HETATM   23  N2  UNL     1      25.831   9.709  29.920  1.00  0.00    -0.062 NA
ATOM     24  H12 UNL     1      26.901  11.788  30.827  1.00  0.00     0.158 HD
ATOM     25  H11 UNL     1      26.429  11.590  32.517  1.00  0.00     0.158 HD
ATOM     26  H3  UNL     1      25.751   8.746  32.743  1.00  0.00     0.189 HD
ENDBRANCH   1  20
TORSDOF 1
ENDMDL