MODEL 5
REMARK VINA RESULT: -7.372422058      1.791      6.410
REMARK  1 active torsions:
REMARK  status: ('A' for Active; 'I' for Inactive)
REMARK    1  A    between atoms: N1_1  and  C1_4
ROOT
HETATM    1  C1  UNL     1      21.588  11.702  32.957  1.00  0.00     0.077 A
HETATM    2  C2  UNL     1      22.798  11.760  32.233  1.00  0.00     0.131 A
HETATM    3  O1  UNL     1      23.440  12.789  31.734  1.00  0.00    -0.305 OA
HETATM    4  C3  UNL     1      24.553  12.401  31.118  1.00  0.00     0.088 A
HETATM    5  C4  UNL     1      25.549  13.078  30.450  1.00  0.00     0.038 A
HETATM    6  C5  UNL     1      26.604  12.392  29.902  1.00  0.00     0.003 A
HETATM    7  C6  UNL     1      26.644  11.026  30.035  1.00  0.00     0.001 A
HETATM    8  C7  UNL     1      25.653  10.351  30.701  1.00  0.00     0.017 A
HETATM    9  C8  UNL     1      24.601  11.026  31.248  1.00  0.00     0.027 A
HETATM   10  C9  UNL     1      23.474  10.610  31.964  1.00  0.00     0.083 A
HETATM   11  N2  UNL     1      23.071   9.396  32.343  1.00  0.00    -0.339 N
ATOM     12  H2  UNL     1      23.615   8.565  32.115  1.00  0.00     0.167 HD
HETATM   13  C10 UNL     1      21.907   9.306  33.043  1.00  0.00     0.120 A
HETATM   14  N3  UNL     1      21.262   8.248  33.548  1.00  0.00    -0.341 N
ATOM     15  H3  UNL     1      21.571   7.279  33.475  1.00  0.00     0.167 HD
HETATM   16  C11 UNL     1      20.141   8.661  34.164  1.00  0.00     0.045 A
HETATM   17  C12 UNL     1      19.137   8.000  34.836  1.00  0.00     0.030 A
HETATM   18  C13 UNL     1      18.065   8.633  35.399  1.00  0.00     0.002 A
HETATM   19  C14 UNL     1      17.976   9.997  35.297  1.00  0.00     0.001 A
HETATM   20  C15 UNL     1      18.973  10.711  34.623  1.00  0.00     0.015 A
HETATM   21  C16 UNL     1      20.040  10.051  34.066  1.00  0.00     0.007 A
HETATM   22  C17 UNL     1      21.180  10.437  33.345  1.00  0.00     0.050 A
ENDROOT
BRANCH   1  23
HETATM   23  N1  UNL     1      21.005  12.765  33.182  1.00  0.00    -0.396 N
ATOM     24  H12 UNL     1      21.414  13.612  33.577  1.00  0.00     0.156 HD
ATOM     25  H11 UNL     1      20.012  12.818  32.952  1.00  0.00     0.156 HD
ENDBRANCH   1  23
TORSDOF 1
ENDMDL