MODEL 1
REMARK VINA RESULT: -10.393228032      0.000      0.000
REMARK  1 active torsions:
REMARK  status: ('A' for Active; 'I' for Inactive)
REMARK    1  A    between atoms: N1_1  and  C1_4
ROOT
HETATM    1  C1  UNL     1      19.093   8.934  33.905  1.00  0.00     0.037 A
HETATM    2  C2  UNL     1      20.068   7.976  33.790  1.00  0.00     0.032 A
HETATM    3  C3  UNL     1      21.359   8.356  33.524  1.00  0.00     0.033 A
HETATM    4  C4  UNL     1      21.729   9.676  33.364  1.00  0.00     0.044 A
HETATM    5  N2  UNL     1      23.001  10.027  33.104  1.00  0.00    -0.353 N
ATOM      6  H2  UNL     1      23.720   9.308  33.020  1.00  0.00     0.166 HD
HETATM    7  C5  UNL     1      23.328  11.324  32.953  1.00  0.00     0.073 A
HETATM    8  C6  UNL     1      24.506  11.996  32.688  1.00  0.00     0.020 A
HETATM    9  C7  UNL     1      25.783  11.517  32.483  1.00  0.00     0.016 A
HETATM   10  C8  UNL     1      26.829  12.381  32.229  1.00  0.00     0.001 A
HETATM   11  C9  UNL     1      26.559  13.732  32.186  1.00  0.00     0.002 A
HETATM   12  C10 UNL     1      25.301  14.260  32.384  1.00  0.00     0.030 A
HETATM   13  C11 UNL     1      24.277  13.359  32.636  1.00  0.00     0.045 A
HETATM   14  N3  UNL     1      22.943  13.524  32.872  1.00  0.00    -0.353 N
ATOM     15  H3  UNL     1      22.455  14.419  32.901  1.00  0.00     0.166 HD
HETATM   16  C12 UNL     1      22.368  12.315  33.063  1.00  0.00     0.072 A
HETATM   17  C13 UNL     1      21.070  11.971  33.329  1.00  0.00     0.006 A
HETATM   18  C14 UNL     1      20.050  12.899  33.454  1.00  0.00     0.015 A
HETATM   19  C15 UNL     1      18.747  12.564  33.719  1.00  0.00     0.002 A
HETATM   20  C16 UNL     1      18.448  11.232  33.866  1.00  0.00     0.014 A
HETATM   21  C17 UNL     1      19.448  10.269  33.747  1.00  0.00     0.004 A
HETATM   22  C18 UNL     1      20.734  10.636  33.483  1.00  0.00     0.016 A
ENDROOT
BRANCH   1  23
HETATM   23  N1  UNL     1      17.849   8.664  34.155  1.00  0.00    -0.398 N
ATOM     24  H12 UNL     1      17.486   7.762  33.847  1.00  0.00     0.156 HD
ATOM     25  H11 UNL     1      17.221   9.303  34.641  1.00  0.00     0.156 HD
ENDBRANCH   1  23
TORSDOF 1
ENDMDL