MODEL 3
REMARK VINA RESULT: -9.001793349      1.730      3.404
REMARK  1 active torsions:
REMARK  status: ('A' for Active; 'I' for Inactive)
REMARK    1  A    between atoms: C3_3  and  C6_6
ROOT
HETATM    1  C1  UNL     1      19.195   8.812  31.548  1.00  0.00     0.098 C
HETATM    2  C2  UNL     1      19.805   9.082  32.603  1.00  0.00    -0.173 C
HETATM    3  C3  UNL     1      20.586   9.364  33.859  1.00  0.00     0.032 C
HETATM    4  C4  UNL     1      21.111   7.995  34.065  1.00  0.00     0.033 C
HETATM    5  C5  UNL     1      19.417   9.426  34.929  1.00  0.00     0.033 C
ENDROOT
BRANCH   3   6
HETATM    6  C6  UNL     1      21.121  10.645  33.631  1.00  0.00    -0.015 A
HETATM    7  C7  UNL     1      20.232  11.745  33.852  1.00  0.00    -0.052 A
HETATM    8  C8  UNL     1      18.848  11.651  34.158  1.00  0.00     0.049 C
HETATM    9  C9  UNL     1      20.702  13.042  33.712  1.00  0.00     0.016 A
HETATM   10  C10 UNL     1      21.970  13.333  33.374  1.00  0.00    -0.034 A
HETATM   11  C11 UNL     1      22.451  14.704  33.230  1.00  0.00     0.050 C
HETATM   12  C12 UNL     1      22.836  12.295  33.157  1.00  0.00     0.056 A
HETATM   13  N1  UNL     1      24.112  12.571  32.827  1.00  0.00    -0.332 N
HETATM   14  C15 UNL     1      22.445  10.939  33.277  1.00  0.00     0.068 A
HETATM   15  C13 UNL     1      25.030  11.621  32.608  1.00  0.00     0.179 A
ATOM     16  H1  UNL     1      24.392  13.548  32.740  1.00  0.00     0.168 HD
HETATM   17  S1  UNL     1      26.548  12.071  32.212  1.00  0.00    -0.040 SA
HETATM   18  N2  UNL     1      24.688  10.343  32.715  1.00  0.00    -0.299 N
HETATM   19  C14 UNL     1      23.403  10.004  33.049  1.00  0.00     0.260 A
ATOM     20  H2  UNL     1      25.381   9.613  32.549  1.00  0.00     0.171 HD
HETATM   21  O1  UNL     1      23.167   8.812  33.129  1.00  0.00    -0.267 OA
ENDBRANCH   3   6
TORSDOF 1
ENDMDL