MODEL 5
REMARK VINA RESULT: -5.781982135      1.584      5.363
REMARK  2 active torsions:
REMARK  status: ('A' for Active; 'I' for Inactive)
REMARK    1  A    between atoms: C5_5  and  N1_6
REMARK    2  A    between atoms: N1_6  and  C6_8
ROOT
HETATM    1  C1  UNL     1      19.471   6.412  33.948  1.00  0.00     0.002 A
HETATM    2  C2  UNL     1      20.850   6.501  33.876  1.00  0.00     0.001 A
HETATM    3  C3  UNL     1      21.429   7.747  33.716  1.00  0.00     0.016 A
HETATM    4  C4  UNL     1      20.689   8.905  33.624  1.00  0.00     0.018 A
HETATM    5  C5  UNL     1      21.332  10.154  33.461  1.00  0.00     0.058 A
HETATM    6  C11 UNL     1      20.505  11.245  33.381  1.00  0.00     0.018 A
HETATM    7  C12 UNL     1      21.000  12.515  33.222  1.00  0.00     0.016 A
HETATM    8  C13 UNL     1      20.230  13.654  33.134  1.00  0.00     0.001 A
HETATM    9  C14 UNL     1      18.866  13.510  33.211  1.00  0.00     0.002 A
HETATM   10  C15 UNL     1      18.313  12.269  33.369  1.00  0.00     0.030 A
HETATM   11  C16 UNL     1      19.114  11.155  33.454  1.00  0.00     0.045 A
HETATM   12  N3  UNL     1      18.578   9.924  33.610  1.00  0.00    -0.355 N
ATOM     13  H3  UNL     1      17.563   9.841  33.664  1.00  0.00     0.166 HD
HETATM   14  C17 UNL     1      19.317   8.802  33.698  1.00  0.00     0.045 A
HETATM   15  C18 UNL     1      18.708   7.552  33.859  1.00  0.00     0.030 A
ENDROOT
BRANCH   5  16
HETATM   16  N1  UNL     1      22.528  10.155  33.408  1.00  0.00    -0.355 N
ATOM     17  H1  UNL     1      22.775   9.625  34.244  1.00  0.00     0.166 HD
BRANCH  16  18
HETATM   18  C6  UNL     1      23.730  10.439  32.900  1.00  0.00     0.035 A
HETATM   19  C7  UNL     1      24.525  11.544  33.178  1.00  0.00     0.046 A
HETATM   20  C8  UNL     1      25.745  11.718  32.576  1.00  0.00     0.090 A
HETATM   21  N2  UNL     1      26.194  10.811  31.699  1.00  0.00    -0.375 N
HETATM   22  C9  UNL     1      25.490   9.710  31.370  1.00  0.00     0.090 A
ATOM     23  H2  UNL     1      27.104  10.959  31.264  1.00  0.00     0.164 HD
HETATM   24  C10 UNL     1      24.280   9.539  31.966  1.00  0.00     0.046 A
ENDBRANCH  16  18
ENDBRANCH   5  16
TORSDOF 2
ENDMDL