MODEL 3
REMARK VINA RESULT: -8.752158370      1.234      7.015
REMARK  3 active torsions:
REMARK  status: ('A' for Active; 'I' for Inactive)
REMARK    1  A    between atoms: N1_1  and  C1_4
REMARK    2  A    between atoms: C2_7  and  N3_8
REMARK    3  A    between atoms: N3_8  and  C3_10
ROOT
HETATM    1  C1  UNL     1      19.846  11.593  33.621  1.00  0.00     0.127 A
HETATM    2  N2  UNL     1      20.731  11.914  32.677  1.00  0.00    -0.176 N
ATOM      3  H2  UNL     1      20.880  12.904  32.481  1.00  0.00     0.186 HD
HETATM    4  C2  UNL     1      21.443  11.019  31.967  1.00  0.00     0.684 A
HETATM    5  N4  UNL     1      21.241   9.727  32.233  1.00  0.00    -0.191 N
ATOM      6  H4  UNL     1      21.764   9.021  31.713  1.00  0.00     0.184 HD
HETATM    7  C13 UNL     1      20.360   9.336  33.176  1.00  0.00     0.063 A
HETATM    8  C14 UNL     1      20.139   8.001  33.465  1.00  0.00     0.031 A
HETATM    9  C15 UNL     1      19.233   7.626  34.432  1.00  0.00     0.002 A
HETATM   10  C16 UNL     1      18.516   8.579  35.144  1.00  0.00     0.001 A
HETATM   11  C17 UNL     1      18.728   9.902  34.866  1.00  0.00     0.017 A
HETATM   12  C18 UNL     1      19.635  10.254  33.899  1.00  0.00     0.035 A
ENDROOT
BRANCH   4  13
HETATM   13  N3  UNL     1      22.251  11.471  31.099  1.00  0.00    -0.191 N
ATOM     14  H3  UNL     1      21.845  12.000  30.327  1.00  0.00     0.184 HD
BRANCH  13  15
HETATM   15  C3  UNL     1      23.647  11.319  31.093  1.00  0.00     0.060 A
HETATM   16  C4  UNL     1      24.237  10.168  30.608  1.00  0.00     0.031 A
HETATM   17  C5  UNL     1      25.607   9.994  30.591  1.00  0.00     0.003 A
HETATM   18  C6  UNL     1      26.453  10.973  31.065  1.00  0.00     0.012 A
HETATM   19  C7  UNL     1      25.883  12.133  31.554  1.00  0.00    -0.024 A
HETATM   20  C8  UNL     1      26.725  13.118  32.029  1.00  0.00     0.012 A
HETATM   21  C12 UNL     1      24.498  12.298  31.566  1.00  0.00     0.001 A
HETATM   22  C9  UNL     1      26.161  14.279  32.519  1.00  0.00     0.001 A
HETATM   23  C10 UNL     1      24.791  14.440  32.530  1.00  0.00     0.001 A
HETATM   24  C11 UNL     1      23.928  13.463  32.058  1.00  0.00     0.014 A
ENDBRANCH  13  15
ENDBRANCH   4  13
BRANCH   1  25
HETATM   25  N1  UNL     1      19.184  12.460  34.279  1.00  0.00    -0.384 N
ATOM     26  H12 UNL     1      18.186  12.555  34.090  1.00  0.00     0.157 HD
ATOM     27  H11 UNL     1      19.604  13.064  34.986  1.00  0.00     0.157 HD
ENDBRANCH   1  25
TORSDOF 3
ENDMDL