MODEL 5
REMARK VINA RESULT: -4.169562048      1.065      1.354
REMARK  1 active torsions:
REMARK  status: ('A' for Active; 'I' for Inactive)
REMARK    1  A    between atoms: N1_2  and  C2_4
ROOT
HETATM    1  C2  UNL     1      26.730   6.731   4.075  1.00  0.00     0.076 C
HETATM    2  C3  UNL     1      26.356   6.529   5.495  1.00  0.00     0.024 C
HETATM    3  C4  UNL     1      25.578   5.217   5.494  1.00  0.00     0.002 C
HETATM    4  C5  UNL     1      26.331   4.426   4.454  1.00  0.00     0.002 C
HETATM    5  C6  UNL     1      26.506   5.432   3.343  1.00  0.00     0.024 C
ENDROOT
BRANCH   1   6
HETATM    6  N1  UNL     1      28.004   7.325   3.850  1.00  0.00    -0.421 N
HETATM    7  C1  UNL     1      28.559   8.090   4.909  1.00  0.00     0.140 C
ATOM      8  H1  UNL     1      28.498   7.207   2.965  1.00  0.00     0.153 HD
ENDBRANCH   1   6
TORSDOF 1
ENDMDL