MODEL 3
REMARK VINA RESULT: -4.131629116      1.038      1.859
REMARK  0 active torsions:
REMARK  status: ('A' for Active; 'I' for Inactive)
ROOT
HETATM    1  C1  UNL     1      26.434   6.596   5.996  1.00  0.00     0.035 C
HETATM    2  C2  UNL     1      26.982   6.880   4.585  1.00  0.00     0.035 C
HETATM    3  C3  UNL     1      26.402   5.675   3.886  1.00  0.00     0.188 C
HETATM    4  C4  UNL     1      24.978   5.702   4.346  1.00  0.00     0.066 C
HETATM    5  C5  UNL     1      25.641   5.356   5.664  1.00  0.00     0.188 C
HETATM    6  N1  UNL     1      26.611   4.606   4.874  1.00  0.00    -0.067 N
ATOM      7  H11 UNL     1      27.534   4.356   5.227  1.00  0.00     0.278 HD
ATOM      8  H12 UNL     1      26.492   3.618   4.649  1.00  0.00     0.278 HD
ENDROOT
TORSDOF 0
ENDMDL