MODEL 3
REMARK VINA RESULT: -4.708106029      1.770      3.102
REMARK  1 active torsions:
REMARK  status: ('A' for Active; 'I' for Inactive)
REMARK    1  A    between atoms: C5_5  and  N1_6
ROOT
HETATM    1  C1  UNL     1      27.841   4.655   2.345  1.00  0.00     0.010 C
HETATM    2  C2  UNL     1      26.757   5.526   2.965  1.00  0.00    -0.017 C
HETATM    3  C3  UNL     1      27.425   6.689   3.631  1.00  0.00     0.006 C
HETATM    4  C4  UNL     1      26.461   7.071   4.737  1.00  0.00     0.033 C
HETATM    5  C5  UNL     1      25.782   5.796   5.122  1.00  0.00     0.183 C
HETATM    6  C6  UNL     1      26.057   4.779   4.055  1.00  0.00     0.037 C
ENDROOT
BRANCH   5   7
HETATM    7  N1  UNL     1      26.199   5.268   6.391  1.00  0.00    -0.075 N
ATOM      8  H13 UNL     1      27.044   4.706   6.284  1.00  0.00     0.274 HD
ATOM      9  H12 UNL     1      26.559   6.013   6.986  1.00  0.00     0.274 HD
ATOM     10  H11 UNL     1      25.477   4.738   6.880  1.00  0.00     0.274 HD
ENDBRANCH   5   7
TORSDOF 1
ENDMDL