MODEL 4
REMARK VINA RESULT: -4.480932928      1.573      3.000
REMARK  0 active torsions:
REMARK  status: ('A' for Active; 'I' for Inactive)
ROOT
HETATM    1  C1  UNL     1      26.577   4.202   3.694  1.00  0.00     0.011 C
HETATM    2  C2  UNL     1      26.108   5.591   4.135  1.00  0.00    -0.001 C
HETATM    3  C3  UNL     1      26.233   5.629   5.636  1.00  0.00     0.007 C
HETATM    4  C4  UNL     1      26.382   7.073   6.065  1.00  0.00     0.020 C
HETATM    5  C5  UNL     1      27.699   7.570   5.531  1.00  0.00     0.113 C
HETATM    6  N1  UNL     1      27.980   7.182   4.199  1.00  0.00    -0.421 N
ATOM      7  H1  UNL     1      28.914   7.261   3.798  1.00  0.00     0.153 HD
HETATM    8  C6  UNL     1      26.872   6.672   3.453  1.00  0.00     0.118 C
ENDROOT
TORSDOF 0
ENDMDL