MODEL 4
REMARK VINA RESULT: -3.358276860      1.857      2.285
REMARK  0 active torsions:
REMARK  status: ('A' for Active; 'I' for Inactive)
ROOT
HETATM    1  C1  UNL     1      25.484   5.102   4.765  1.00  0.00     0.028 C
HETATM    2  C2  UNL     1      25.911   5.702   6.014  1.00  0.00     0.123 C
HETATM    3  N1  UNL     1      26.820   6.765   5.860  1.00  0.00    -0.179 NA
HETATM    4  S1  UNL     1      27.122   6.940   4.114  1.00  0.00    -0.066 SA
HETATM    5  C3  UNL     1      26.485   5.273   3.684  1.00  0.00     0.094 C
ENDROOT
TORSDOF 0
ENDMDL