MODEL 4
REMARK VINA RESULT: -4.558239659      1.335      2.068
REMARK  0 active torsions:
REMARK  status: ('A' for Active; 'I' for Inactive)
ROOT
HETATM    1  C1  UNL     1      26.933   4.991   2.435  1.00  0.00     0.040 C
HETATM    2  C2  UNL     1      26.528   5.635   3.740  1.00  0.00     0.181 C
HETATM    3  C3  UNL     1      27.428   6.841   3.993  1.00  0.00     0.032 C
HETATM    4  C4  UNL     1      27.445   7.189   5.482  1.00  0.00     0.004 C
HETATM    5  C5  UNL     1      26.067   6.801   5.998  1.00  0.00     0.027 C
HETATM    6  C6  UNL     1      25.849   5.307   5.946  1.00  0.00     0.232 C
HETATM    7  N1  UNL     1      26.606   4.699   4.856  1.00  0.00    -0.071 N
ATOM      8  H11 UNL     1      27.562   4.451   5.113  1.00  0.00     0.277 HD
ATOM      9  H12 UNL     1      26.295   3.757   4.619  1.00  0.00     0.277 HD
ENDROOT
TORSDOF 0
ENDMDL