MODEL 1
REMARK VINA RESULT: -4.926000503      0.000      0.000
REMARK  2 active torsions:
REMARK  status: ('A' for Active; 'I' for Inactive)
REMARK    1  A    between atoms: N2_4  and  C1_6
REMARK    2  A    between atoms: C1_6  and  C2_10
ROOT
HETATM    1  C1  UNL     1      26.893   6.005   3.714  1.00  0.00     0.093 C
HETATM    2  N3  UNL     1      26.866   4.909   3.031  1.00  0.00    -0.388 N
ATOM      3  H31 UNL     1      26.169   4.195   3.239  1.00  0.00     0.157 HD
ATOM      4  H32 UNL     1      27.520   4.707   2.274  1.00  0.00     0.157 HD
ENDROOT
BRANCH   1   5
HETATM    5  N2  UNL     1      27.872   7.007   3.420  1.00  0.00    -0.296 N
HETATM    6  N1  UNL     1      28.156   7.138   2.182  1.00  0.00    -0.344 N
ATOM      7  H12 UNL     1      27.709   6.564   1.467  1.00  0.00     0.176 HD
ATOM      8  H11 UNL     1      28.854   7.852   1.973  1.00  0.00     0.176 HD
ATOM      9  H2  UNL     1      28.311   7.573   4.146  1.00  0.00     0.187 HD
ENDBRANCH   1   5
BRANCH   1  10
HETATM   10  C2  UNL     1      25.947   6.298   4.810  1.00  0.00     0.054 A
HETATM   11  C3  UNL     1      26.418   6.850   6.102  1.00  0.00     0.013 A
HETATM   12  C4  UNL     1      26.132   5.388   6.031  1.00  0.00     0.013 A
ENDBRANCH   1  10
TORSDOF 2
ENDMDL