MODEL 3
REMARK VINA RESULT: -4.025203954      1.598      2.505
REMARK  1 active torsions:
REMARK  status: ('A' for Active; 'I' for Inactive)
REMARK    1  A    between atoms: C6_6  and  N1_7
ROOT
HETATM    1  C1  UNL     1      26.854   7.054   5.906  1.00  0.00     0.017 C
HETATM    2  C2  UNL     1      26.651   6.419   4.556  1.00  0.00    -0.019 C
HETATM    3  C3  UNL     1      27.543   6.986   3.508  1.00  0.00     0.017 C
HETATM    4  C4  UNL     1      25.170   6.335   4.177  1.00  0.00     0.013 C
HETATM    5  C5  UNL     1      25.147   5.039   5.001  1.00  0.00     0.034 C
HETATM    6  C6  UNL     1      26.619   4.893   4.635  1.00  0.00     0.191 C
ENDROOT
BRANCH   6   7
HETATM    7  N1  UNL     1      26.762   4.218   3.377  1.00  0.00    -0.074 N
ATOM      8  H13 UNL     1      25.850   3.917   3.033  1.00  0.00     0.274 HD
ATOM      9  H12 UNL     1      27.016   4.884   2.647  1.00  0.00     0.274 HD
ATOM     10  H11 UNL     1      27.415   3.434   3.380  1.00  0.00     0.274 HD
ENDBRANCH   6   7
TORSDOF 1
ENDMDL