MODEL 4
REMARK VINA RESULT: -4.096324504      1.796      2.521
REMARK  0 active torsions:
REMARK  status: ('A' for Active; 'I' for Inactive)
ROOT
HETATM    1  C1  UNL     1      27.566   7.278   5.212  1.00  0.00     0.018 C
HETATM    2  C2  UNL     1      26.416   6.898   6.099  1.00  0.00     0.013 C
HETATM    3  C3  UNL     1      26.035   5.460   6.018  1.00  0.00     0.093 C
HETATM    4  S1  UNL     1      25.845   4.924   4.279  1.00  0.00    -0.066 SA
HETATM    5  N1  UNL     1      27.148   5.696   3.377  1.00  0.00    -0.179 NA
HETATM    6  C4  UNL     1      27.309   7.084   3.752  1.00  0.00     0.122 C
ENDROOT
TORSDOF 0
ENDMDL