MODEL 5
REMARK VINA RESULT: -3.740294110      1.272      1.787
REMARK  1 active torsions:
REMARK  status: ('A' for Active; 'I' for Inactive)
REMARK    1  A    between atoms: N1_2  and  C2_4
ROOT
HETATM    1  C2  UNL     1      26.129   5.624   4.599  1.00  0.00     0.014 C
HETATM    2  C3  UNL     1      24.711   5.850   4.081  1.00  0.00     0.037 C
HETATM    3  C4  UNL     1      26.894   6.893   4.344  1.00  0.00     0.037 C
HETATM    4  C5  UNL     1      26.065   5.272   6.061  1.00  0.00     0.037 C
ENDROOT
BRANCH   1   5
HETATM    5  N1  UNL     1      26.642   4.482   3.900  1.00  0.00    -0.418 N
HETATM    6  C1  UNL     1      27.289   4.773   2.660  1.00  0.00     0.140 C
ATOM      7  H1  UNL     1      26.552   3.532   4.262  1.00  0.00     0.153 HD
ENDBRANCH   1   5
TORSDOF 1
ENDMDL