MODEL 1
REMARK VINA RESULT: -5.415515499      0.000      0.000
REMARK  0 active torsions:
REMARK  status: ('A' for Active; 'I' for Inactive)
ROOT
HETATM    1  C1  UNL     1      27.099   5.377   3.091  1.00  0.00     0.004 C
HETATM    2  C2  UNL     1      27.206   6.759   3.594  1.00  0.00     0.025 C
HETATM    3  C3  UNL     1      26.129   7.119   4.623  1.00  0.00     0.077 C
HETATM    4  C4  UNL     1      26.657   6.612   5.974  1.00  0.00     0.027 C
HETATM    5  C5  UNL     1      25.944   5.268   6.181  1.00  0.00     0.027 C
HETATM    6  C6  UNL     1      25.294   5.036   4.806  1.00  0.00     0.077 C
HETATM    7  C7  UNL     1      26.318   4.416   3.892  1.00  0.00     0.025 C
HETATM    8  N1  UNL     1      25.022   6.331   4.395  1.00  0.00    -0.413 N
ATOM      9  H1  UNL     1      24.143   6.650   3.988  1.00  0.00     0.154 HD
ENDROOT
TORSDOF 0
ENDMDL