MODEL 1
REMARK VINA RESULT: -6.648959764      0.000      0.000
REMARK  1 active torsions:
REMARK  status: ('A' for Active; 'I' for Inactive)
REMARK    1  A    between atoms: N1_1  and  C1_5
ROOT
HETATM    1  C1  UNL     1      27.380   7.895   4.131  1.00  0.00     0.250 C
HETATM    2  C2  UNL     1      26.394   7.723   5.276  1.00  0.00     0.005 C
HETATM    3  C3  UNL     1      26.367   6.578   6.137  1.00  0.00    -0.028 C
HETATM    4  C4  UNL     1      25.500   5.348   5.847  1.00  0.00     0.038 C
HETATM    5  C5  UNL     1      25.881   4.696   4.473  1.00  0.00     0.086 C
HETATM    6  C6  UNL     1      26.592   5.680   3.762  1.00  0.00    -0.144 C
HETATM    7  C7  UNL     1      27.297   6.705   3.111  1.00  0.00     0.270 C
HETATM    8  F1  UNL     1      28.641   6.458   2.764  1.00  0.00    -0.234 F
ENDROOT
BRANCH   1   9
HETATM    9  N1  UNL     1      28.707   8.091   4.595  1.00  0.00    -0.068 N
ATOM     10  H13 UNL     1      28.726   8.267   5.600  1.00  0.00     0.275 HD
ATOM     11  H12 UNL     1      29.239   7.221   4.573  1.00  0.00     0.275 HD
ATOM     12  H11 UNL     1      29.187   8.831   4.082  1.00  0.00     0.275 HD
ENDBRANCH   1   9
TORSDOF 1
ENDMDL