MODEL 4
REMARK VINA RESULT: -5.347945398      1.908      3.303
REMARK  1 active torsions:
REMARK  status: ('A' for Active; 'I' for Inactive)
REMARK    1  A    between atoms: C6_6  and  N1_7
ROOT
HETATM    1  C1  UNL     1      27.484   4.586   1.938  1.00  0.00     0.010 C
HETATM    2  C2  UNL     1      26.859   5.553   2.893  1.00  0.00    -0.017 C
HETATM    3  C3  UNL     1      27.790   6.706   3.251  1.00  0.00     0.004 C
HETATM    4  C4  UNL     1      27.048   7.680   4.118  1.00  0.00     0.002 C
HETATM    5  C5  UNL     1      26.371   7.058   5.295  1.00  0.00     0.033 C
HETATM    6  C6  UNL     1      25.572   5.836   4.934  1.00  0.00     0.183 C
HETATM    7  C7  UNL     1      26.526   4.874   4.231  1.00  0.00     0.037 C
ENDROOT
BRANCH   6   8
HETATM    8  N1  UNL     1      24.999   5.229   6.087  1.00  0.00    -0.075 N
ATOM      9  H13 UNL     1      25.550   4.429   6.401  1.00  0.00     0.274 HD
ATOM     10  H12 UNL     1      25.100   5.822   6.911  1.00  0.00     0.274 HD
ATOM     11  H11 UNL     1      24.025   4.972   5.929  1.00  0.00     0.274 HD
ENDBRANCH   6   8
TORSDOF 1
ENDMDL