MODEL 4
REMARK VINA RESULT: -5.183733266      1.190      2.439
REMARK  0 active torsions:
REMARK  status: ('A' for Active; 'I' for Inactive)
ROOT
HETATM    1  C1  UNL     1      27.488   4.684   1.942  1.00  0.00     0.040 C
HETATM    2  C2  UNL     1      27.060   5.708   2.928  1.00  0.00     0.182 C
HETATM    3  C3  UNL     1      28.105   6.768   3.204  1.00  0.00     0.032 C
HETATM    4  C4  UNL     1      27.347   7.946   3.815  1.00  0.00     0.004 C
HETATM    5  C5  UNL     1      26.777   7.453   5.126  1.00  0.00     0.032 C
HETATM    6  C6  UNL     1      25.951   6.223   4.911  1.00  0.00     0.182 C
HETATM    7  C7  UNL     1      25.387   5.710   6.198  1.00  0.00     0.040 C
HETATM    8  N1  UNL     1      26.638   5.177   4.199  1.00  0.00    -0.067 N
ATOM      9  H11 UNL     1      27.407   4.775   4.735  1.00  0.00     0.278 HD
ATOM     10  H12 UNL     1      26.078   4.329   4.107  1.00  0.00     0.278 HD
ENDROOT
TORSDOF 0
ENDMDL