MODEL 4
REMARK VINA RESULT: -5.666908089      1.367      2.312
REMARK  0 active torsions:
REMARK  status: ('A' for Active; 'I' for Inactive)
ROOT
HETATM    1  C1  UNL     1      27.532   4.466   1.835  1.00  0.00     0.124 C
HETATM    2  N1  UNL     1      27.011   5.303   2.782  1.00  0.00    -0.337 N
HETATM    3  C2  UNL     1      26.303   4.765   3.903  1.00  0.00     0.089 C
HETATM    4  C3  UNL     1      25.311   5.517   4.646  1.00  0.00    -0.009 C
HETATM    5  C4  UNL     1      25.661   6.358   5.861  1.00  0.00     0.040 C
HETATM    6  C5  UNL     1      26.731   7.447   5.512  1.00  0.00     0.088 C
HETATM    7  C6  UNL     1      27.329   7.057   4.299  1.00  0.00    -0.125 C
HETATM    8  C7  UNL     1      27.810   6.523   3.084  1.00  0.00     0.343 C
HETATM    9  F1  UNL     1      27.645   7.302   1.919  1.00  0.00    -0.213 F
ENDROOT
TORSDOF 0
ENDMDL