MODEL 1
REMARK VINA RESULT: -5.996777815      0.000      0.000
REMARK  1 active torsions:
REMARK  status: ('A' for Active; 'I' for Inactive)
REMARK    1  A    between atoms: C7_8  and  N1_9
ROOT
HETATM    1  C1  UNL     1      25.629   5.188   5.943  1.00  0.00     0.054 C
HETATM    2  C2  UNL     1      25.771   5.921   4.601  1.00  0.00     0.128 C
HETATM    3  F1  UNL     1      24.454   6.226   4.226  1.00  0.00    -0.241 F
HETATM    4  C3  UNL     1      26.381   4.990   3.639  1.00  0.00     0.045 C
HETATM    5  C4  UNL     1      27.326   5.537   2.647  1.00  0.00     0.003 C
HETATM    6  C5  UNL     1      28.020   6.793   3.018  1.00  0.00     0.002 C
HETATM    7  C6  UNL     1      27.129   7.815   3.659  1.00  0.00     0.036 C
HETATM    8  C7  UNL     1      26.489   7.190   4.866  1.00  0.00     0.222 C
ENDROOT
BRANCH   8   9
HETATM    9  N1  UNL     1      27.449   7.082   5.973  1.00  0.00    -0.072 N
ATOM     10  H13 UNL     1      28.017   7.926   6.048  1.00  0.00     0.274 HD
ATOM     11  H12 UNL     1      26.974   7.121   6.874  1.00  0.00     0.274 HD
ATOM     12  H11 UNL     1      28.038   6.251   5.908  1.00  0.00     0.274 HD
ENDBRANCH   8   9
TORSDOF 1
ENDMDL