MODEL 3
REMARK VINA RESULT: -5.731534104      1.304      2.327
REMARK  1 active torsions:
REMARK  status: ('A' for Active; 'I' for Inactive)
REMARK    1  A    between atoms: C1_4  and  C2_5
ROOT
HETATM    1  C2  UNL     1      27.215   6.182   3.754  1.00  0.00     0.023 C
HETATM    2  C3  UNL     1      25.950   5.354   3.693  1.00  0.00     0.010 C
HETATM    3  C4  UNL     1      25.377   5.155   5.056  1.00  0.00     0.001 C
HETATM    4  C5  UNL     1      26.122   5.906   6.131  1.00  0.00     0.000 C
HETATM    5  C6  UNL     1      26.326   7.358   5.769  1.00  0.00     0.001 C
HETATM    6  C7  UNL     1      26.998   7.505   4.441  1.00  0.00     0.010 C
ENDROOT
BRANCH   1   7
HETATM    7  C1  UNL     1      27.819   6.370   2.431  1.00  0.00     0.057 C
HETATM    8  N1  UNL     1      28.209   7.500   1.967  1.00  0.00    -0.411 N
ATOM      9  H12 UNL     1      28.084   8.312   2.571  1.00  0.00     0.155 HD
ATOM     10  H11 UNL     1      28.630   7.631   1.046  1.00  0.00     0.155 HD
ENDBRANCH   1   7
TORSDOF 1
ENDMDL