MODEL 2
REMARK VINA RESULT: -5.486489449      0.944      1.295
REMARK  1 active torsions:
REMARK  status: ('A' for Active; 'I' for Inactive)
REMARK    1  A    between atoms: N1_2  and  C2_5
ROOT
HETATM    1  C2  UNL     1      26.736   7.189   4.022  1.00  0.00     0.185 C
HETATM    2  C3  UNL     1      26.488   5.718   3.757  1.00  0.00     0.033 C
HETATM    3  C4  UNL     1      25.180   5.397   4.480  1.00  0.00     0.002 C
HETATM    4  C5  UNL     1      25.417   5.476   5.944  1.00  0.00     0.000 C
HETATM    5  C6  UNL     1      26.163   6.665   6.424  1.00  0.00     0.002 C
HETATM    6  C7  UNL     1      27.089   7.309   5.482  1.00  0.00     0.033 C
ENDROOT
BRANCH   1   7
HETATM    7  N1  UNL     1      27.870   7.652   3.271  1.00  0.00    -0.075 N
HETATM    8  C1  UNL     1      28.131   6.907   2.077  1.00  0.00     0.267 C
ATOM      9  H12 UNL     1      28.701   7.681   3.862  1.00  0.00     0.277 HD
ATOM     10  H11 UNL     1      27.774   8.645   3.058  1.00  0.00     0.277 HD
ENDBRANCH   1   7
TORSDOF 1
ENDMDL