MODEL 1
REMARK VINA RESULT: -5.179698894      0.000      0.000
REMARK  0 active torsions:
REMARK  status: ('A' for Active; 'I' for Inactive)
ROOT
HETATM    1  C1  UNL     1      27.815   7.903   4.397  1.00  0.00     0.011 C
HETATM    2  C2  UNL     1      26.600   7.062   4.572  1.00  0.00    -0.004 C
HETATM    3  C3  UNL     1      26.198   6.893   6.033  1.00  0.00     0.005 C
HETATM    4  C4  UNL     1      25.434   5.578   6.069  1.00  0.00     0.002 C
HETATM    5  C5  UNL     1      25.493   5.026   4.654  1.00  0.00     0.016 C
HETATM    6  C6  UNL     1      26.848   5.593   4.210  1.00  0.00     0.062 C
HETATM    7  S1  UNL     1      27.061   5.336   2.464  1.00  0.00    -0.092 SA
ENDROOT
TORSDOF 0
ENDMDL