MODEL 3
REMARK VINA RESULT: -5.003091850      1.646      2.144
REMARK  0 active torsions:
REMARK  status: ('A' for Active; 'I' for Inactive)
ROOT
HETATM    1  F1  UNL     1      26.049   4.733   6.465  1.00  0.00    -0.249 F
HETATM    2  C1  UNL     1      25.581   5.975   6.070  1.00  0.00     0.171 C
HETATM    3  C2  UNL     1      26.674   6.988   6.131  1.00  0.00     0.037 C
HETATM    4  C3  UNL     1      26.936   7.678   4.828  1.00  0.00     0.004 C
HETATM    5  C4  UNL     1      27.143   6.732   3.683  1.00  0.00     0.016 C
HETATM    6  C5  UNL     1      26.015   5.736   3.612  1.00  0.00     0.061 C
HETATM    7  S1  UNL     1      26.724   4.083   3.595  1.00  0.00    -0.092 SA
HETATM    8  C6  UNL     1      24.999   5.940   4.689  1.00  0.00     0.053 C
ENDROOT
TORSDOF 0
ENDMDL