MODEL 4
REMARK VINA RESULT: -4.409706876      0.551      1.739
REMARK  1 active torsions:
REMARK  status: ('A' for Active; 'I' for Inactive)
REMARK    1  A    between atoms: N1_1  and  C1_5
ROOT
HETATM    1  C1  UNL     1      27.442   6.375   4.124  1.00  0.00     0.183 C
HETATM    2  C2  UNL     1      26.760   7.015   5.326  1.00  0.00     0.033 C
HETATM    3  C3  UNL     1      25.966   5.817   5.852  1.00  0.00     0.002 C
HETATM    4  C4  UNL     1      25.281   5.362   4.560  1.00  0.00     0.002 C
HETATM    5  C5  UNL     1      26.483   5.326   3.617  1.00  0.00     0.033 C
ENDROOT
BRANCH   1   6
HETATM    6  N1  UNL     1      27.774   7.357   3.113  1.00  0.00    -0.075 N
ATOM      7  H13 UNL     1      27.847   6.931   2.189  1.00  0.00     0.274 HD
ATOM      8  H12 UNL     1      26.992   7.988   2.936  1.00  0.00     0.274 HD
ATOM      9  H11 UNL     1      28.622   7.872   3.352  1.00  0.00     0.274 HD
ENDBRANCH   1   6
TORSDOF 1
ENDMDL