MODEL 2
REMARK VINA RESULT: -4.262784098      1.407      2.225
REMARK  2 active torsions:
REMARK  status: ('A' for Active; 'I' for Inactive)
REMARK    1  A    between atoms: C3_3  and  C4_4
REMARK    2  A    between atoms: C5_5  and  C6_6
ROOT
HETATM    1  C1  UNL     1      27.682   4.058   1.526  1.00  0.00     0.098 C
HETATM    2  C2  UNL     1      27.822   5.203   1.930  1.00  0.00    -0.176 C
HETATM    3  C3  UNL     1      27.974   6.583   2.397  1.00  0.00     0.173 C
ENDROOT
BRANCH   3   4
HETATM    4  C4  UNL     1      27.408   6.720   3.744  1.00  0.00    -0.091 C
HETATM    5  C5  UNL     1      26.936   6.814   4.851  1.00  0.00    -0.079 C
BRANCH   5   6
HETATM    6  C6  UNL     1      26.378   6.924   6.166  1.00  0.00     0.054 C
HETATM    7  C7  UNL     1      25.709   5.900   6.665  1.00  0.00     0.020 C
ENDBRANCH   5   6
ENDBRANCH   3   4
TORSDOF 2
ENDMDL