MODEL 4
REMARK VINA RESULT: -4.606536489      0.630      1.139
REMARK  0 active torsions:
REMARK  status: ('A' for Active; 'I' for Inactive)
ROOT
HETATM    1  C1  UNL     1      26.290   5.213   6.207  1.00  0.00     0.005 C
HETATM    2  C2  UNL     1      26.447   6.727   5.955  1.00  0.00     0.005 C
HETATM    3  C3  UNL     1      26.253   6.735   4.466  1.00  0.00    -0.014 C
HETATM    4  C4  UNL     1      24.988   5.871   4.338  1.00  0.00     0.009 C
HETATM    5  C5  UNL     1      25.917   4.781   4.823  1.00  0.00    -0.014 C
HETATM    6  C6  UNL     1      26.996   5.514   4.011  1.00  0.00     0.009 C
ENDROOT
TORSDOF 0
ENDMDL