MODEL 2
REMARK VINA RESULT: -4.304041621      1.479      2.186
REMARK  1 active torsions:
REMARK  status: ('A' for Active; 'I' for Inactive)
REMARK    1  A    between atoms: N1_1  and  C1_5
ROOT
HETATM    1  C1  UNL     1      26.419   6.654   4.682  1.00  0.00     0.128 A
HETATM    2  C2  UNL     1      25.467   5.522   4.506  1.00  0.00     0.039 C
HETATM    3  C3  UNL     1      25.596   5.098   5.956  1.00  0.00     0.010 C
HETATM    4  C4  UNL     1      26.828   5.982   6.027  1.00  0.00     0.024 A
HETATM    5  C5  UNL     1      26.546   7.428   5.922  1.00  0.00     0.046 A
ENDROOT
BRANCH   1   6
HETATM    6  N1  UNL     1      27.449   6.798   3.687  1.00  0.00    -0.070 N
ATOM      7  H13 UNL     1      27.021   6.918   2.769  1.00  0.00     0.275 HD
ATOM      8  H12 UNL     1      27.908   7.702   3.800  1.00  0.00     0.275 HD
ATOM      9  H11 UNL     1      28.152   6.062   3.642  1.00  0.00     0.275 HD
ENDBRANCH   1   6
TORSDOF 1
ENDMDL