MODEL 3
REMARK VINA RESULT: -5.306861294      0.435      1.884
REMARK  0 active torsions:
REMARK  status: ('A' for Active; 'I' for Inactive)
ROOT
HETATM    1  C1  UNL     1      26.933   6.973   5.256  1.00  0.00    -0.030 A
HETATM    2  C2  UNL     1      26.492   6.540   5.898  1.00  0.00    -0.030 A
HETATM    3  C3  UNL     1      25.753   5.460   6.244  1.00  0.00     0.026 A
HETATM    4  C4  UNL     1      25.809   4.858   4.685  1.00  0.00     0.004 A
HETATM    5  C5  UNL     1      26.580   5.527   3.652  1.00  0.00     0.004 A
HETATM    6  C6  UNL     1      27.328   7.002   3.953  1.00  0.00     0.026 A
ENDROOT
TORSDOF 0
ENDMDL