MODEL 1
REMARK VINA RESULT: -4.658119452      0.000      0.000
REMARK  1 active torsions:
REMARK  status: ('A' for Active; 'I' for Inactive)
REMARK    1  A    between atoms: O1_1  and  C1_3
ROOT
HETATM    1  C1  UNL     1      25.808   5.199   4.376  1.00  0.00     0.118 C
HETATM    2  C2  UNL     1      26.853   6.213   4.023  1.00  0.00     0.032 C
HETATM    3  C3  UNL     1      26.581   7.320   5.047  1.00  0.00     0.002 C
HETATM    4  C4  UNL     1      26.534   6.484   6.303  1.00  0.00     0.002 C
HETATM    5  C5  UNL     1      25.766   5.241   5.879  1.00  0.00     0.032 C
ENDROOT
BRANCH   1   6
HETATM    6  O1  UNL     1      26.265   3.949   3.922  1.00  0.00    -0.396 OA
ATOM      7  H1  UNL     1      25.600   3.306   4.143  1.00  0.00     0.210 HD
ENDBRANCH   1   6
TORSDOF 1
ENDMDL