MODEL 3
REMARK VINA RESULT: -5.032105028      0.577      2.551
REMARK  0 active torsions:
REMARK  status: ('A' for Active; 'I' for Inactive)
ROOT
HETATM    1  C1  UNL     1      25.491   4.917   4.714  1.00  0.00     0.001 C
HETATM    2  C2  UNL     1      26.522   5.595   3.821  1.00  0.00     0.005 C
HETATM    3  C3  UNL     1      26.589   6.970   4.473  1.00  0.00    -0.010 A
HETATM    4  C4  UNL     1      27.598   7.266   5.508  1.00  0.00     0.010 A
HETATM    5  C5  UNL     1      26.257   6.757   5.935  1.00  0.00    -0.010 A
HETATM    6  C6  UNL     1      26.029   5.269   6.091  1.00  0.00     0.005 C
ENDROOT
TORSDOF 0
ENDMDL