MODEL 2
REMARK VINA RESULT: -4.218779468      1.766      2.655
REMARK  1 active torsions:
REMARK  status: ('A' for Active; 'I' for Inactive)
REMARK    1  A    between atoms: N1_1  and  C1_5
ROOT
HETATM    1  C1  UNL     1      26.766   6.028   5.413  1.00  0.00     0.191 C
HETATM    2  C2  UNL     1      26.394   6.526   4.039  1.00  0.00     0.017 C
HETATM    3  C3  UNL     1      26.993   5.495   3.131  1.00  0.00     0.007 C
HETATM    4  C4  UNL     1      26.652   4.220   3.934  1.00  0.00     0.007 C
HETATM    5  C5  UNL     1      25.860   4.848   5.033  1.00  0.00     0.017 C
HETATM    6  C6  UNL     1      25.017   5.913   4.330  1.00  0.00     0.013 C
ENDROOT
BRANCH   1   7
HETATM    7  N1  UNL     1      26.204   6.772   6.517  1.00  0.00    -0.074 N
ATOM      8  H13 UNL     1      25.957   7.715   6.213  1.00  0.00     0.274 HD
ATOM      9  H12 UNL     1      25.279   6.409   6.749  1.00  0.00     0.274 HD
ATOM     10  H11 UNL     1      26.782   6.816   7.355  1.00  0.00     0.274 HD
ENDBRANCH   1   7
TORSDOF 1
ENDMDL