MODEL 5
REMARK VINA RESULT: -4.379425898      1.724      2.741
REMARK  1 active torsions:
REMARK  status: ('A' for Active; 'I' for Inactive)
REMARK    1  A    between atoms: O1_1  and  C1_3
ROOT
HETATM    1  C1  UNL     1      26.815   7.165   5.286  1.00  0.00     0.118 C
HETATM    2  C2  UNL     1      26.400   6.426   4.040  1.00  0.00     0.032 C
HETATM    3  C3  UNL     1      25.263   5.542   4.554  1.00  0.00     0.002 C
HETATM    4  C4  UNL     1      25.984   4.937   5.768  1.00  0.00     0.002 C
HETATM    5  C5  UNL     1      26.515   6.212   6.416  1.00  0.00     0.032 C
ENDROOT
BRANCH   1   6
HETATM    6  O1  UNL     1      28.170   7.467   5.311  1.00  0.00    -0.396 OA
ATOM      7  H1  UNL     1      28.723   6.697   5.257  1.00  0.00     0.210 HD
ENDBRANCH   1   6
TORSDOF 1
ENDMDL