MODEL 3
REMARK VINA RESULT: -4.496451901      0.643      2.327
REMARK  0 active torsions:
REMARK  status: ('A' for Active; 'I' for Inactive)
ROOT
HETATM    1  C1  UNL     1      26.928   5.981   3.709  1.00  0.00     0.005 C
HETATM    2  C2  UNL     1      26.248   4.670   3.973  1.00  0.00     0.005 C
HETATM    3  C3  UNL     1      25.456   5.385   5.068  1.00  0.00    -0.010 A
HETATM    4  C4  UNL     1      26.225   5.930   6.212  1.00  0.00     0.010 A
HETATM    5  C5  UNL     1      26.314   6.599   4.915  1.00  0.00    -0.010 A
ENDROOT
TORSDOF 0
ENDMDL