MODEL 5
REMARK VINA RESULT: -7.565782701      4.024      9.004
REMARK  3 active torsions:
REMARK  status: ('A' for Active; 'I' for Inactive)
REMARK       I    between atoms: C2_2  and  N1_4
REMARK    1  A    between atoms: N1_4  and  C3_6
REMARK    2  A    between atoms: C3_6  and  N2_8
REMARK    3  A    between atoms: C12_21  and  C13_22
ROOT
HETATM    1  N2  UNL     1       0.841 -28.146  36.526  1.00  0.00    -0.166 N
ATOM      2  H2  UNL     1       0.686 -27.186  36.218  1.00  0.00     0.186 HD
HETATM    3  C4  UNL     1       1.934 -28.439  37.131  1.00  0.00     0.686 C
HETATM    4  N3  UNL     1       2.010 -29.825  37.504  1.00  0.00    -0.191 N
ATOM      5  H3  UNL     1       1.160 -30.376  37.380  1.00  0.00     0.184 HD
HETATM    6  C5  UNL     1       3.122 -30.502  38.019  1.00  0.00     0.060 A
HETATM    7  C6  UNL     1       2.859 -31.811  38.353  1.00  0.00     0.031 A
HETATM    8  C7  UNL     1       3.862 -32.622  38.880  1.00  0.00     0.002 A
HETATM    9  C8  UNL     1       5.145 -32.122  39.076  1.00  0.00     0.001 A
HETATM   10  C9  UNL     1       5.382 -30.798  38.730  1.00  0.00     0.015 A
HETATM   11  C10 UNL     1       4.379 -30.006  38.210  1.00  0.00     0.012 A
HETATM   12  C11 UNL     1       4.923 -28.663  37.942  1.00  0.00     0.064 A
HETATM   13  S2  UNL     1       6.576 -28.167  38.040  1.00  0.00    -0.066 SA
HETATM   14  C12 UNL     1       6.371 -26.530  37.596  1.00  0.00     0.103 A
HETATM   15  N5  UNL     1       5.074 -26.449  37.400  1.00  0.00    -0.333 N
ATOM     16  H5  UNL     1       4.656 -25.563  37.118  1.00  0.00     0.168 HD
HETATM   17  C18 UNL     1       4.323 -27.499  37.565  1.00  0.00     0.140 A
HETATM   18  N6  UNL     1       2.889 -27.406  37.348  1.00  0.00    -0.175 N
ATOM     19  H6  UNL     1       2.510 -26.459  37.353  1.00  0.00     0.186 HD
ENDROOT
BRANCH   1  20
HETATM   20  C3  UNL     1      -0.160 -29.125  36.274  1.00  0.00     0.193 C
HETATM   21  S1  UNL     1      -1.358 -29.452  37.316  1.00  0.00    -0.040 SA
BRANCH  20  22
HETATM   22  N1  UNL     1      -0.088 -29.832  35.052  1.00  0.00    -0.304 N
HETATM   23  C2  UNL     1       0.065 -29.139  33.837  1.00  0.00     0.219 C
HETATM   24  C1  UNL     1       0.138 -29.905  32.569  1.00  0.00     0.117 C
HETATM   25  O1  UNL     1       0.143 -27.895  33.787  1.00  0.00    -0.274 OA
ATOM     26  H1  UNL     1      -0.148 -30.850  35.051  1.00  0.00     0.171 HD
ENDBRANCH  20  22
ENDBRANCH   1  20
BRANCH  14  27
HETATM   27  C13 UNL     1       7.410 -25.518  37.480  1.00  0.00     0.066 A
HETATM   28  C14 UNL     1       7.836 -24.831  38.598  1.00  0.00     0.032 A
HETATM   29  C15 UNL     1       8.817 -23.863  38.542  1.00  0.00     0.004 A
HETATM   30  C16 UNL     1       9.392 -23.573  37.326  1.00  0.00     0.017 A
HETATM   31  C17 UNL     1       8.963 -24.264  36.211  1.00  0.00     0.088 A
HETATM   32  N4  UNL     1       7.990 -25.214  36.310  1.00  0.00    -0.364 N
ATOM     33  H4  UNL     1       7.693 -25.708  35.468  1.00  0.00     0.165 HD
ENDBRANCH  14  27
TORSDOF 3
ENDMDL