MODEL 5
REMARK VINA RESULT: -9.670490828      1.282      1.763
REMARK  5 active torsions:
REMARK  status: ('A' for Active; 'I' for Inactive)
REMARK    1  A    between atoms: C6_8  and  N2_9
REMARK    2  A    between atoms: N2_9  and  C7_11
REMARK    3  A    between atoms: C7_11  and  O1_12
REMARK    4  A    between atoms: N3_14  and  C8_16
REMARK    5  A    between atoms: C9_19  and  C10_20
ROOT
HETATM    1  C8  UNL     1       8.054 -24.893  36.316  1.00  0.00     0.685 A
HETATM    2  N4  UNL     1       9.200 -24.233  36.445  1.00  0.00    -0.191 N
ATOM      3  H4  UNL     1       9.159 -23.238  36.665  1.00  0.00     0.184 HD
HETATM    4  C9  UNL     1      10.414 -24.803  36.302  1.00  0.00     0.062 A
HETATM    5  C16 UNL     1      10.511 -26.156  36.001  1.00  0.00     0.048 A
HETATM    6  C17 UNL     1       9.305 -26.820  35.872  1.00  0.00     0.108 A
HETATM    7  N8  UNL     1       8.121 -26.225  36.022  1.00  0.00    -0.202 N
ATOM      8  H8  UNL     1       7.262 -26.766  35.917  1.00  0.00     0.183 HD
ENDROOT
BRANCH   1   9
HETATM    9  N3  UNL     1       6.871 -24.329  36.446  1.00  0.00    -0.155 N
HETATM   10  C7  UNL     1       5.845 -24.878  37.088  1.00  0.00     0.237 C
ATOM     11  H3  UNL     1       6.733 -23.410  36.026  1.00  0.00     0.188 HD
BRANCH  10  12
HETATM   12  N2  UNL     1       4.835 -25.433  37.727  1.00  0.00    -0.302 N
ATOM     13  H2  UNL     1       4.238 -24.811  38.272  1.00  0.00     0.171 HD
BRANCH  12  14
HETATM   14  C6  UNL     1       4.525 -26.694  37.730  1.00  0.00     0.152 A
HETATM   15  N1  UNL     1       3.308 -27.222  37.527  1.00  0.00    -0.335 N
HETATM   16  C5  UNL     1       3.174 -28.528  37.572  1.00  0.00     0.051 A
ATOM     17  H1  UNL     1       2.504 -26.622  37.341  1.00  0.00     0.168 HD
HETATM   18  C4  UNL     1       1.962 -29.236  37.381  1.00  0.00     0.031 A
HETATM   19  C18 UNL     1       4.286 -29.276  37.823  1.00  0.00     0.035 A
HETATM   20  C3  UNL     1       1.971 -30.597  37.457  1.00  0.00     0.009 A
HETATM   21  C2  UNL     1       3.060 -31.363  37.706  1.00  0.00    -0.061 A
HETATM   22  C1  UNL     1       3.000 -32.838  37.772  1.00  0.00     0.048 C
HETATM   23  C19 UNL     1       4.254 -30.678  37.894  1.00  0.00     0.028 A
HETATM   24  S1  UNL     1       5.493 -28.079  37.988  1.00  0.00    -0.052 SA
ENDBRANCH  12  14
ENDBRANCH  10  12
BRANCH  10  25
HETATM   25  O1  UNL     1       5.021 -23.505  36.962  1.00  0.00    -0.332 OA
ATOM     26  H1  UNL     1       5.807 -23.010  37.160  1.00  0.00     0.221 HD
ENDBRANCH  10  25
ENDBRANCH   1   9
BRANCH   4  27
HETATM   27  C10 UNL     1      11.636 -24.027  36.488  1.00  0.00     0.009 A
HETATM   28  C11 UNL     1      11.865 -22.835  35.877  1.00  0.00     0.102 A
HETATM   29  N5  UNL     1      13.056 -22.194  36.102  1.00  0.00    -0.362 N
HETATM   30  C12 UNL     1      13.974 -22.737  36.909  1.00  0.00     0.077 A
ATOM     31  H5  UNL     1      13.243 -21.298  35.652  1.00  0.00     0.165 HD
HETATM   32  C13 UNL     1      15.251 -22.343  37.324  1.00  0.00     0.139 A
HETATM   33  C14 UNL     1      13.763 -23.954  37.543  1.00  0.00     0.077 A
HETATM   34  N6  UNL     1      15.736 -23.301  38.156  1.00  0.00    -0.309 N
HETATM   35  N7  UNL     1      14.852 -24.245  38.280  1.00  0.00    -0.299 N
ATOM     36  H6  UNL     1      16.648 -23.282  38.612  1.00  0.00     0.186 HD
ATOM     37  H7  UNL     1      14.965 -25.082  38.850  1.00  0.00     0.187 HD
HETATM   38  C15 UNL     1      12.589 -24.609  37.336  1.00  0.00     0.048 A
ENDBRANCH   4  27
TORSDOF 5
ENDMDL