MODEL 2
REMARK VINA RESULT: -11.040629610      1.854      3.101
REMARK  2 active torsions:
REMARK  status: ('A' for Active; 'I' for Inactive)
REMARK    1  A    between atoms: C5_8  and  N2_9
REMARK    2  A    between atoms: N2_9  and  C6_11
ROOT
HETATM    1  N2  UNL     1      10.621 -26.105  38.871  1.00  0.00    -0.339 N
ATOM      2  H2  UNL     1      11.255 -26.217  39.662  1.00  0.00     0.167 HD
ENDROOT
BRANCH   1   3
HETATM    3  C5  UNL     1       9.472 -26.919  38.865  1.00  0.00     0.034 A
HETATM    4  C4  UNL     1       9.320 -27.937  39.777  1.00  0.00     0.032 A
HETATM    5  C3  UNL     1       8.211 -28.731  39.777  1.00  0.00     0.033 A
HETATM    6  C2  UNL     1       7.214 -28.503  38.832  1.00  0.00     0.046 A
HETATM    7  N1  UNL     1       6.127 -29.284  38.835  1.00  0.00    -0.322 N
HETATM    8  C16 UNL     1       7.371 -27.474  37.913  1.00  0.00     0.004 A
HETATM    9  C1  UNL     1       5.162 -29.082  37.939  1.00  0.00     0.257 A
ATOM     10  H1  UNL     1       6.037 -30.033  39.522  1.00  0.00     0.169 HD
HETATM   11  O1  UNL     1       4.142 -29.840  37.968  1.00  0.00    -0.267 OA
HETATM   12  C22 UNL     1       5.247 -28.083  36.999  1.00  0.00     0.043 A
HETATM   13  C17 UNL     1       6.370 -27.245  36.965  1.00  0.00    -0.008 A
HETATM   14  C21 UNL     1       4.227 -27.910  36.094  1.00  0.00     0.018 A
HETATM   15  C18 UNL     1       6.445 -26.250  36.020  1.00  0.00     0.013 A
HETATM   16  C19 UNL     1       5.424 -26.069  35.106  1.00  0.00     0.001 A
HETATM   17  C20 UNL     1       4.320 -26.904  35.151  1.00  0.00     0.001 A
HETATM   18  C15 UNL     1       8.479 -26.670  37.903  1.00  0.00     0.044 A
ENDBRANCH   1   3
BRANCH   1  19
HETATM   19  C6  UNL     1      10.953 -25.243  37.994  1.00  0.00     0.153 A
HETATM   20  N3  UNL     1      10.013 -24.855  37.094  1.00  0.00    -0.337 N
HETATM   21  C7  UNL     1      10.338 -23.949  36.160  1.00  0.00     0.061 A
ATOM     22  H3  UNL     1       9.071 -25.246  37.128  1.00  0.00     0.167 HD
HETATM   23  C8  UNL     1       9.380 -23.550  35.241  1.00  0.00     0.032 A
HETATM   24  C12 UNL     1      11.629 -23.406  36.106  1.00  0.00     0.072 A
HETATM   25  C9  UNL     1       9.724 -22.630  34.298  1.00  0.00     0.002 A
HETATM   26  C10 UNL     1      10.983 -22.098  34.242  1.00  0.00     0.002 A
HETATM   27  C11 UNL     1      11.956 -22.481  35.151  1.00  0.00     0.032 A
HETATM   28  N4  UNL     1      12.555 -23.800  37.005  1.00  0.00    -0.242 N
HETATM   29  C13 UNL     1      13.829 -23.467  37.195  1.00  0.00     0.347 A
HETATM   30  C14 UNL     1      12.222 -24.715  37.948  1.00  0.00     0.176 A
HETATM   31  O2  UNL     1      14.584 -22.676  36.597  1.00  0.00    -0.245 OA
HETATM   32  N5  UNL     1      14.310 -24.173  38.262  1.00  0.00    -0.249 N
HETATM   33  N6  UNL     1      13.315 -24.921  38.697  1.00  0.00    -0.278 N
ATOM     34  H5  UNL     1      15.254 -24.129  38.647  1.00  0.00     0.192 HD
ATOM     35  H6  UNL     1      13.368 -25.563  39.488  1.00  0.00     0.189 HD
ENDBRANCH   1  19
TORSDOF 2
ENDMDL