MODEL 5
REMARK VINA RESULT: -7.327177035      0.808      1.169
REMARK  3 active torsions:
REMARK  status: ('A' for Active; 'I' for Inactive)
REMARK    1  A    between atoms: C6_6  and  N1_7
REMARK    2  A    between atoms: C7_10  and  C8_11
REMARK       I    between atoms: N3_17  and  C14_19
REMARK       I    between atoms: C14_19  and  N5_23
REMARK    3  A    between atoms: N5_23  and  C15_25
ROOT
HETATM    1  N1  UNL     1       4.508 -28.589  37.690  1.00  0.00    -0.239 N
HETATM    2  N2  UNL     1       5.068 -29.725  38.066  1.00  0.00    -0.295 N
ATOM      3  H2  UNL     1       6.057 -29.832  38.295  1.00  0.00     0.187 HD
HETATM    4  C7  UNL     1       4.167 -30.721  38.107  1.00  0.00     0.037 A
HETATM    5  C12 UNL     1       2.964 -30.166  37.730  1.00  0.00     0.078 A
HETATM    6  C13 UNL     1       3.198 -28.823  37.472  1.00  0.00     0.144 A
HETATM    7  N3  UNL     1       2.321 -27.969  37.097  1.00  0.00    -0.175 N
ATOM      8  H3  UNL     1       2.598 -27.001  36.937  1.00  0.00     0.186 HD
HETATM    9  C14 UNL     1       0.946 -28.357  36.899  1.00  0.00     0.692 C
HETATM   10  N4  UNL     1       0.530 -28.689  35.721  1.00  0.00    -0.234 N
ATOM     11  H41 UNL     1      -0.442 -28.963  35.581  1.00  0.00     0.174 HD
ATOM     12  H42 UNL     1       1.202 -28.664  34.954  1.00  0.00     0.174 HD
HETATM   13  N5  UNL     1       0.008 -28.393  37.968  1.00  0.00    -0.022 N
ATOM     14  H5  UNL     1      -0.227 -29.269  38.433  1.00  0.00     0.203 HD
ENDROOT
BRANCH   1  15
HETATM   15  C6  UNL     1       5.145 -27.310  37.526  1.00  0.00     0.059 A
HETATM   16  C5  UNL     1       5.857 -27.009  36.375  1.00  0.00     0.031 A
HETATM   17  C4  UNL     1       6.481 -25.800  36.183  1.00  0.00     0.003 A
HETATM   18  C3  UNL     1       6.401 -24.853  37.155  1.00  0.00     0.007 A
HETATM   19  C2  UNL     1       5.699 -25.110  38.325  1.00  0.00    -0.060 A
HETATM   20  C1  UNL     1       5.638 -24.038  39.368  1.00  0.00     0.048 C
HETATM   21  C20 UNL     1       5.083 -26.330  38.492  1.00  0.00     0.038 A
ENDBRANCH   1  15
BRANCH  13  22
HETATM   22  C15 UNL     1      -0.534 -27.278  38.329  1.00  0.00     0.705 A
HETATM   23  N6  UNL     1      -1.073 -26.328  37.525  1.00  0.00    -0.197 N
HETATM   24  C16 UNL     1      -1.539 -25.323  38.275  1.00  0.00     0.157 A
ATOM     25  H6  UNL     1      -1.115 -26.373  36.507  1.00  0.00     0.183 HD
HETATM   26  C17 UNL     1      -1.290 -25.647  39.592  1.00  0.00     0.162 A
HETATM   27  N7  UNL     1      -1.449 -25.183  40.856  1.00  0.00    -0.278 N
HETATM   28  N9  UNL     1      -0.682 -26.833  39.599  1.00  0.00    -0.124 N
HETATM   29  C18 UNL     1      -2.064 -23.931  41.251  1.00  0.00     0.179 C
HETATM   30  N8  UNL     1      -0.922 -26.119  41.633  1.00  0.00    -0.292 N
HETATM   31  C19 UNL     1      -0.450 -27.130  40.881  1.00  0.00     0.225 A
ATOM     32  H8  UNL     1      -0.880 -26.079  42.652  1.00  0.00     0.188 HD
ENDBRANCH  13  22
BRANCH   4  33
HETATM   33  C8  UNL     1       4.330 -32.147  38.467  1.00  0.00    -0.007 C
HETATM   34  C9  UNL     1       5.495 -32.234  39.427  1.00  0.00     0.021 C
HETATM   35  C10 UNL     1       3.091 -32.608  39.226  1.00  0.00     0.021 C
HETATM   36  C11 UNL     1       4.501 -33.034  37.263  1.00  0.00     0.021 C
ENDBRANCH   4  33
TORSDOF 3
ENDMDL