MODEL 5
REMARK VINA RESULT: -10.171289423      3.284      8.956
REMARK  1 active torsions:
REMARK  status: ('A' for Active; 'I' for Inactive)
REMARK    1  A    between atoms: C5_8  and  C6_9
ROOT
HETATM    1  N1  UNL     1       4.781 -25.759  34.949  1.00  0.00    -0.398 N
ATOM      2  H11 UNL     1       4.009 -26.294  34.551  1.00  0.00     0.156 HD
ATOM      3  H12 UNL     1       5.036 -24.841  34.588  1.00  0.00     0.156 HD
HETATM    4  C1  UNL     1       5.421 -26.288  35.923  1.00  0.00     0.048 A
HETATM    5  C2  UNL     1       6.539 -25.515  36.499  1.00  0.00     0.005 A
HETATM    6  C3  UNL     1       6.885 -24.262  36.006  1.00  0.00     0.015 A
HETATM    7  C4  UNL     1       7.950 -23.562  36.579  1.00  0.00     0.012 A
HETATM    8  C5  UNL     1       8.657 -24.107  37.626  1.00  0.00    -0.034 A
HETATM    9  C11 UNL     1       8.282 -25.379  38.105  1.00  0.00     0.028 A
HETATM   10  C12 UNL     1       7.234 -26.057  37.534  1.00  0.00     0.028 A
HETATM   11  C13 UNL     1       6.869 -27.395  38.066  1.00  0.00     0.195 A
HETATM   12  O4  UNL     1       7.564 -27.802  39.012  1.00  0.00    -0.287 OA
HETATM   13  C14 UNL     1       5.778 -28.169  37.517  1.00  0.00     0.038 A
HETATM   14  C15 UNL     1       5.057 -27.605  36.441  1.00  0.00     0.006 A
HETATM   15  C16 UNL     1       4.023 -28.326  35.911  1.00  0.00     0.015 A
HETATM   16  C17 UNL     1       3.697 -29.561  36.413  1.00  0.00     0.013 A
HETATM   17  C18 UNL     1       4.402 -30.104  37.457  1.00  0.00    -0.025 A
HETATM   18  C19 UNL     1       4.058 -31.360  37.954  1.00  0.00     0.012 A
HETATM   19  C20 UNL     1       4.750 -31.924  39.002  1.00  0.00     0.001 A
HETATM   20  C21 UNL     1       5.803 -31.213  39.555  1.00  0.00     0.001 A
HETATM   21  C22 UNL     1       6.160 -29.969  39.081  1.00  0.00     0.013 A
HETATM   22  C23 UNL     1       5.464 -29.417  38.036  1.00  0.00    -0.011 A
ENDROOT
BRANCH   8  23
HETATM   23  C6  UNL     1       9.763 -23.391  38.211  1.00  0.00     0.034 C
HETATM   24  C7  UNL     1      11.026 -23.464  37.967  1.00  0.00     0.101 A
HETATM   25  C8  UNL     1      11.629 -24.341  36.999  1.00  0.00     0.265 A
HETATM   26  C10 UNL     1      11.929 -22.541  38.713  1.00  0.00     0.265 A
HETATM   27  O1  UNL     1      10.918 -25.151  36.340  1.00  0.00    -0.267 OA
HETATM   28  N2  UNL     1      13.049 -24.358  36.728  1.00  0.00    -0.275 N
HETATM   29  C9  UNL     1      13.861 -23.467  37.457  1.00  0.00     0.329 A
ATOM     30  H2  UNL     1      13.448 -24.992  36.035  1.00  0.00     0.173 HD
HETATM   31  O2  UNL     1      15.083 -23.440  37.263  1.00  0.00    -0.246 OA
HETATM   32  N3  UNL     1      13.297 -22.576  38.434  1.00  0.00    -0.275 N
ATOM     33  H3  UNL     1      13.918 -21.946  38.941  1.00  0.00     0.173 HD
HETATM   34  O3  UNL     1      11.447 -21.753  39.572  1.00  0.00    -0.267 OA
ENDBRANCH   8  23
TORSDOF 1
ENDMDL