MODEL 1
REMARK VINA RESULT: -9.399034003      0.000      0.000
REMARK  3 active torsions:
REMARK  status: ('A' for Active; 'I' for Inactive)
REMARK       I    between atoms: C1_2  and  N1_3
REMARK       I    between atoms: C1_2  and  N3_17
REMARK    1  A    between atoms: N1_3  and  C2_5
REMARK    2  A    between atoms: C4_7  and  C5_8
REMARK    3  A    between atoms: N3_17  and  C11_19
ROOT
HETATM    1  O1  UNL     1       9.990 -27.760  38.794  1.00  0.00    -0.246 OA
HETATM    2  C1  UNL     1       9.030 -27.042  39.071  1.00  0.00     0.339 C
HETATM    3  N1  UNL     1       7.948 -27.604  39.871  1.00  0.00    -0.301 N
ATOM      4  H1  UNL     1       8.056 -27.781  40.870  1.00  0.00     0.171 HD
HETATM    5  N3  UNL     1       8.918 -25.712  38.662  1.00  0.00    -0.140 N
ATOM      6  H3  UNL     1       8.074 -25.221  38.956  1.00  0.00     0.189 HD
ENDROOT
BRANCH   3   7
HETATM    7  C2  UNL     1       6.825 -27.872  39.241  1.00  0.00     0.096 A
HETATM    8  C3  UNL     1       6.334 -29.109  38.917  1.00  0.00     0.069 A
HETATM    9  C4  UNL     1       5.163 -29.145  38.269  1.00  0.00     0.051 A
HETATM   10  N2  UNL     1       4.572 -27.977  37.994  1.00  0.00    -0.324 N
HETATM   11  S1  UNL     1       5.630 -26.830  38.629  1.00  0.00     0.004 SA
ATOM     12  H2  UNL     1       3.686 -27.818  37.513  1.00  0.00     0.174 HD
BRANCH   9  13
HETATM   13  C5  UNL     1       4.516 -30.424  37.856  1.00  0.00    -0.009 A
HETATM   14  C6  UNL     1       3.685 -30.493  36.760  1.00  0.00     0.014 A
HETATM   15  C7  UNL     1       3.076 -31.681  36.366  1.00  0.00     0.001 A
HETATM   16  C8  UNL     1       3.284 -32.848  37.064  1.00  0.00     0.000 A
HETATM   17  C9  UNL     1       4.113 -32.781  38.155  1.00  0.00     0.001 A
HETATM   18  C10 UNL     1       4.719 -31.593  38.547  1.00  0.00     0.014 A
ENDBRANCH   9  13
ENDBRANCH   3   7
BRANCH   5  19
HETATM   19  C11 UNL     1       9.838 -24.963  37.886  1.00  0.00     0.696 A
HETATM   20  N4  UNL     1      11.046 -24.926  38.414  1.00  0.00    -0.112 N
HETATM   21  S2  UNL     1      12.334 -24.097  37.687  1.00  0.00     0.278 S
ATOM     22  H4  UNL     1      11.212 -25.415  39.294  1.00  0.00     0.197 HD
HETATM   23  O2  UNL     1      12.751 -22.932  38.574  1.00  0.00    -0.200 OA
HETATM   24  O3  UNL     1      13.522 -24.973  37.414  1.00  0.00    -0.200 OA
HETATM   25  C12 UNL     1      11.745 -23.360  36.198  1.00  0.00     0.107 A
HETATM   26  C13 UNL     1      12.591 -22.626  35.410  1.00  0.00     0.028 A
HETATM   27  C17 UNL     1      10.427 -23.553  35.872  1.00  0.00     0.072 A
HETATM   28  C14 UNL     1      12.124 -22.058  34.256  1.00  0.00     0.002 A
HETATM   29  C15 UNL     1      10.804 -22.236  33.905  1.00  0.00     0.002 A
HETATM   30  C16 UNL     1       9.964 -22.967  34.688  1.00  0.00     0.031 A
HETATM   31  N5  UNL     1       9.537 -24.315  36.683  1.00  0.00    -0.189 N
ATOM     32  H5  UNL     1       8.576 -24.397  36.350  1.00  0.00     0.184 HD
ENDBRANCH   5  19
TORSDOF 3
ENDMDL