MODEL 4
REMARK VINA RESULT: -8.550055045      2.138      6.673
REMARK  5 active torsions:
REMARK  status: ('A' for Active; 'I' for Inactive)
REMARK    1  A    between atoms: N2_5  and  C3_6
REMARK    2  A    between atoms: C10_13  and  N3_14
REMARK    3  A    between atoms: N3_14  and  C11_16
REMARK    4  A    between atoms: C11_16  and  N4_18
REMARK    5  A    between atoms: N4_18  and  C12_20
ROOT
HETATM    1  C1  UNL     1       1.815 -29.236  35.626  1.00  0.00     0.071 C
HETATM    2  C2  UNL     1       2.934 -28.596  36.388  1.00  0.00     0.038 A
HETATM    3  N1  UNL     1       3.231 -27.289  36.510  1.00  0.00    -0.297 N
ATOM      4  H1  UNL     1       2.702 -26.532  36.075  1.00  0.00     0.187 HD
HETATM    5  N2  UNL     1       4.297 -27.119  37.267  1.00  0.00    -0.252 N
HETATM    6  C9  UNL     1       4.769 -28.322  37.689  1.00  0.00     0.117 A
HETATM    7  C10 UNL     1       5.828 -28.701  38.479  1.00  0.00     0.152 A
HETATM    8  N6  UNL     1       6.040 -30.001  38.722  1.00  0.00    -0.282 N
ATOM      9  H6  UNL     1       6.822 -30.300  39.305  1.00  0.00     0.188 HD
HETATM   10  N7  UNL     1       5.215 -30.893  38.190  1.00  0.00    -0.288 N
ATOM     11  H7  UNL     1       5.385 -31.880  38.381  1.00  0.00     0.188 HD
HETATM   12  C17 UNL     1       4.169 -30.568  37.413  1.00  0.00     0.130 A
HETATM   13  S2  UNL     1       3.171 -31.698  36.773  1.00  0.00    -0.058 SA
HETATM   14  C18 UNL     1       3.898 -29.251  37.127  1.00  0.00     0.059 A
ENDROOT
BRANCH   7  15
HETATM   15  N3  UNL     1       6.601 -27.832  38.975  1.00  0.00    -0.316 N
ATOM     16  H3  UNL     1       6.173 -27.125  39.572  1.00  0.00     0.170 HD
BRANCH  15  17
HETATM   17  C11 UNL     1       7.997 -27.741  38.785  1.00  0.00     0.177 C
HETATM   18  S1  UNL     1       8.958 -28.332  39.955  1.00  0.00    -0.040 SA
BRANCH  17  19
HETATM   19  N4  UNL     1       8.552 -27.170  37.649  1.00  0.00    -0.333 N
ATOM     20  H4  UNL     1       8.528 -27.758  36.816  1.00  0.00     0.168 HD
BRANCH  19  21
HETATM   21  C12 UNL     1       9.082 -26.034  37.485  1.00  0.00     0.036 A
HETATM   22  C13 UNL     1       9.393 -25.675  36.168  1.00  0.00     0.046 A
HETATM   23  C14 UNL     1       9.975 -24.457  35.883  1.00  0.00     0.090 A
HETATM   24  N5  UNL     1      10.258 -23.584  36.856  1.00  0.00    -0.375 N
HETATM   25  C15 UNL     1       9.964 -23.915  38.134  1.00  0.00     0.090 A
ATOM     26  H5  UNL     1      10.688 -22.686  36.639  1.00  0.00     0.164 HD
HETATM   27  C16 UNL     1       9.382 -25.127  38.449  1.00  0.00     0.046 A
ENDBRANCH  19  21
ENDBRANCH  17  19
ENDBRANCH  15  17
ENDBRANCH   7  15
BRANCH   5  28
HETATM   28  C3  UNL     1       4.916 -25.891  37.626  1.00  0.00     0.057 A
HETATM   29  C4  UNL     1       4.885 -25.437  38.923  1.00  0.00     0.031 A
HETATM   30  C5  UNL     1       5.489 -24.244  39.258  1.00  0.00     0.002 A
HETATM   31  C6  UNL     1       6.124 -23.501  38.301  1.00  0.00     0.000 A
HETATM   32  C7  UNL     1       6.163 -23.943  36.997  1.00  0.00     0.002 A
HETATM   33  C8  UNL     1       5.558 -25.138  36.666  1.00  0.00     0.031 A
ENDBRANCH   5  28
TORSDOF 5
ENDMDL