MODEL 4
REMARK VINA RESULT: -7.852073800      1.411      1.498
REMARK  5 active torsions:
REMARK  status: ('A' for Active; 'I' for Inactive)
REMARK    1  A    between atoms: C4_8  and  C5_9
REMARK    2  A    between atoms: C9_17  and  C10_18
REMARK    3  A    between atoms: C11_19  and  C12_20
REMARK    4  A    between atoms: C17_25  and  C18_26
REMARK    5  A    between atoms: C19_27  and  C20_28
ROOT
HETATM    1  C5  UNL     1       8.546 -24.985  37.302  1.00  0.00     0.024 A
HETATM    2  C6  UNL     1       8.320 -23.619  37.420  1.00  0.00     0.104 A
HETATM    3  N3  UNL     1       7.092 -23.365  37.893  1.00  0.00    -0.349 N
ATOM      4  H3  UNL     1       6.692 -22.443  38.066  1.00  0.00     0.166 HD
HETATM    5  C7  UNL     1       6.482 -24.547  38.098  1.00  0.00     0.133 A
HETATM    6  N4  UNL     1       5.257 -24.905  38.541  1.00  0.00    -0.348 N
ATOM      7  H4  UNL     1       4.586 -24.187  38.813  1.00  0.00     0.167 HD
HETATM    8  C8  UNL     1       4.920 -26.204  38.625  1.00  0.00     0.128 A
HETATM    9  C9  UNL     1       5.767 -27.227  38.280  1.00  0.00     0.103 A
HETATM   10  N8  UNL     1       6.996 -26.830  37.836  1.00  0.00    -0.344 N
ATOM     11  H8  UNL     1       7.671 -27.545  37.563  1.00  0.00     0.167 HD
HETATM   12  C22 UNL     1       7.349 -25.553  37.746  1.00  0.00     0.090 A
ENDROOT
BRANCH   9  13
HETATM   13  C10 UNL     1       5.436 -28.622  38.335  1.00  0.00    -0.042 C
HETATM   14  C11 UNL     1       5.157 -29.804  38.423  1.00  0.00    -0.058 C
BRANCH  14  15
HETATM   15  C12 UNL     1       4.835 -31.197  38.568  1.00  0.00     0.036 A
HETATM   16  C13 UNL     1       5.545 -32.007  39.454  1.00  0.00     0.022 A
HETATM   17  C14 UNL     1       5.263 -33.351  39.566  1.00  0.00     0.002 A
HETATM   18  C15 UNL     1       4.261 -33.867  38.780  1.00  0.00     0.002 A
HETATM   19  C16 UNL     1       3.558 -33.067  37.906  1.00  0.00     0.022 A
HETATM   20  C17 UNL     1       3.829 -31.708  37.779  1.00  0.00     0.036 A
BRANCH  20  21
HETATM   21  C18 UNL     1       3.048 -30.906  36.878  1.00  0.00    -0.057 C
HETATM   22  C19 UNL     1       2.362 -30.251  36.109  1.00  0.00    -0.023 C
BRANCH  22  23
HETATM   23  C20 UNL     1       1.524 -29.511  35.209  1.00  0.00     0.177 A
HETATM   24  N5  UNL     1       1.123 -29.838  33.948  1.00  0.00    -0.329 N
HETATM   25  C21 UNL     1       0.339 -28.867  33.457  1.00  0.00     0.199 A
ATOM     26  H5  UNL     1       1.379 -30.693  33.454  1.00  0.00     0.168 HD
HETATM   27  N6  UNL     1       0.244 -27.924  34.402  1.00  0.00    -0.294 N
HETATM   28  N7  UNL     1       0.963 -28.326  35.451  1.00  0.00    -0.277 N
ATOM     29  H6  UNL     1      -0.284 -27.054  34.333  1.00  0.00     0.187 HD
ATOM     30  H7  UNL     1       1.069 -27.799  36.318  1.00  0.00     0.189 HD
ENDBRANCH  22  23
ENDBRANCH  20  21
ENDBRANCH  14  15
ENDBRANCH   9  13
BRANCH   1  31
HETATM   31  C4  UNL     1       9.734 -25.684  36.859  1.00  0.00     0.018 A
HETATM   32  C2  UNL     1      10.999 -25.619  37.375  1.00  0.00     0.034 A
HETATM   33  C1  UNL     1      11.427 -24.751  38.515  1.00  0.00     0.070 C
HETATM   34  N1  UNL     1      11.811 -26.459  36.689  1.00  0.00    -0.305 N
HETATM   35  N2  UNL     1      11.050 -27.034  35.759  1.00  0.00    -0.311 N
ATOM     36  H1  UNL     1      12.805 -26.618  36.851  1.00  0.00     0.186 HD
HETATM   37  C3  UNL     1       9.782 -26.591  35.828  1.00  0.00     0.121 A
ATOM     38  H2  UNL     1      11.385 -27.721  35.083  1.00  0.00     0.186 HD
ENDBRANCH   1  31
TORSDOF 5
ENDMDL