MODEL 4
REMARK VINA RESULT: -9.062186914      2.725      6.106
REMARK  3 active torsions:
REMARK  status: ('A' for Active; 'I' for Inactive)
REMARK       I    between atoms: C1_2  and  N1_3
REMARK       I    between atoms: C1_2  and  N3_15
REMARK    1  A    between atoms: N1_3  and  C2_5
REMARK    2  A    between atoms: N3_15  and  C9_17
REMARK    3  A    between atoms: N6_23  and  C11_24
ROOT
HETATM    1  C9  UNL     1      11.594 -23.894  35.353  1.00  0.00     0.710 A
HETATM    2  N4  UNL     1      12.018 -23.387  34.186  1.00  0.00    -0.184 N
ATOM      3  H4  UNL     1      12.884 -23.632  33.706  1.00  0.00     0.185 HD
HETATM    4  C10 UNL     1      11.105 -22.504  33.762  1.00  0.00     0.215 A
HETATM    5  N5  UNL     1      10.145 -22.491  34.679  1.00  0.00    -0.273 N
ATOM      6  H5  UNL     1       9.308 -21.911  34.631  1.00  0.00     0.189 HD
HETATM    7  N6  UNL     1      10.421 -23.332  35.662  1.00  0.00    -0.068 N
ENDROOT
BRANCH   1   8
HETATM    8  N3  UNL     1      12.167 -24.778  36.110  1.00  0.00    -0.139 N
HETATM    9  C1  UNL     1      11.717 -26.120  36.201  1.00  0.00     0.340 C
HETATM   10  O1  UNL     1      11.622 -26.858  35.166  1.00  0.00    -0.246 OA
HETATM   11  N1  UNL     1      11.345 -26.736  37.428  1.00  0.00    -0.288 N
ATOM     12  H1  UNL     1      12.039 -26.882  38.162  1.00  0.00     0.172 HD
ATOM     13  H3  UNL     1      12.976 -24.495  36.664  1.00  0.00     0.189 HD
BRANCH  11  14
HETATM   14  C2  UNL     1      10.113 -27.110  37.605  1.00  0.00     0.153 A
HETATM   15  N2  UNL     1       9.129 -27.250  36.715  1.00  0.00    -0.335 N
HETATM   16  C3  UNL     1       7.954 -27.646  37.143  1.00  0.00     0.051 A
ATOM     17  H2  UNL     1       9.286 -27.054  35.726  1.00  0.00     0.168 HD
HETATM   18  C4  UNL     1       6.809 -27.845  36.341  1.00  0.00     0.031 A
HETATM   19  C8  UNL     1       7.811 -27.892  38.482  1.00  0.00     0.035 A
HETATM   20  C5  UNL     1       5.637 -28.263  36.914  1.00  0.00     0.002 A
HETATM   21  C6  UNL     1       5.484 -28.515  38.273  1.00  0.00     0.002 A
HETATM   22  C7  UNL     1       6.602 -28.320  39.049  1.00  0.00     0.021 A
HETATM   23  S1  UNL     1       9.372 -27.544  39.075  1.00  0.00    -0.052 SA
ENDBRANCH  11  14
ENDBRANCH   1   8
BRANCH   7  24
HETATM   24  C11 UNL     1       9.596 -23.566  36.814  1.00  0.00     0.156 A
HETATM   25  N7  UNL     1      10.044 -23.492  38.077  1.00  0.00    -0.350 N
HETATM   26  C12 UNL     1       9.263 -23.713  39.147  1.00  0.00     0.090 A
ATOM     27  H7  UNL     1      11.025 -23.257  38.232  1.00  0.00     0.166 HD
HETATM   28  C13 UNL     1       7.929 -24.037  39.004  1.00  0.00     0.029 A
HETATM   29  C14 UNL     1       7.433 -24.122  37.718  1.00  0.00    -0.021 A
HETATM   30  C15 UNL     1       6.109 -24.442  37.540  1.00  0.00     0.012 A
HETATM   31  C19 UNL     1       8.270 -23.886  36.621  1.00  0.00     0.021 A
HETATM   32  C16 UNL     1       5.624 -24.524  36.245  1.00  0.00     0.001 A
HETATM   33  C17 UNL     1       6.435 -24.295  35.172  1.00  0.00     0.001 A
HETATM   34  C18 UNL     1       7.771 -23.973  35.348  1.00  0.00     0.016 A
ENDBRANCH   7  24
TORSDOF 3
ENDMDL