MODEL 5
REMARK VINA RESULT: -9.769257011      2.515      3.734
REMARK  3 active torsions:
REMARK  status: ('A' for Active; 'I' for Inactive)
REMARK    1  A    between atoms: C3_3  and  C4_4
REMARK    2  A    between atoms: C10_10  and  C11_11
REMARK    3  A    between atoms: C20_21  and  N2_22
ROOT
HETATM    1  C1  UNL     1      12.147 -21.612  31.268  1.00  0.00     0.112 C
HETATM    2  C2  UNL     1      12.275 -21.902  32.714  1.00  0.00    -0.105 C
HETATM    3  C3  UNL     1      12.370 -22.157  33.881  1.00  0.00    -0.067 C
ENDROOT
BRANCH   3   4
HETATM    4  C4  UNL     1      12.470 -22.488  35.292  1.00  0.00     0.028 A
HETATM    5  C5  UNL     1      13.406 -21.863  36.089  1.00  0.00     0.021 A
HETATM    6  C6  UNL     1      13.483 -22.194  37.426  1.00  0.00     0.002 A
HETATM    7  C7  UNL     1      12.633 -23.146  37.982  1.00  0.00     0.012 A
HETATM    8  C8  UNL     1      11.698 -23.770  37.184  1.00  0.00    -0.024 A
HETATM    9  C9  UNL     1      10.836 -24.725  37.716  1.00  0.00     0.024 A
HETATM   10  C25 UNL     1      11.631 -23.433  35.858  1.00  0.00    -0.007 A
HETATM   11  C10 UNL     1       9.891 -25.360  36.926  1.00  0.00    -0.025 A
HETATM   12  C23 UNL     1       9.845 -25.008  35.609  1.00  0.00     0.013 A
HETATM   13  C24 UNL     1      10.688 -24.067  35.066  1.00  0.00     0.014 A
BRANCH  11  14
HETATM   14  C11 UNL     1       9.021 -26.348  37.535  1.00  0.00    -0.024 A
HETATM   15  C12 UNL     1       9.501 -27.012  38.662  1.00  0.00     0.013 A
HETATM   16  C13 UNL     1       8.725 -27.962  39.290  1.00  0.00     0.014 A
HETATM   17  C14 UNL     1       7.456 -28.249  38.783  1.00  0.00    -0.007 A
HETATM   18  C15 UNL     1       6.672 -29.192  39.397  1.00  0.00     0.016 A
HETATM   19  C21 UNL     1       6.962 -27.606  37.672  1.00  0.00     0.068 A
HETATM   20  C16 UNL     1       5.425 -29.450  38.871  1.00  0.00     0.034 A
HETATM   21  C17 UNL     1       4.951 -28.787  37.747  1.00  0.00     0.081 A
HETATM   22  C18 UNL     1       3.753 -28.883  37.058  1.00  0.00     0.118 A
HETATM   23  N4  UNL     1       5.730 -27.868  37.160  1.00  0.00    -0.253 N
HETATM   24  C19 UNL     1       2.636 -29.737  37.339  1.00  0.00     0.105 C
HETATM   25  C20 UNL     1       3.848 -27.977  36.025  1.00  0.00     0.137 A
HETATM   26  N1  UNL     1       1.733 -30.451  37.572  1.00  0.00    -0.191 NA
HETATM   27  N3  UNL     1       5.051 -27.392  36.128  1.00  0.00    -0.277 N
ATOM     28  H3  UNL     1       5.399 -26.674  35.493  1.00  0.00     0.189 HD
HETATM   29  C22 UNL     1       7.765 -26.656  37.063  1.00  0.00     0.044 A
BRANCH  25  30
HETATM   30  N2  UNL     1       2.941 -27.726  35.111  1.00  0.00    -0.383 N
ATOM     31  H22 UNL     1       1.971 -28.039  35.124  1.00  0.00     0.157 HD
ATOM     32  H21 UNL     1       3.067 -27.184  34.256  1.00  0.00     0.157 HD
ENDBRANCH  25  30
ENDBRANCH  11  14
ENDBRANCH   3   4
TORSDOF 3
ENDMDL