MODEL 1
REMARK VINA RESULT: -8.671839316      0.000      0.000
REMARK  5 active torsions:
REMARK  status: ('A' for Active; 'I' for Inactive)
REMARK    1  A    between atoms: C1_2  and  N1_3
REMARK    2  A    between atoms: C1_2  and  N3_15
REMARK    3  A    between atoms: N1_3  and  C2_5
REMARK    4  A    between atoms: N3_15  and  C9_17
REMARK    5  A    between atoms: C10_20  and  C11_21
ROOT
HETATM    1  N3  UNL     1      11.454 -22.311  37.284  1.00  0.00    -0.313 N
ATOM      2  H3  UNL     1      11.327 -21.881  36.368  1.00  0.00     0.170 HD
ENDROOT
BRANCH   1   3
HETATM    3  C1  UNL     1      12.427 -21.812  38.198  1.00  0.00     0.179 C
HETATM    4  S1  UNL     1      13.987 -21.828  37.724  1.00  0.00    -0.040 SA
BRANCH   3   5
HETATM    5  N1  UNL     1      12.116 -21.305  39.487  1.00  0.00    -0.319 N
ATOM      6  H1  UNL     1      11.931 -21.972  40.236  1.00  0.00     0.169 HD
BRANCH   5   7
HETATM    7  C2  UNL     1      12.056 -20.058  39.759  1.00  0.00     0.108 A
HETATM    8  C3  UNL     1      11.660 -19.157  38.783  1.00  0.00     0.068 A
HETATM    9  C4  UNL     1      11.588 -17.778  39.066  1.00  0.00     0.020 A
HETATM   10  S2  UNL     1      11.161 -16.387  38.173  1.00  0.00    -0.101 SA
HETATM   11  C7  UNL     1      11.899 -17.267  40.298  1.00  0.00    -0.003 A
HETATM   12  C5  UNL     1      11.388 -15.204  39.380  1.00  0.00     0.051 A
HETATM   13  C6  UNL     1      11.797 -15.941  40.459  1.00  0.00     0.021 A
HETATM   14  C8  UNL     1      12.296 -18.231  41.251  1.00  0.00     0.102 A
HETATM   15  N2  UNL     1      12.350 -19.516  40.943  1.00  0.00    -0.351 N
ATOM     16  H2  UNL     1      12.644 -20.155  41.681  1.00  0.00     0.166 HD
ENDBRANCH   5   7
ENDBRANCH   3   5
ENDBRANCH   1   3
BRANCH   1  17
HETATM   17  C9  UNL     1      10.721 -23.346  37.653  1.00  0.00     0.151 A
HETATM   18  N4  UNL     1       9.408 -23.372  37.841  1.00  0.00    -0.335 N
HETATM   19  C10 UNL     1       8.847 -24.496  38.210  1.00  0.00     0.051 A
ATOM     20  H4  UNL     1       8.847 -22.533  37.700  1.00  0.00     0.168 HD
HETATM   21  C16 UNL     1       9.665 -25.583  38.380  1.00  0.00     0.083 A
HETATM   22  S3  UNL     1      11.201 -24.941  38.003  1.00  0.00    -0.063 SA
BRANCH  19  23
HETATM   23  C11 UNL     1       7.376 -24.619  38.444  1.00  0.00    -0.006 A
HETATM   24  C12 UNL     1       6.484 -24.335  37.444  1.00  0.00     0.030 A
HETATM   25  C13 UNL     1       5.121 -24.431  37.606  1.00  0.00     0.088 A
HETATM   26  N5  UNL     1       4.641 -24.821  38.793  1.00  0.00    -0.375 N
HETATM   27  C14 UNL     1       5.487 -25.106  39.790  1.00  0.00     0.088 A
ATOM     28  H5  UNL     1       3.635 -24.901  38.937  1.00  0.00     0.164 HD
HETATM   29  C15 UNL     1       6.860 -25.017  39.657  1.00  0.00     0.030 A
ENDBRANCH  19  23
ENDBRANCH   1  17
TORSDOF 5
ENDMDL