MODEL 4
REMARK VINA RESULT: -8.720631280      2.208      2.653
REMARK  4 active torsions:
REMARK  status: ('A' for Active; 'I' for Inactive)
REMARK       I    between atoms: C1_2  and  N1_3
REMARK       I    between atoms: C1_2  and  N4_24
REMARK    1  A    between atoms: N1_3  and  C2_5
REMARK    2  A    between atoms: C5_12  and  C6_13
REMARK    3  A    between atoms: C7_14  and  C8_15
REMARK    4  A    between atoms: N4_24  and  C16_26
ROOT
HETATM    1  C2  UNL     1       8.520 -25.085  38.043  1.00  0.00     0.129 A
HETATM    2  N2  UNL     1       8.022 -24.075  37.294  1.00  0.00    -0.337 N
ATOM      3  H2  UNL     1       8.550 -23.226  37.091  1.00  0.00     0.168 HD
HETATM    4  C3  UNL     1       6.753 -24.285  36.832  1.00  0.00     0.182 A
HETATM    5  N3  UNL     1       6.035 -25.362  37.068  1.00  0.00    -0.350 N
ATOM      6  H3  UNL     1       5.095 -25.422  36.676  1.00  0.00     0.166 HD
HETATM    7  C4  UNL     1       6.507 -26.412  37.826  1.00  0.00     0.073 A
HETATM    8  C5  UNL     1       5.884 -27.570  38.147  1.00  0.00     0.052 A
HETATM    9  C14 UNL     1       6.582 -28.456  38.921  1.00  0.00     0.073 A
HETATM   10  S1  UNL     1       8.066 -27.663  39.177  1.00  0.00    -0.094 SA
HETATM   11  C15 UNL     1       7.774 -26.230  38.301  1.00  0.00     0.077 A
ENDROOT
BRANCH   1  12
HETATM   12  N1  UNL     1       9.705 -25.010  38.537  1.00  0.00    -0.293 N
HETATM   13  C1  UNL     1      10.622 -23.983  38.161  1.00  0.00     0.326 C
HETATM   14  O1  UNL     1      10.373 -22.835  38.539  1.00  0.00    -0.247 OA
HETATM   15  N4  UNL     1      11.744 -24.314  37.394  1.00  0.00    -0.307 N
ATOM     16  H4  UNL     1      11.869 -25.292  37.135  1.00  0.00     0.170 HD
ATOM     17  H1  UNL     1      10.000 -25.708  39.221  1.00  0.00     0.172 HD
BRANCH  15  18
HETATM   18  C16 UNL     1      12.706 -23.395  36.959  1.00  0.00     0.051 A
HETATM   19  C17 UNL     1      13.932 -23.406  37.645  1.00  0.00     0.032 A
HETATM   20  C18 UNL     1      14.907 -22.541  37.240  1.00  0.00     0.019 A
HETATM   21  C19 UNL     1      14.732 -21.674  36.199  1.00  0.00     0.088 A
HETATM   22  N5  UNL     1      13.566 -21.680  35.563  1.00  0.00    -0.373 N
HETATM   23  C20 UNL     1      12.549 -22.525  35.923  1.00  0.00     0.117 A
ATOM     24  H5  UNL     1      13.423 -21.038  34.784  1.00  0.00     0.164 HD
ENDBRANCH  15  18
ENDBRANCH   1  12
BRANCH   8  25
HETATM   25  C6  UNL     1       4.518 -27.906  37.706  1.00  0.00    -0.059 C
HETATM   26  C7  UNL     1       3.405 -28.178  37.323  1.00  0.00    -0.061 C
BRANCH  26  27
HETATM   27  C8  UNL     1       2.092 -28.512  36.849  1.00  0.00     0.018 A
HETATM   28  C9  UNL     1       1.886 -28.847  35.509  1.00  0.00     0.020 A
HETATM   29  C10 UNL     1       0.631 -29.168  35.049  1.00  0.00     0.001 A
HETATM   30  C11 UNL     1      -0.468 -29.172  35.880  1.00  0.00     0.000 A
HETATM   31  C12 UNL     1      -0.277 -28.842  37.202  1.00  0.00     0.001 A
HETATM   32  C13 UNL     1       0.983 -28.521  37.660  1.00  0.00     0.020 A
ENDBRANCH  26  27
ENDBRANCH   8  25
TORSDOF 4
ENDMDL