MODEL 4
REMARK VINA RESULT: -7.523499908      3.094      4.099
REMARK  2 active torsions:
REMARK  status: ('A' for Active; 'I' for Inactive)
REMARK    1  A    between atoms: C7_8  and  S1_9
REMARK    2  A    between atoms: S1_9  and  N2_10
ROOT
HETATM    1  N1  UNL     1       0.258 -35.441  34.676  1.00  0.00    -0.191 NA
HETATM    2  C1  UNL     1       0.509 -34.406  35.120  1.00  0.00     0.099 C
HETATM    3  C2  UNL     1       0.798 -33.122  35.682  1.00  0.00     0.046 A
HETATM    4  C3  UNL     1      -0.179 -32.188  35.927  1.00  0.00     0.024 A
HETATM    5  C4  UNL     1       0.131 -30.940  36.489  1.00  0.00     0.016 A
HETATM    6  C5  UNL     1       1.441 -30.712  36.777  1.00  0.00     0.005 A
HETATM    7  C6  UNL     1       2.052 -29.624  37.333  1.00  0.00     0.029 A
HETATM    8  C7  UNL     1       1.393 -28.511  37.803  1.00  0.00     0.092 C
HETATM    9  C8  UNL     1       1.999 -27.240  37.816  1.00  0.00     0.027 C
HETATM   10  C9  UNL     1       3.336 -26.869  37.841  1.00  0.00     0.016 C
HETATM   11  C10 UNL     1       4.416 -27.688  38.098  1.00  0.00     0.005 A
HETATM   12  C11 UNL     1       4.478 -29.075  37.906  1.00  0.00     0.071 A
HETATM   13  N3  UNL     1       5.697 -29.494  38.278  1.00  0.00    -0.353 N
ATOM     14  H3  UNL     1       6.032 -30.457  38.250  1.00  0.00     0.166 HD
HETATM   15  C12 UNL     1       6.411 -28.413  38.700  1.00  0.00     0.043 A
HETATM   16  C13 UNL     1       7.690 -28.313  39.171  1.00  0.00     0.030 A
HETATM   17  C14 UNL     1       8.156 -27.065  39.529  1.00  0.00     0.002 A
HETATM   18  C15 UNL     1       7.398 -25.933  39.432  1.00  0.00     0.001 A
HETATM   19  C16 UNL     1       6.097 -26.032  38.952  1.00  0.00     0.014 A
HETATM   20  C17 UNL     1       5.632 -27.280  38.596  1.00  0.00     0.003 A
HETATM   21  C18 UNL     1       3.509 -29.915  37.423  1.00  0.00     0.073 A
HETATM   22  N4  UNL     1       3.659 -31.138  36.928  1.00  0.00    -0.353 N
ATOM     23  H4  UNL     1       4.548 -31.632  36.849  1.00  0.00     0.166 HD
HETATM   24  C19 UNL     1       2.458 -31.634  36.542  1.00  0.00     0.045 A
HETATM   25  C20 UNL     1       2.109 -32.844  35.988  1.00  0.00     0.053 A
ENDROOT
BRANCH   8  26
HETATM   26  S1  UNL     1      -0.198 -28.713  38.365  1.00  0.00     0.257 S
HETATM   27  O1  UNL     1      -1.319 -28.421  37.388  1.00  0.00    -0.201 OA
HETATM   28  O2  UNL     1      -0.481 -29.691  39.420  1.00  0.00    -0.201 OA
BRANCH  26  29
HETATM   29  N2  UNL     1      -0.452 -27.222  39.322  1.00  0.00    -0.324 N
ATOM     30  H22 UNL     1       0.182 -26.787  39.993  1.00  0.00     0.169 HD
ATOM     31  H21 UNL     1      -1.382 -26.930  39.021  1.00  0.00     0.169 HD
ENDBRANCH  26  29
ENDBRANCH   8  26
TORSDOF 2
ENDMDL