MODEL 5
REMARK VINA RESULT: -6.825259227      2.368      4.395
REMARK  2 active torsions:
REMARK  status: ('A' for Active; 'I' for Inactive)
REMARK    1  A    between atoms: C3_5  and  C4_7
REMARK    2  A    between atoms: C5_8  and  C6_9
ROOT
HETATM    1  C1  UNL     1       5.042 -33.429  37.527  1.00  0.00     0.037 C
HETATM    2  C2  UNL     1       4.467 -32.418  37.767  1.00  0.00     0.000 C
HETATM    3  N1  UNL     1       3.810 -31.203  38.056  1.00  0.00    -0.303 N
ATOM      4  H1  UNL     1       3.261 -31.182  38.915  1.00  0.00     0.177 HD
HETATM    5  C3  UNL     1       3.820 -30.149  37.385  1.00  0.00     0.135 C
HETATM    6  N2  UNL     1       4.703 -30.563  36.228  1.00  0.00    -0.081 NA
ENDROOT
BRANCH   5   7
HETATM    7  C4  UNL     1       3.338 -28.783  37.389  1.00  0.00     0.030 A
HETATM    8  C5  UNL     1       4.161 -27.864  38.046  1.00  0.00    -0.009 A
HETATM    9  C14 UNL     1       3.534 -26.750  38.570  1.00  0.00     0.015 A
HETATM   10  C15 UNL     1       2.217 -26.470  38.505  1.00  0.00     0.033 A
HETATM   11  C16 UNL     1       1.413 -27.353  37.852  1.00  0.00     0.060 A
HETATM   12  N5  UNL     1       0.102 -27.167  37.743  1.00  0.00    -0.299 N
HETATM   13  C23 UNL     1       1.996 -28.514  37.277  1.00  0.00     0.019 A
HETATM   14  N6  UNL     1      -0.733 -27.944  37.130  1.00  0.00    -0.300 N
ATOM     15  H5  UNL     1      -0.284 -26.333  38.184  1.00  0.00     0.187 HD
HETATM   16  C17 UNL     1      -0.220 -29.053  36.523  1.00  0.00     0.059 A
ATOM     17  H6  UNL     1      -1.732 -27.735  37.101  1.00  0.00     0.187 HD
HETATM   18  C18 UNL     1      -1.033 -29.776  35.690  1.00  0.00     0.032 A
HETATM   19  C22 UNL     1       1.142 -29.347  36.577  1.00  0.00     0.005 A
HETATM   20  C19 UNL     1      -0.536 -30.771  34.885  1.00  0.00     0.002 A
HETATM   21  C20 UNL     1       0.811 -31.038  34.917  1.00  0.00     0.001 A
HETATM   22  C21 UNL     1       1.640 -30.315  35.764  1.00  0.00     0.014 A
BRANCH   8  23
HETATM   23  C6  UNL     1       5.607 -27.846  38.103  1.00  0.00     0.005 A
HETATM   24  C7  UNL     1       6.424 -28.567  38.961  1.00  0.00     0.101 A
HETATM   25  N3  UNL     1       7.674 -28.404  38.599  1.00  0.00    -0.364 N
HETATM   26  C8  UNL     1       7.746 -27.591  37.519  1.00  0.00     0.046 A
ATOM     27  H3  UNL     1       8.476 -28.827  39.066  1.00  0.00     0.165 HD
HETATM   28  C9  UNL     1       8.816 -27.121  36.791  1.00  0.00     0.047 A
HETATM   29  C13 UNL     1       6.428 -27.218  37.184  1.00  0.00     0.025 A
HETATM   30  C10 UNL     1       8.567 -26.280  35.734  1.00  0.00     0.090 A
HETATM   31  N4  UNL     1       7.322 -25.914  35.406  1.00  0.00    -0.369 N
HETATM   32  C11 UNL     1       6.239 -26.353  36.094  1.00  0.00     0.018 A
ATOM     33  H4  UNL     1       7.184 -25.286  34.615  1.00  0.00     0.165 HD
HETATM   34  C12 UNL     1       4.886 -25.863  35.732  1.00  0.00     0.069 C
ENDBRANCH   8  23
ENDBRANCH   5   7
TORSDOF 2
ENDMDL