MODEL 5
REMARK VINA RESULT: -11.001837853      1.563      1.648
REMARK  2 active torsions:
REMARK  status: ('A' for Active; 'I' for Inactive)
REMARK    1  A    between atoms: C4_4  and  N1_5
REMARK       I    between atoms: N1_5  and  C5_7
REMARK    2  A    between atoms: C5_7  and  C6_9
ROOT
HETATM    1  C1  UNL     1      12.069 -26.041  36.298  1.00  0.00     0.049 C
HETATM    2  C2  UNL     1      11.275 -25.575  37.501  1.00  0.00    -0.045 A
HETATM    3  C3  UNL     1      10.191 -26.405  37.834  1.00  0.00     0.056 A
HETATM    4  C4  UNL     1       9.080 -25.900  38.463  1.00  0.00     0.108 A
HETATM    5  N2  UNL     1       9.057 -24.604  38.745  1.00  0.00    -0.342 N
ATOM      6  H2  UNL     1       8.227 -24.228  39.204  1.00  0.00     0.167 HD
HETATM    7  C16 UNL     1      10.035 -23.777  38.470  1.00  0.00     0.045 A
HETATM    8  C17 UNL     1       9.916 -22.414  38.634  1.00  0.00     0.033 A
HETATM    9  C18 UNL     1      10.886 -21.550  38.229  1.00  0.00     0.033 A
HETATM   10  C19 UNL     1      12.052 -21.991  37.648  1.00  0.00     0.047 A
HETATM   11  N3  UNL     1      13.061 -21.195  37.385  1.00  0.00    -0.352 N
ATOM     12  H3  UNL     1      12.926 -20.191  37.496  1.00  0.00     0.166 HD
HETATM   13  C20 UNL     1      14.257 -21.630  36.977  1.00  0.00     0.182 A
HETATM   14  N4  UNL     1      14.452 -22.980  36.835  1.00  0.00    -0.340 N
ATOM     15  H4  UNL     1      15.358 -23.341  36.537  1.00  0.00     0.167 HD
HETATM   16  C21 UNL     1      13.435 -23.826  37.093  1.00  0.00     0.130 A
HETATM   17  N5  UNL     1      13.961 -25.085  37.612  1.00  0.00    -0.082 NA
HETATM   18  C22 UNL     1      12.206 -23.398  37.470  1.00  0.00     0.045 A
HETATM   19  C23 UNL     1      11.220 -24.253  37.836  1.00  0.00     0.013 A
ENDROOT
BRANCH   4  20
HETATM   20  N1  UNL     1       8.112 -26.653  38.768  1.00  0.00    -0.309 N
HETATM   21  C5  UNL     1       6.783 -26.067  38.783  1.00  0.00     0.258 C
HETATM   22  O1  UNL     1       6.452 -25.645  39.897  1.00  0.00    -0.267 OA
ATOM     23  H1  UNL     1       8.259 -27.636  38.995  1.00  0.00     0.170 HD
BRANCH  21  24
HETATM   24  C6  UNL     1       6.025 -26.036  37.574  1.00  0.00     0.043 A
HETATM   25  C7  UNL     1       6.254 -24.962  36.707  1.00  0.00     0.018 A
HETATM   26  C8  UNL     1       5.597 -24.869  35.507  1.00  0.00     0.002 A
HETATM   27  C9  UNL     1       4.696 -25.836  35.134  1.00  0.00     0.012 A
HETATM   28  C10 UNL     1       4.455 -26.904  35.974  1.00  0.00    -0.025 A
HETATM   29  C11 UNL     1       3.526 -27.866  35.569  1.00  0.00     0.012 A
HETATM   30  C15 UNL     1       5.122 -26.993  37.186  1.00  0.00    -0.010 A
HETATM   31  C12 UNL     1       3.271 -28.930  36.406  1.00  0.00     0.001 A
HETATM   32  C13 UNL     1       3.917 -29.035  37.605  1.00  0.00     0.001 A
HETATM   33  C14 UNL     1       4.847 -28.064  38.002  1.00  0.00     0.013 A
ENDBRANCH  21  24
ENDBRANCH   4  20
TORSDOF 2
ENDMDL