MODEL 1
REMARK VINA RESULT: -10.520773703      0.000      0.000
REMARK  3 active torsions:
REMARK  status: ('A' for Active; 'I' for Inactive)
REMARK    1  A    between atoms: C4_7  and  N3_8
REMARK       I    between atoms: N3_8  and  C5_10
REMARK       I    between atoms: C5_10  and  N4_12
REMARK    2  A    between atoms: N4_12  and  C6_14
REMARK    3  A    between atoms: C14_25  and  C15_26
ROOT
HETATM    1  N1  UNL     1       7.650 -27.010  35.276  1.00  0.00    -0.191 NA
HETATM    2  C1  UNL     1       8.199 -26.169  35.887  1.00  0.00     0.101 C
HETATM    3  C2  UNL     1       8.893 -25.161  36.626  1.00  0.00     0.071 A
HETATM    4  C3  UNL     1      10.132 -24.668  36.197  1.00  0.00     0.113 A
HETATM    5  N2  UNL     1      10.777 -23.730  36.910  1.00  0.00    -0.351 N
ATOM      6  H2  UNL     1      11.677 -23.398  36.562  1.00  0.00     0.166 HD
HETATM    7  C4  UNL     1      10.310 -23.201  38.054  1.00  0.00     0.109 A
HETATM    8  C13 UNL     1       9.093 -23.671  38.497  1.00  0.00     0.062 A
HETATM    9  C14 UNL     1       8.392 -24.639  37.791  1.00  0.00     0.000 A
ENDROOT
BRANCH   9  10
HETATM   10  C15 UNL     1       7.067 -25.103  38.310  1.00  0.00    -0.017 A
HETATM   11  C16 UNL     1       6.840 -26.309  38.857  1.00  0.00     0.020 A
HETATM   12  C17 UNL     1       5.571 -26.580  39.293  1.00  0.00     0.050 A
HETATM   13  S2  UNL     1       4.730 -25.147  38.927  1.00  0.00    -0.113 SA
HETATM   14  C18 UNL     1       5.998 -24.245  38.235  1.00  0.00     0.061 A
ENDBRANCH   9  10
BRANCH   7  15
HETATM   15  N3  UNL     1      10.986 -22.294  38.698  1.00  0.00    -0.294 N
HETATM   16  C5  UNL     1      12.263 -21.865  38.324  1.00  0.00     0.327 C
HETATM   17  O1  UNL     1      13.333 -22.511  38.536  1.00  0.00    -0.247 OA
HETATM   18  N4  UNL     1      12.398 -20.621  37.660  1.00  0.00    -0.288 N
ATOM     19  H4  UNL     1      12.648 -20.568  36.673  1.00  0.00     0.172 HD
ATOM     20  H3  UNL     1      10.559 -21.872  39.522  1.00  0.00     0.172 HD
BRANCH  18  21
HETATM   21  C6  UNL     1      12.187 -19.541  38.371  1.00  0.00     0.153 A
HETATM   22  N5  UNL     1      11.797 -18.330  37.987  1.00  0.00    -0.335 N
HETATM   23  C7  UNL     1      11.653 -17.393  38.903  1.00  0.00     0.051 A
ATOM     24  H5  UNL     1      11.612 -18.130  37.003  1.00  0.00     0.168 HD
HETATM   25  C8  UNL     1      11.247 -16.056  38.678  1.00  0.00     0.031 A
HETATM   26  C12 UNL     1      11.917 -17.731  40.199  1.00  0.00     0.035 A
HETATM   27  C9  UNL     1      11.144 -15.203  39.725  1.00  0.00     0.002 A
HETATM   28  C10 UNL     1      11.399 -15.505  41.028  1.00  0.00     0.002 A
HETATM   29  C11 UNL     1      11.800 -16.822  41.266  1.00  0.00     0.021 A
HETATM   30  S1  UNL     1      12.361 -19.375  40.061  1.00  0.00    -0.052 SA
ENDBRANCH  18  21
ENDBRANCH   7  15
TORSDOF 3
ENDMDL