MODEL 5
REMARK VINA RESULT: -9.509285921      1.358      7.522
REMARK  2 active torsions:
REMARK  status: ('A' for Active; 'I' for Inactive)
REMARK       I    between atoms: C1_2  and  N1_3
REMARK    1  A    between atoms: C1_2  and  C12_21
REMARK    2  A    between atoms: N1_3  and  C2_5
ROOT
HETATM    1  O1  UNL     1       7.122 -28.994  38.849  1.00  0.00    -0.267 OA
HETATM    2  C1  UNL     1       6.462 -28.393  37.907  1.00  0.00     0.262 C
HETATM    3  N1  UNL     1       5.535 -29.139  37.249  1.00  0.00    -0.308 N
ATOM      4  H1  UNL     1       5.952 -30.049  37.050  1.00  0.00     0.170 HD
ENDROOT
BRANCH   3   5
HETATM    5  C2  UNL     1       4.395 -29.145  36.803  1.00  0.00     0.124 A
HETATM    6  N2  UNL     1       3.877 -28.268  35.926  1.00  0.00    -0.338 N
HETATM    7  C3  UNL     1       2.600 -28.342  35.479  1.00  0.00     0.183 A
ATOM      8  H2  UNL     1       4.471 -27.514  35.583  1.00  0.00     0.168 HD
HETATM    9  N3  UNL     1       1.781 -29.313  35.899  1.00  0.00    -0.338 N
HETATM   10  C4  UNL     1       2.215 -30.244  36.784  1.00  0.00     0.121 A
ATOM     11  H3  UNL     1       0.822 -29.354  35.551  1.00  0.00     0.168 HD
HETATM   12  N4  UNL     1       1.617 -31.306  37.362  1.00  0.00    -0.341 N
HETATM   13  C11 UNL     1       3.508 -30.156  37.227  1.00  0.00     0.065 A
HETATM   14  C5  UNL     1       2.537 -31.893  38.175  1.00  0.00     0.045 A
ATOM     15  H4  UNL     1       0.655 -31.613  37.216  1.00  0.00     0.167 HD
HETATM   16  C6  UNL     1       2.452 -32.999  38.988  1.00  0.00     0.030 A
HETATM   17  C10 UNL     1       3.736 -31.200  38.118  1.00  0.00     0.008 A
HETATM   18  C7  UNL     1       3.541 -33.389  39.718  1.00  0.00     0.002 A
HETATM   19  C8  UNL     1       4.729 -32.690  39.653  1.00  0.00     0.001 A
HETATM   20  C9  UNL     1       4.836 -31.575  38.840  1.00  0.00     0.015 A
ENDBRANCH   3   5
BRANCH   2  21
HETATM   21  C12 UNL     1       6.853 -27.009  37.731  1.00  0.00     0.089 A
HETATM   22  C13 UNL     1       7.952 -26.516  37.020  1.00  0.00     0.011 A
HETATM   23  C14 UNL     1       8.890 -27.220  36.307  1.00  0.00     0.015 A
HETATM   24  C18 UNL     1       7.975 -25.151  37.133  1.00  0.00     0.051 A
HETATM   25  C15 UNL     1       9.892 -26.481  35.686  1.00  0.00     0.001 A
HETATM   26  C16 UNL     1       9.914 -25.109  35.801  1.00  0.00     0.002 A
HETATM   27  C17 UNL     1       8.959 -24.412  36.524  1.00  0.00     0.031 A
HETATM   28  N5  UNL     1       6.927 -24.791  37.889  1.00  0.00    -0.307 N
HETATM   29  C19 UNL     1       6.541 -23.542  38.278  1.00  0.00     0.100 A
HETATM   30  C22 UNL     1       6.242 -25.900  38.256  1.00  0.00     0.128 A
HETATM   31  C20 UNL     1       5.431 -23.389  39.062  1.00  0.00     0.035 A
HETATM   32  C21 UNL     1       4.740 -24.501  39.433  1.00  0.00     0.091 A
HETATM   33  N6  UNL     1       5.149 -25.696  39.034  1.00  0.00    -0.351 N
ATOM     34  H6  UNL     1       4.610 -26.511  39.328  1.00  0.00     0.166 HD
ENDBRANCH   2  21
TORSDOF 2
ENDMDL