MODEL 4
REMARK VINA RESULT: -10.684847705      0.669      1.400
REMARK  3 active torsions:
REMARK  status: ('A' for Active; 'I' for Inactive)
REMARK       I    between atoms: C1_2  and  N1_3
REMARK       I    between atoms: C1_2  and  N3_16
REMARK    1  A    between atoms: N1_3  and  C2_5
REMARK    2  A    between atoms: N3_16  and  C11_18
REMARK    3  A    between atoms: C14_23  and  C15_24
ROOT
HETATM    1  C11 UNL     1      11.416 -23.493  37.002  1.00  0.00     0.234 A
HETATM    2  N4  UNL     1      10.380 -23.822  36.225  1.00  0.00    -0.318 N
ATOM      3  H4  UNL     1      10.119 -23.388  35.339  1.00  0.00     0.169 HD
HETATM    4  C12 UNL     1       9.749 -24.834  36.838  1.00  0.00     0.090 A
HETATM    5  C13 UNL     1       8.623 -25.605  36.547  1.00  0.00     0.066 A
HETATM    6  C14 UNL     1       8.221 -26.594  37.394  1.00  0.00     0.060 A
HETATM    7  N5  UNL     1       8.955 -26.796  38.521  1.00  0.00    -0.298 N
ATOM      8  H5  UNL     1       8.664 -27.533  39.164  1.00  0.00     0.187 HD
HETATM    9  N6  UNL     1      10.010 -26.093  38.821  1.00  0.00    -0.277 N
ATOM     10  H6  UNL     1      10.524 -26.286  39.680  1.00  0.00     0.189 HD
HETATM   11  C21 UNL     1      10.421 -25.119  38.003  1.00  0.00     0.193 A
HETATM   12  O2  UNL     1      11.430 -24.268  38.051  1.00  0.00    -0.258 OA
ENDROOT
BRANCH   1  13
HETATM   13  N3  UNL     1      12.252 -22.552  36.724  1.00  0.00    -0.274 N
HETATM   14  C1  UNL     1      12.770 -21.749  37.773  1.00  0.00     0.328 C
HETATM   15  O1  UNL     1      14.029 -21.502  37.761  1.00  0.00    -0.247 OA
HETATM   16  N1  UNL     1      11.991 -21.207  38.827  1.00  0.00    -0.294 N
ATOM     17  H1  UNL     1      11.482 -21.852  39.433  1.00  0.00     0.172 HD
ATOM     18  H3  UNL     1      12.539 -22.385  35.759  1.00  0.00     0.174 HD
BRANCH  16  19
HETATM   19  C2  UNL     1      11.890 -19.931  39.065  1.00  0.00     0.109 A
HETATM   20  C3  UNL     1      11.684 -19.075  37.988  1.00  0.00     0.049 A
HETATM   21  C4  UNL     1      11.567 -17.715  38.188  1.00  0.00     0.017 A
HETATM   22  C5  UNL     1      11.653 -17.186  39.458  1.00  0.00    -0.009 A
HETATM   23  C6  UNL     1      11.541 -15.823  39.719  1.00  0.00     0.013 A
HETATM   24  C10 UNL     1      11.857 -18.047  40.511  1.00  0.00     0.043 A
HETATM   25  C7  UNL     1      11.627 -15.308  40.999  1.00  0.00     0.001 A
HETATM   26  C8  UNL     1      11.832 -16.180  42.054  1.00  0.00     0.002 A
HETATM   27  C9  UNL     1      11.943 -17.533  41.789  1.00  0.00     0.030 A
HETATM   28  N2  UNL     1      11.968 -19.386  40.287  1.00  0.00    -0.342 N
ATOM     29  H2  UNL     1      12.119 -20.002  41.085  1.00  0.00     0.167 HD
ENDBRANCH  16  19
ENDBRANCH   1  13
BRANCH   6  30
HETATM   30  C15 UNL     1       7.057 -27.411  37.116  1.00  0.00    -0.008 A
HETATM   31  C16 UNL     1       6.267 -27.984  38.081  1.00  0.00     0.014 A
HETATM   32  C17 UNL     1       5.145 -28.763  37.772  1.00  0.00     0.001 A
HETATM   33  C18 UNL     1       4.802 -28.976  36.456  1.00  0.00     0.000 A
HETATM   34  C19 UNL     1       5.589 -28.406  35.484  1.00  0.00     0.001 A
HETATM   35  C20 UNL     1       6.694 -27.639  35.784  1.00  0.00     0.014 A
ENDBRANCH   6  30
TORSDOF 3
ENDMDL