MODEL 3
REMARK VINA RESULT: -10.251913909      1.220      2.000
REMARK  2 active torsions:
REMARK  status: ('A' for Active; 'I' for Inactive)
REMARK    1  A    between atoms: C5_9  and  C6_10
REMARK    2  A    between atoms: C23_29  and  N5_30
ROOT
HETATM    1  C6  UNL     1       9.385 -26.321  37.276  1.00  0.00     0.004 A
HETATM    2  C7  UNL     1      10.388 -27.117  36.753  1.00  0.00     0.032 A
HETATM    3  C8  UNL     1      11.615 -26.629  36.677  1.00  0.00     0.091 A
HETATM    4  N3  UNL     1      12.022 -25.363  37.076  1.00  0.00    -0.360 N
HETATM    5  C9  UNL     1      13.370 -25.008  36.876  1.00  0.00     0.155 C
HETATM    6  C10 UNL     1      11.054 -24.590  37.581  1.00  0.00     0.056 A
HETATM    7  C11 UNL     1       9.720 -25.065  37.682  1.00  0.00     0.004 A
HETATM    8  C12 UNL     1       8.766 -24.198  38.157  1.00  0.00     0.015 A
HETATM    9  C13 UNL     1       9.043 -22.917  38.541  1.00  0.00     0.013 A
HETATM   10  C14 UNL     1      10.323 -22.462  38.453  1.00  0.00    -0.022 A
HETATM   11  C15 UNL     1      10.610 -21.165  38.863  1.00  0.00     0.035 A
HETATM   12  C16 UNL     1      11.889 -20.683  38.806  1.00  0.00     0.045 A
HETATM   13  C17 UNL     1      12.193 -19.343  39.224  1.00  0.00     0.099 C
HETATM   14  N4  UNL     1      12.429 -18.259  39.548  1.00  0.00    -0.191 NA
HETATM   15  C18 UNL     1      12.890 -21.483  38.344  1.00  0.00     0.023 A
HETATM   16  C19 UNL     1      12.624 -22.799  37.923  1.00  0.00     0.016 A
HETATM   17  C20 UNL     1      11.352 -23.271  37.979  1.00  0.00     0.002 A
ENDROOT
BRANCH   1  18
HETATM   18  C5  UNL     1       8.039 -26.874  37.340  1.00  0.00     0.044 A
HETATM   19  N2  UNL     1       7.748 -27.753  38.349  1.00  0.00    -0.363 N
HETATM   20  C4  UNL     1       6.527 -28.244  38.575  1.00  0.00     0.119 A
ATOM     21  H2  UNL     1       8.507 -28.049  38.963  1.00  0.00     0.165 HD
HETATM   22  C3  UNL     1       5.502 -27.837  37.739  1.00  0.00     0.063 A
HETATM   23  N1  UNL     1       4.233 -28.286  37.893  1.00  0.00    -0.344 N
HETATM   24  C22 UNL     1       5.711 -26.956  36.701  1.00  0.00     0.038 A
HETATM   25  C2  UNL     1       3.217 -27.925  37.116  1.00  0.00     0.079 A
ATOM     26  H1  UNL     1       4.045 -28.940  38.653  1.00  0.00     0.167 HD
HETATM   27  C1  UNL     1       1.822 -28.422  37.292  1.00  0.00     0.089 C
HETATM   28  N6  UNL     1       3.428 -27.065  36.107  1.00  0.00    -0.332 N
HETATM   29  C23 UNL     1       4.682 -26.569  35.886  1.00  0.00     0.112 A
ATOM     30  H6  UNL     1       2.654 -26.782  35.506  1.00  0.00     0.168 HD
HETATM   31  C21 UNL     1       7.020 -26.485  36.530  1.00  0.00     0.048 A
BRANCH  29  32
HETATM   32  N5  UNL     1       4.814 -25.760  34.914  1.00  0.00    -0.385 N
ATOM     33  H52 UNL     1       5.309 -26.107  34.092  1.00  0.00     0.157 HD
ATOM     34  H51 UNL     1       4.458 -24.804  34.918  1.00  0.00     0.157 HD
ENDBRANCH  29  32
ENDBRANCH   1  18
TORSDOF 2
ENDMDL