MODEL 4
REMARK VINA RESULT: -6.172932779      2.986      6.355
REMARK  5 active torsions:
REMARK  status: ('A' for Active; 'I' for Inactive)
REMARK    1  A    between atoms: C2_2  and  C3_3
REMARK       I    between atoms: C3_3  and  N1_5
REMARK    2  A    between atoms: C5_10  and  N4_11
REMARK    3  A    between atoms: C5_10  and  C7_16
REMARK       I    between atoms: N4_11  and  C6_13
REMARK    4  A    between atoms: C12_26  and  N8_27
REMARK    5  A    between atoms: N8_27  and  N9_29
ROOT
HETATM    1  C3  UNL     1      39.750  39.320  36.414  1.00  0.00     0.255 C
HETATM    2  O1  UNL     1      38.946  39.791  37.287  1.00  0.00    -0.268 OA
HETATM    3  N1  UNL     1      40.101  40.127  35.331  1.00  0.00    -0.234 N
HETATM    4  C4  UNL     1      41.018  39.611  34.377  1.00  0.00     0.202 C
HETATM    5  N2  UNL     1      40.819  38.294  33.930  1.00  0.00    -0.063 NA
HETATM    6  N3  UNL     1      42.014  40.291  33.909  1.00  0.00    -0.323 N
ATOM      7  H3  UNL     1      42.558  39.753  33.234  1.00  0.00     0.165 HD
HETATM    8  C5  UNL     1      42.553  41.617  34.099  1.00  0.00     0.246 C
HETATM    9  C8  UNL     1      41.566  42.664  34.371  1.00  0.00     0.102 A
HETATM   10  N6  UNL     1      41.827  43.968  34.136  1.00  0.00    -0.350 N
ATOM     11  H6  UNL     1      42.702  44.328  33.757  1.00  0.00     0.166 HD
HETATM   12  C9  UNL     1      40.769  44.721  34.473  1.00  0.00     0.183 A
HETATM   13  N7  UNL     1      39.790  43.913  34.937  1.00  0.00    -0.343 N
HETATM   14  C10 UNL     1      38.475  44.307  35.411  1.00  0.00     0.157 C
HETATM   15  C11 UNL     1      40.277  42.664  34.873  1.00  0.00     0.109 A
HETATM   16  C12 UNL     1      39.505  41.439  35.256  1.00  0.00     0.161 C
ENDROOT
BRANCH   8  17
HETATM   17  N4  UNL     1      43.424  41.524  35.261  1.00  0.00    -0.304 N
HETATM   18  C6  UNL     1      44.612  40.783  35.362  1.00  0.00     0.331 C
HETATM   19  N5  UNL     1      45.318  40.847  36.623  1.00  0.00    -0.040 NA
HETATM   20  O2  UNL     1      45.145  40.068  34.500  1.00  0.00    -0.251 OA
ATOM     21  H4  UNL     1      43.143  42.052  36.087  1.00  0.00     0.167 HD
ENDBRANCH   8  17
BRANCH   8  22
HETATM   22  C7  UNL     1      43.316  41.938  32.870  1.00  0.00     0.231 C
HETATM   23  O3  UNL     1      43.223  41.187  31.882  1.00  0.00    -0.644 OA
HETATM   24  O4  UNL     1      44.123  43.049  32.802  1.00  0.00    -0.644 OA
ENDBRANCH   8  22
BRANCH  16  25
HETATM   25  N8  UNL     1      38.321  41.625  35.442  1.00  0.00    -0.290 N
ATOM     26  H8  UNL     1      38.232  42.440  36.048  1.00  0.00     0.188 HD
BRANCH  25  27
HETATM   27  N9  UNL     1      37.099  41.196  35.173  1.00  0.00    -0.344 N
ATOM     28  H92 UNL     1      36.667  41.015  36.079  1.00  0.00     0.176 HD
ATOM     29  H91 UNL     1      36.432  40.979  34.433  1.00  0.00     0.176 HD
ENDBRANCH  25  27
ENDBRANCH  16  25
BRANCH   1  30
HETATM   30  C2  UNL     1      40.192  37.968  36.694  1.00  0.00     0.065 C
HETATM   31  C1  UNL     1      39.596  37.280  37.677  1.00  0.00     0.017 C
ENDBRANCH   1  30
TORSDOF 5
ENDMDL