MODEL 4
REMARK VINA RESULT: -7.335477769      3.956      6.725
REMARK  7 active torsions:
REMARK  status: ('A' for Active; 'I' for Inactive)
REMARK    1  A    between atoms: C3_8  and  C4_9
REMARK    2  A    between atoms: C4_9  and  C5_10
REMARK    3  A    between atoms: C7_14  and  N4_15
REMARK       I    between atoms: N4_15  and  C8_17
REMARK       I    between atoms: C8_17  and  N5_19
REMARK    4  A    between atoms: N6_21  and  N7_23
REMARK    5  A    between atoms: N8_26  and  C9_27
REMARK    6  A    between atoms: C9_27  and  C10_28
REMARK    7  A    between atoms: C10_28  and  O2_29
ROOT
HETATM    1  C5  UNL     1      38.453  40.625  34.866  1.00  0.00     0.105 A
HETATM    2  N3  UNL     1      39.445  40.289  35.686  1.00  0.00    -0.325 N
ATOM      3  H3  UNL     1      40.111  40.943  36.097  1.00  0.00     0.169 HD
HETATM    4  C6  UNL     1      39.440  38.948  35.896  1.00  0.00     0.191 A
HETATM    5  C7  UNL     1      40.270  38.100  36.673  1.00  0.00     0.161 A
HETATM    6  N8  UNL     1      39.980  36.791  36.655  1.00  0.00    -0.323 N
HETATM    7  C11 UNL     1      38.929  36.326  35.917  1.00  0.00     0.203 A
HETATM    8  N9  UNL     1      38.171  37.156  35.199  1.00  0.00    -0.273 N
ATOM      9  H9  UNL     1      37.391  36.789  34.655  1.00  0.00     0.190 HD
HETATM   10  N10 UNL     1      38.426  38.451  35.191  1.00  0.00    -0.174 N
HETATM   11  N11 UNL     1      37.821  39.469  34.561  1.00  0.00    -0.266 N
ATOM     12  H11 UNL     1      37.010  39.385  33.947  1.00  0.00     0.190 HD
ENDROOT
BRANCH   1  13
HETATM   13  C4  UNL     1      38.030  41.935  34.331  1.00  0.00     0.137 C
BRANCH  13  14
HETATM   14  C3  UNL     1      37.657  42.906  35.361  1.00  0.00     0.049 A
HETATM   15  C2  UNL     1      36.919  42.663  36.498  1.00  0.00     0.132 A
HETATM   16  N2  UNL     1      36.770  43.789  37.217  1.00  0.00    -0.200 N
HETATM   17  C1  UNL     1      37.412  44.761  36.543  1.00  0.00     0.675 A
ATOM     18  H2  UNL     1      36.269  43.888  38.100  1.00  0.00     0.183 HD
HETATM   19  N1  UNL     1      37.495  45.992  36.914  1.00  0.00    -0.234 N
HETATM   20  N12 UNL     1      37.952  44.219  35.411  1.00  0.00    -0.194 N
ATOM     21  H12 UNL     1      37.092  46.396  37.758  1.00  0.00     0.174 HD
ATOM     22  H11 UNL     1      37.982  46.728  36.402  1.00  0.00     0.174 HD
ATOM     23  H12 UNL     1      38.494  44.729  34.712  1.00  0.00     0.184 HD
ENDBRANCH  13  14
ENDBRANCH   1  13
BRANCH   5  24
HETATM   24  N4  UNL     1      41.163  38.660  37.287  1.00  0.00    -0.290 N
HETATM   25  C8  UNL     1      42.127  39.606  37.266  1.00  0.00     0.341 C
HETATM   26  O1  UNL     1      41.887  40.818  37.544  1.00  0.00    -0.245 OA
HETATM   27  N5  UNL     1      43.521  39.360  36.933  1.00  0.00    -0.237 N
HETATM   28  N6  UNL     1      44.114  40.241  36.278  1.00  0.00    -0.245 N
ATOM     29  H5  UNL     1      43.994  38.504  37.223  1.00  0.00     0.193 HD
ATOM     30  H6  UNL     1      45.092  40.063  36.049  1.00  0.00     0.208 HD
ATOM     31  H4  UNL     1      41.195  38.230  38.211  1.00  0.00     0.172 HD
BRANCH  28  32
HETATM   32  N7  UNL     1      43.579  41.432  35.833  1.00  0.00    -0.331 N
ATOM     33  H72 UNL     1      43.829  42.258  36.376  1.00  0.00     0.178 HD
ATOM     34  H71 UNL     1      42.970  41.560  35.026  1.00  0.00     0.178 HD
ENDBRANCH  28  32
ENDBRANCH   5  24
BRANCH   6  35
HETATM   35  C9  UNL     1      40.741  35.780  37.378  1.00  0.00     0.157 C
BRANCH  35  36
HETATM   36  C10 UNL     1      40.361  34.393  36.885  1.00  0.00     0.184 C
BRANCH  36  37
HETATM   37  O2  UNL     1      41.056  33.401  37.547  1.00  0.00    -0.399 OA
ATOM     38  H2  UNL     1      40.487  32.694  37.828  1.00  0.00     0.209 HD
ENDBRANCH  36  37
ENDBRANCH  35  36
ENDBRANCH   6  35
TORSDOF 7
ENDMDL