MODEL 4
REMARK VINA RESULT: -6.320322972      1.962      2.794
REMARK  7 active torsions:
REMARK  status: ('A' for Active; 'I' for Inactive)
REMARK    1  A    between atoms: C2_2  and  C3_3
REMARK    2  A    between atoms: C3_3  and  N1_4
REMARK    3  A    between atoms: C3_3  and  C4_8
REMARK    4  A    between atoms: C3_3  and  C6_12
REMARK    5  A    between atoms: C4_8  and  O2_10
REMARK    6  A    between atoms: C6_12  and  O3_13
REMARK    7  A    between atoms: C6_12  and  N2_15
ROOT
HETATM    1  N2  UNL     1      41.015  40.676  36.712  1.00  0.00    -0.278 N
HETATM    2  C7  UNL     1      39.924  41.101  35.800  1.00  0.00     0.163 C
HETATM    3  C8  UNL     1      40.318  40.897  34.353  1.00  0.00     0.252 C
HETATM    4  N3  UNL     1      39.275  40.172  33.637  1.00  0.00    -0.074 N
ATOM      5  H31 UNL     1      38.827  40.756  32.931  1.00  0.00     0.277 HD
ATOM      6  H32 UNL     1      38.464  39.997  34.229  1.00  0.00     0.277 HD
HETATM    7  C9  UNL     1      39.789  38.963  33.073  1.00  0.00     0.234 C
HETATM    8  C10 UNL     1      38.736  37.998  32.632  1.00  0.00     0.055 C
HETATM    9  C11 UNL     1      38.390  37.043  33.756  1.00  0.00     0.234 C
HETATM   10  N4  UNL     1      38.376  37.716  35.038  1.00  0.00    -0.074 N
ATOM     11  H41 UNL     1      37.600  38.376  35.092  1.00  0.00     0.277 HD
ATOM     12  H42 UNL     1      39.156  38.369  35.113  1.00  0.00     0.277 HD
HETATM   13  C12 UNL     1      38.358  36.818  36.147  1.00  0.00     0.250 C
HETATM   14  C13 UNL     1      39.704  36.430  36.660  1.00  0.00     0.162 C
HETATM   15  N5  UNL     1      40.658  37.488  36.726  1.00  0.00    -0.136 NA
HETATM   16  N6  UNL     1      40.306  38.437  37.660  1.00  0.00    -0.255 N
ATOM     17  H6  UNL     1      39.627  38.145  38.362  1.00  0.00     0.187 HD
HETATM   18  C14 UNL     1      40.775  39.771  37.765  1.00  0.00     0.340 C
HETATM   19  O4  UNL     1      40.992  40.163  38.980  1.00  0.00    -0.245 OA
ENDROOT
BRANCH   1  20
HETATM   20  C6  UNL     1      42.271  41.245  36.487  1.00  0.00     0.169 C
BRANCH  20  21
HETATM   21  C3  UNL     1      43.624  40.721  36.669  1.00  0.00     0.273 C
BRANCH  21  22
HETATM   22  C2  UNL     1      44.426  41.661  37.593  1.00  0.00     0.054 C
HETATM   23  C1  UNL     1      43.925  41.679  38.991  1.00  0.00     0.009 C
ENDBRANCH  21  22
BRANCH  21  24
HETATM   24  N1  UNL     1      43.786  39.407  37.151  1.00  0.00    -0.053 N
ATOM     25  H13 UNL     1      43.958  38.730  36.408  1.00  0.00     0.276 HD
ATOM     26  H12 UNL     1      44.662  39.276  37.658  1.00  0.00     0.276 HD
ATOM     27  H11 UNL     1      42.965  39.180  37.712  1.00  0.00     0.276 HD
ENDBRANCH  21  24
BRANCH  21  28
HETATM   28  C4  UNL     1      44.394  40.800  35.370  1.00  0.00     0.303 C
HETATM   29  O1  UNL     1      45.622  40.830  35.399  1.00  0.00    -0.262 OA
BRANCH  28  30
HETATM   30  O2  UNL     1      43.691  40.837  34.198  1.00  0.00    -0.324 OA
HETATM   31  C5  UNL     1      43.720  39.768  33.263  1.00  0.00     0.213 C
ENDBRANCH  28  30
ENDBRANCH  21  28
ENDBRANCH  20  21
BRANCH  20  32
HETATM   32  O3  UNL     1      42.231  42.468  36.026  1.00  0.00    -0.347 OA
ATOM     33  H3  UNL     1      41.757  42.558  35.208  1.00  0.00     0.219 HD
ENDBRANCH  20  32
ENDBRANCH   1  20
TORSDOF 7
ENDMDL