MODEL 4
REMARK VINA RESULT: -5.962845696      3.159      4.214
REMARK  8 active torsions:
REMARK  status: ('A' for Active; 'I' for Inactive)
REMARK    1  A    between atoms: C2_2  and  C3_3
REMARK    2  A    between atoms: C3_3  and  N1_4
REMARK    3  A    between atoms: C4_5  and  N2_6
REMARK    4  A    between atoms: N2_6  and  N3_8
REMARK    5  A    between atoms: N4_11  and  C5_12
REMARK    6  A    between atoms: C5_12  and  C6_13
REMARK       I    between atoms: C6_13  and  N5_15
REMARK    7  A    between atoms: N5_15  and  N6_17
REMARK    8  A    between atoms: C13_28  and  N8_29
ROOT
HETATM    1  N1  UNL     1      40.764  40.449  34.196  1.00  0.00    -0.166 N
HETATM    2  C4  UNL     1      39.450  40.499  34.613  1.00  0.00     0.705 A
HETATM    3  N4  UNL     1      39.157  40.669  35.911  1.00  0.00    -0.136 N
HETATM    4  C7  UNL     1      40.166  40.799  36.834  1.00  0.00     0.277 A
HETATM    5  O2  UNL     1      39.830  40.957  38.021  1.00  0.00    -0.266 OA
HETATM    6  C8  UNL     1      41.458  40.755  36.457  1.00  0.00     0.085 A
HETATM    7  C9  UNL     1      42.442  40.886  37.427  1.00  0.00    -0.018 A
HETATM    8  C10 UNL     1      42.168  41.078  38.863  1.00  0.00     0.051 C
HETATM    9  C11 UNL     1      43.756  40.825  36.957  1.00  0.00     0.095 A
HETATM   10  C12 UNL     1      44.817  40.956  37.916  1.00  0.00     0.104 C
HETATM   11  N7  UNL     1      45.676  41.076  38.709  1.00  0.00    -0.191 NA
HETATM   12  C13 UNL     1      44.037  40.648  35.627  1.00  0.00     0.122 A
HETATM   13  N9  UNL     1      43.013  40.529  34.750  1.00  0.00    -0.326 N
ATOM     14  H9  UNL     1      43.234  40.396  33.762  1.00  0.00     0.169 HD
HETATM   15  C14 UNL     1      41.724  40.576  35.111  1.00  0.00     0.141 A
ENDROOT
BRANCH  12  16
HETATM   16  N8  UNL     1      45.259  40.591  35.193  1.00  0.00    -0.384 N
ATOM     17  H82 UNL     1      45.763  39.706  35.232  1.00  0.00     0.157 HD
ATOM     18  H81 UNL     1      45.729  41.413  34.812  1.00  0.00     0.157 HD
ENDBRANCH  12  16
BRANCH   3  19
HETATM   19  C5  UNL     1      37.783  40.700  36.391  1.00  0.00     0.255 C
BRANCH  19  20
HETATM   20  C6  UNL     1      37.204  42.050  36.204  1.00  0.00     0.254 C
HETATM   21  O1  UNL     1      36.654  42.364  35.122  1.00  0.00    -0.270 OA
HETATM   22  N5  UNL     1      37.250  43.025  37.231  1.00  0.00    -0.275 N
ATOM     23  H5  UNL     1      37.694  42.785  38.118  1.00  0.00     0.189 HD
BRANCH  22  24
HETATM   24  N6  UNL     1      36.710  44.303  37.074  1.00  0.00    -0.343 N
ATOM     25  H62 UNL     1      35.694  44.395  37.091  1.00  0.00     0.176 HD
ATOM     26  H61 UNL     1      37.293  45.130  36.944  1.00  0.00     0.176 HD
ENDBRANCH  22  24
ENDBRANCH  19  20
ENDBRANCH   3  19
BRANCH   1  27
HETATM   27  C3  UNL     1      41.006  40.260  32.792  1.00  0.00     0.149 C
BRANCH  27  28
HETATM   28  C2  UNL     1      41.226  38.814  32.424  1.00  0.00     0.016 C
HETATM   29  C1  UNL     1      42.525  38.642  31.669  1.00  0.00     0.006 C
ENDBRANCH  27  28
ENDBRANCH   1  27
BRANCH   2  30
HETATM   30  N2  UNL     1      38.604  40.392  33.712  1.00  0.00    -0.138 N
ATOM     31  H2  UNL     1      38.881  40.990  32.934  1.00  0.00     0.205 HD
BRANCH  30  32
HETATM   32  N3  UNL     1      37.471  39.785  33.395  1.00  0.00    -0.331 N
ATOM     33  H32 UNL     1      36.965  39.628  34.266  1.00  0.00     0.177 HD
ATOM     34  H31 UNL     1      36.935  39.424  32.605  1.00  0.00     0.177 HD
ENDBRANCH  30  32
ENDBRANCH   2  30
TORSDOF 8
ENDMDL