MODEL 1
REMARK VINA RESULT: -7.906840095      0.000      0.000
REMARK  8 active torsions:
REMARK  status: ('A' for Active; 'I' for Inactive)
REMARK    1  A    between atoms: C2_2  and  C3_3
REMARK    2  A    between atoms: C3_3  and  C4_4
REMARK       I    between atoms: C4_4  and  N1_6
REMARK    3  A    between atoms: N1_6  and  C5_8
REMARK    4  A    between atoms: C6_11  and  C7_12
REMARK    5  A    between atoms: C7_12  and  O2_15
REMARK       I    between atoms: N5_22  and  C12_23
REMARK       I    between atoms: C12_23  and  N6_25
REMARK    6  A    between atoms: N6_25  and  N7_27
REMARK    7  A    between atoms: N7_27  and  N8_28
REMARK    8  A    between atoms: N8_28  and  N9_29
ROOT
HETATM    1  C5  UNL     1      39.436  40.496  36.930  1.00  0.00     0.724 A
HETATM    2  N2  UNL     1      38.962  41.747  36.871  1.00  0.00    -0.174 N
ATOM      3  H2  UNL     1      39.129  42.392  37.643  1.00  0.00     0.185 HD
HETATM    4  C6  UNL     1      38.260  42.155  35.790  1.00  0.00     0.147 A
HETATM    5  N3  UNL     1      38.033  41.319  34.768  1.00  0.00    -0.173 N
ATOM      6  H3  UNL     1      37.505  41.628  33.952  1.00  0.00     0.185 HD
HETATM    7  C10 UNL     1      38.525  40.038  34.841  1.00  0.00     0.740 A
HETATM    8  N4  UNL     1      38.663  38.847  34.280  1.00  0.00    -0.099 N
HETATM    9  C11 UNL     1      38.248  38.258  33.040  1.00  0.00     0.200 C
HETATM   10  N5  UNL     1      39.357  38.420  35.344  1.00  0.00    -0.088 N
HETATM   11  C12 UNL     1      39.959  37.166  35.628  1.00  0.00     0.375 C
HETATM   12  O3  UNL     1      39.925  36.247  34.725  1.00  0.00    -0.242 OA
HETATM   13  N6  UNL     1      40.607  36.787  36.814  1.00  0.00    -0.234 N
ATOM     14  H6  UNL     1      40.694  37.439  37.593  1.00  0.00     0.189 HD
HETATM   15  N10 UNL     1      39.220  39.600  35.893  1.00  0.00     0.118 N
ENDROOT
BRANCH  13  16
HETATM   16  N7  UNL     1      41.143  35.465  36.903  1.00  0.00    -0.005 NA
BRANCH  16  17
HETATM   17  N8  UNL     1      40.190  34.666  37.566  1.00  0.00    -0.016 NA
BRANCH  17  18
HETATM   18  N9  UNL     1      40.551  33.319  37.588  1.00  0.00    -0.330 N
ATOM     19  H92 UNL     1      40.864  32.815  36.758  1.00  0.00     0.173 HD
ATOM     20  H91 UNL     1      40.465  32.909  38.518  1.00  0.00     0.173 HD
ENDBRANCH  17  18
ENDBRANCH  16  17
ENDBRANCH  13  16
BRANCH   1  21
HETATM   21  N1  UNL     1      40.154  40.120  37.894  1.00  0.00    -0.157 N
HETATM   22  C4  UNL     1      41.259  40.694  38.513  1.00  0.00     0.235 C
HETATM   23  O1  UNL     1      42.138  41.265  37.815  1.00  0.00    -0.273 OA
ATOM     24  H1  UNL     1      39.872  39.226  38.297  1.00  0.00     0.187 HD
BRANCH  22  25
HETATM   25  C3  UNL     1      41.396  40.629  40.016  1.00  0.00     0.103 C
BRANCH  25  26
HETATM   26  C2  UNL     1      42.571  41.553  40.343  1.00  0.00     0.005 C
HETATM   27  C1  UNL     1      42.206  42.675  41.259  1.00  0.00     0.005 C
ENDBRANCH  25  26
ENDBRANCH  22  25
ENDBRANCH   1  21
BRANCH   4  28
HETATM   28  C7  UNL     1      37.747  43.547  35.758  1.00  0.00     0.110 C
HETATM   29  C8  UNL     1      37.224  43.901  34.375  1.00  0.00     0.054 C
HETATM   30  C9  UNL     1      36.613  43.696  36.732  1.00  0.00     0.054 C
BRANCH  28  31
HETATM   31  O2  UNL     1      38.772  44.483  36.010  1.00  0.00    -0.383 OA
ATOM     32  H2  UNL     1      38.621  44.957  36.819  1.00  0.00     0.211 HD
ENDBRANCH  28  31
ENDBRANCH   4  28
TORSDOF 8
ENDMDL