MODEL 4
REMARK VINA RESULT: -5.889028925      2.033      5.256
REMARK  7 active torsions:
REMARK  status: ('A' for Active; 'I' for Inactive)
REMARK    1  A    between atoms: O1_2  and  N1_3
REMARK       I    between atoms: N1_3  and  C2_5
REMARK       I    between atoms: C2_5  and  N4_10
REMARK    2  A    between atoms: N4_10  and  C4_12
REMARK    3  A    between atoms: C5_13  and  N5_14
REMARK    4  A    between atoms: C9_22  and  N6_23
REMARK    5  A    between atoms: C10_27  and  O3_28
REMARK    6  A    between atoms: O3_28  and  C11_29
REMARK    7  A    between atoms: C11_29  and  C13_31
ROOT
HETATM    1  N1  UNL     1      38.054  36.677  36.085  1.00  0.00    -0.096 N
ATOM      2  H1  UNL     1      37.061  36.906  36.044  1.00  0.00     0.213 HD
HETATM    3  C2  UNL     1      38.986  37.752  36.104  1.00  0.00     0.707 C
HETATM    4  N2  UNL     1      40.220  37.590  36.493  1.00  0.00    -0.124 N
ATOM      5  H2  UNL     1      40.839  38.401  36.485  1.00  0.00     0.197 HD
HETATM    6  C3  UNL     1      40.736  36.376  36.919  1.00  0.00     0.196 C
HETATM    7  N3  UNL     1      41.185  35.367  37.280  1.00  0.00    -0.171 NA
HETATM    8  N4  UNL     1      38.601  39.053  35.701  1.00  0.00    -0.212 N
ATOM      9  H4  UNL     1      37.828  39.491  36.202  1.00  0.00     0.178 HD
ENDROOT
BRANCH   1  10
HETATM   10  O1  UNL     1      38.400  35.380  36.119  1.00  0.00    -0.272 OA
HETATM   11  C1  UNL     1      38.614  34.858  34.845  1.00  0.00     0.238 C
ENDBRANCH   1  10
BRANCH   8  12
HETATM   12  C4  UNL     1      39.219  39.811  34.632  1.00  0.00     0.186 C
HETATM   13  C5  UNL     1      38.136  40.276  33.706  1.00  0.00     0.345 C
HETATM   14  O2  UNL     1      37.366  41.207  34.357  1.00  0.00    -0.345 OA
HETATM   15  C6  UNL     1      38.110  42.376  34.456  1.00  0.00     0.087 C
HETATM   16  C7  UNL     1      38.665  42.839  33.125  1.00  0.00     0.048 C
HETATM   17  C8  UNL     1      37.146  43.459  34.915  1.00  0.00     0.048 C
HETATM   18  C9  UNL     1      39.234  42.191  35.451  1.00  0.00     0.248 C
HETATM   19  C10 UNL     1      40.038  40.952  35.200  1.00  0.00     0.183 C
BRANCH  13  20
HETATM   20  N5  UNL     1      37.278  39.190  33.290  1.00  0.00    -0.051 N
ATOM     21  H53 UNL     1      37.018  39.279  32.309  1.00  0.00     0.277 HD
ATOM     22  H52 UNL     1      37.792  38.310  33.241  1.00  0.00     0.277 HD
ATOM     23  H51 UNL     1      36.454  39.106  33.887  1.00  0.00     0.277 HD
ENDBRANCH  13  20
BRANCH  18  24
HETATM   24  N6  UNL     1      38.730  42.132  36.814  1.00  0.00    -0.070 N
ATOM     25  H63 UNL     1      38.427  43.049  37.142  1.00  0.00     0.275 HD
ATOM     26  H62 UNL     1      37.835  41.646  36.860  1.00  0.00     0.275 HD
ATOM     27  H61 UNL     1      39.416  41.717  37.445  1.00  0.00     0.275 HD
ENDBRANCH  18  24
BRANCH  19  28
HETATM   28  O3  UNL     1      40.672  40.487  36.313  1.00  0.00    -0.368 OA
BRANCH  28  29
HETATM   29  C11 UNL     1      41.968  40.776  36.489  1.00  0.00     0.207 C
HETATM   30  C12 UNL     1      42.504  41.974  35.770  1.00  0.00     0.049 C
BRANCH  29  31
HETATM   31  C13 UNL     1      42.816  39.617  36.125  1.00  0.00     0.259 C
HETATM   32  N7  UNL     1      43.318  39.593  34.773  1.00  0.00    -0.060 NA
HETATM   33  O4  UNL     1      43.133  38.673  36.856  1.00  0.00    -0.274 OA
ENDBRANCH  29  31
ENDBRANCH  28  29
ENDBRANCH  19  28
ENDBRANCH   8  12
TORSDOF 7
ENDMDL