MODEL 1
REMARK VINA RESULT: -7.530141930      0.000      0.000
REMARK  4 active torsions:
REMARK  status: ('A' for Active; 'I' for Inactive)
REMARK       I    between atoms: N2_3  and  C2_4
REMARK       I    between atoms: C2_4  and  N3_6
REMARK    1  A    between atoms: N3_6  and  N4_8
REMARK    2  A    between atoms: C3_10  and  C4_11
REMARK    3  A    between atoms: C5_12  and  N5_13
REMARK    4  A    between atoms: C8_24  and  S1_25
ROOT
HETATM    1  N1  UNL     1      34.562  38.162  28.661  1.00  0.00    -0.156 NA
HETATM    2  C1  UNL     1      35.073  38.349  29.684  1.00  0.00     0.273 C
HETATM    3  N2  UNL     1      35.674  38.511  30.871  1.00  0.00    -0.271 NA
HETATM    4  C2  UNL     1      36.269  38.673  32.048  1.00  0.00     0.422 C
HETATM    5  O1  UNL     1      36.319  39.714  32.788  1.00  0.00    -0.228 OA
HETATM    6  N3  UNL     1      36.979  37.543  32.625  1.00  0.00    -0.239 N
ATOM      7  H3  UNL     1      36.979  36.669  32.098  1.00  0.00     0.193 HD
ENDROOT
BRANCH   6   8
HETATM    8  N4  UNL     1      37.630  37.558  33.789  1.00  0.00    -0.306 N
HETATM    9  C3  UNL     1      38.874  37.447  34.059  1.00  0.00     0.123 C
ATOM     10  H4  UNL     1      37.032  37.681  34.606  1.00  0.00     0.186 HD
BRANCH   9  11
HETATM   11  C4  UNL     1      39.376  37.486  35.425  1.00  0.00     0.045 A
HETATM   12  C5  UNL     1      39.491  38.711  36.097  1.00  0.00     0.157 A
HETATM   13  C6  UNL     1      39.900  38.750  37.422  1.00  0.00     0.152 A
HETATM   14  N6  UNL     1      40.014  39.996  38.079  1.00  0.00    -0.080 NA
HETATM   15  N7  UNL     1      40.190  37.625  38.077  1.00  0.00    -0.328 N
HETATM   16  C7  UNL     1      40.088  36.445  37.449  1.00  0.00     0.125 A
ATOM     17  H7  UNL     1      40.489  37.663  39.051  1.00  0.00     0.168 HD
HETATM   18  N8  UNL     1      40.361  35.338  38.085  1.00  0.00    -0.384 N
HETATM   19  C8  UNL     1      39.681  36.333  36.115  1.00  0.00     0.138 A
ATOM     20  H82 UNL     1      40.658  35.419  39.057  1.00  0.00     0.157 HD
ATOM     21  H81 UNL     1      40.284  34.440  37.607  1.00  0.00     0.157 HD
BRANCH  12  22
HETATM   22  N5  UNL     1      39.180  39.914  35.415  1.00  0.00    -0.111 N
HETATM   23  O2  UNL     1      40.106  40.512  34.778  1.00  0.00    -0.532 OA
HETATM   24  O3  UNL     1      37.946  40.463  35.472  1.00  0.00    -0.532 OA
ENDBRANCH  12  22
BRANCH  19  25
HETATM   25  S1  UNL     1      39.542  34.760  35.395  1.00  0.00     0.142 S
HETATM   26  O4  UNL     1      40.761  34.488  34.504  1.00  0.00    -0.591 OA
HETATM   27  O5  UNL     1      39.565  33.689  36.421  1.00  0.00    -0.591 OA
HETATM   28  O6  UNL     1      38.183  34.623  34.395  1.00  0.00    -0.591 OA
ENDBRANCH  19  25
ENDBRANCH   9  11
ENDBRANCH   6   8
TORSDOF 4
ENDMDL