MODEL 4
REMARK VINA RESULT: -7.249029289      4.970      8.845
REMARK  6 active torsions:
REMARK  status: ('A' for Active; 'I' for Inactive)
REMARK       I    between atoms: N1_1  and  C1_5
REMARK       I    between atoms: C1_5  and  N2_6
REMARK       I    between atoms: C1_5  and  N3_10
REMARK       I    between atoms: N3_10  and  C2_12
REMARK    1  A    between atoms: C2_12  and  C3_14
REMARK    2  A    between atoms: C3_14  and  N4_15
REMARK    3  A    between atoms: C3_14  and  C4_19
REMARK       I    between atoms: C4_19  and  N5_21
REMARK    4  A    between atoms: N5_21  and  C5_23
REMARK    5  A    between atoms: C6_28  and  C7_29
REMARK    6  A    between atoms: C10_32  and  O3_33
ROOT
HETATM    1  C4  UNL     1      39.401  37.656  35.821  1.00  0.00     0.263 C
HETATM    2  O2  UNL     1      40.118  37.448  34.816  1.00  0.00    -0.270 OA
HETATM    3  N5  UNL     1      39.534  38.803  36.589  1.00  0.00    -0.304 N
ATOM      4  H5  UNL     1      40.157  38.742  37.394  1.00  0.00     0.171 HD
ENDROOT
BRANCH   1   5
HETATM    5  C3  UNL     1      38.391  36.639  36.186  1.00  0.00     0.365 C
BRANCH   5   6
HETATM    6  C2  UNL     1      39.137  35.397  36.515  1.00  0.00     0.260 C
HETATM    7  N3  UNL     1      39.535  34.463  35.522  1.00  0.00    -0.309 N
HETATM    8  C1  UNL     1      40.258  33.248  35.814  1.00  0.00     0.482 C
ATOM      9  H3  UNL     1      39.297  34.662  34.550  1.00  0.00     0.166 HD
HETATM   10  N1  UNL     1      41.567  33.244  35.211  1.00  0.00    -0.033 N
HETATM   11  N2  UNL     1      39.509  32.070  35.412  1.00  0.00    -0.033 N
ATOM     12  H13 UNL     1      42.076  32.384  35.414  1.00  0.00     0.278 HD
ATOM     13  H12 UNL     1      41.516  33.154  34.195  1.00  0.00     0.278 HD
ATOM     14  H11 UNL     1      42.093  34.071  35.493  1.00  0.00     0.278 HD
ATOM     15  H23 UNL     1      39.458  31.980  34.397  1.00  0.00     0.278 HD
ATOM     16  H22 UNL     1      40.018  31.209  35.615  1.00  0.00     0.278 HD
ATOM     17  H21 UNL     1      38.582  32.072  35.840  1.00  0.00     0.278 HD
HETATM   18  O1  UNL     1      39.423  35.166  37.715  1.00  0.00    -0.271 OA
ENDBRANCH   5   6
BRANCH   5  19
HETATM   19  N4  UNL     1      37.570  36.388  35.020  1.00  0.00    -0.058 N
ATOM     20  H43 UNL     1      37.201  37.245  34.609  1.00  0.00     0.275 HD
ATOM     21  H42 UNL     1      38.115  36.071  34.219  1.00  0.00     0.275 HD
ATOM     22  H41 UNL     1      36.835  35.730  35.278  1.00  0.00     0.275 HD
ENDBRANCH   5  19
ENDBRANCH   1   5
BRANCH   3  23
HETATM   23  C5  UNL     1      38.953  39.945  36.394  1.00  0.00     0.168 A
HETATM   24  N6  UNL     1      37.662  40.278  36.301  1.00  0.00    -0.279 N
HETATM   25  N7  UNL     1      37.356  41.494  36.103  1.00  0.00    -0.290 N
ATOM     26  H6  UNL     1      36.935  39.567  36.388  1.00  0.00     0.189 HD
HETATM   27  C6  UNL     1      38.288  42.411  35.993  1.00  0.00     0.119 A
ATOM     28  H7  UNL     1      36.374  41.760  36.029  1.00  0.00     0.188 HD
HETATM   29  S1  UNL     1      39.714  41.461  36.185  1.00  0.00    -0.031 SA
BRANCH  27  30
HETATM   30  C7  UNL     1      38.172  43.864  35.767  1.00  0.00     0.067 A
HETATM   31  C8  UNL     1      37.086  44.555  36.245  1.00  0.00     0.035 A
HETATM   32  C9  UNL     1      36.958  45.930  36.042  1.00  0.00     0.040 A
HETATM   33  C10 UNL     1      37.938  46.610  35.349  1.00  0.00     0.081 A
HETATM   34  C11 UNL     1      39.011  45.879  34.887  1.00  0.00     0.124 A
HETATM   35  N8  UNL     1      39.110  44.538  35.099  1.00  0.00    -0.361 N
ATOM     36  H8  UNL     1      39.920  44.036  34.738  1.00  0.00     0.165 HD
BRANCH  33  37
HETATM   37  O3  UNL     1      37.905  47.973  35.095  1.00  0.00    -0.359 OA
ATOM     38  H3  UNL     1      38.639  48.467  34.749  1.00  0.00     0.217 HD
ENDBRANCH  33  37
ENDBRANCH  27  30
ENDBRANCH   3  23
TORSDOF 6
ENDMDL