MODEL 4
REMARK VINA RESULT: -6.657299782      3.122      5.664
REMARK  7 active torsions:
REMARK  status: ('A' for Active; 'I' for Inactive)
REMARK    1  A    between atoms: N1_1  and  N2_4
REMARK    2  A    between atoms: C1_6  and  N3_7
REMARK    3  A    between atoms: N3_7  and  O1_8
REMARK    4  A    between atoms: N3_7  and  S1_10
REMARK    5  A    between atoms: S1_10  and  N4_13
REMARK    6  A    between atoms: C10_29  and  C11_30
REMARK    7  A    between atoms: C11_30  and  O4_31
ROOT
HETATM    1  N4  UNL     1      38.786  37.341  35.274  1.00  0.00    -0.271 N
ATOM      2  H4  UNL     1      37.894  37.088  34.849  1.00  0.00     0.180 HD
HETATM    3  C2  UNL     1      39.128  38.526  35.030  1.00  0.00     0.024 C
HETATM    4  C3  UNL     1      40.373  39.077  35.549  1.00  0.00     0.060 C
HETATM    5  C4  UNL     1      40.242  40.263  36.474  1.00  0.00     0.050 C
HETATM    6  C5  UNL     1      41.622  40.761  36.702  1.00  0.00     0.061 C
HETATM    7  N5  UNL     1      42.199  41.608  36.090  1.00  0.00    -0.378 N
ATOM      8  H5  UNL     1      43.118  41.684  36.526  1.00  0.00     0.164 HD
HETATM    9  C6  UNL     1      42.196  42.530  35.068  1.00  0.00     0.103 C
HETATM   10  C7  UNL     1      40.888  43.193  34.880  1.00  0.00     0.100 C
HETATM   11  N6  UNL     1      40.060  42.834  33.816  1.00  0.00    -0.396 N
ATOM     12  H6  UNL     1      39.145  43.277  33.740  1.00  0.00     0.158 HD
HETATM   13  C8  UNL     1      40.430  41.893  32.849  1.00  0.00     0.138 C
HETATM   14  C9  UNL     1      39.329  40.834  32.603  1.00  0.00     0.134 C
HETATM   15  N7  UNL     1      38.731  40.589  33.857  1.00  0.00    -0.409 N
ATOM     16  H7  UNL     1      38.698  41.333  34.554  1.00  0.00     0.154 HD
HETATM   17  C10 UNL     1      38.184  39.341  34.156  1.00  0.00     0.147 C
ENDROOT
BRANCH   1  18
HETATM   18  S1  UNL     1      39.466  36.100  36.133  1.00  0.00     0.348 S
HETATM   19  O2  UNL     1      40.924  36.425  36.486  1.00  0.00    -0.180 OA
HETATM   20  O3  UNL     1      38.795  35.740  37.427  1.00  0.00    -0.180 OA
BRANCH  18  21
HETATM   21  N3  UNL     1      39.557  34.664  35.181  1.00  0.00    -0.125 N
BRANCH  21  22
HETATM   22  C1  UNL     1      40.764  33.940  35.148  1.00  0.00     0.243 C
HETATM   23  N2  UNL     1      41.272  33.345  36.166  1.00  0.00    -0.300 N
ATOM     24  H2  UNL     1      42.151  32.839  36.061  1.00  0.00     0.187 HD
BRANCH  23  25
HETATM   25  N1  UNL     1      40.656  33.375  37.394  1.00  0.00    -0.344 N
ATOM     26  H12 UNL     1      40.164  32.538  37.708  1.00  0.00     0.176 HD
ATOM     27  H11 UNL     1      40.684  34.207  37.983  1.00  0.00     0.176 HD
ENDBRANCH  23  25
ENDBRANCH  21  22
BRANCH  21  28
HETATM   28  O1  UNL     1      38.497  34.228  34.477  1.00  0.00    -0.271 OA
ATOM     29  H1  UNL     1      38.453  33.319  34.204  1.00  0.00     0.246 HD
ENDBRANCH  21  28
ENDBRANCH  18  21
ENDBRANCH   1  18
BRANCH  17  30
HETATM   30  C11 UNL     1      37.808  38.485  32.970  1.00  0.00     0.194 C
BRANCH  30  31
HETATM   31  O4  UNL     1      36.639  37.764  33.199  1.00  0.00    -0.398 OA
ATOM     32  H4  UNL     1      36.310  37.359  32.405  1.00  0.00     0.209 HD
ENDBRANCH  30  31
ENDBRANCH  17  30
TORSDOF 7
ENDMDL