MODEL 3
REMARK VINA RESULT: -6.231321592      1.297      1.640
REMARK  9 active torsions:
REMARK  status: ('A' for Active; 'I' for Inactive)
REMARK    1  A    between atoms: C3_3  and  O1_5
REMARK    2  A    between atoms: C3_3  and  C5_7
REMARK    3  A    between atoms: C5_7  and  N1_8
REMARK    4  A    between atoms: C5_7  and  C7_11
REMARK    5  A    between atoms: N1_8  and  O2_9
REMARK       I    between atoms: C7_11  and  N2_13
REMARK    6  A    between atoms: N2_13  and  C8_15
REMARK    7  A    between atoms: C8_15  and  O4_16
REMARK    8  A    between atoms: C10_19  and  N3_20
REMARK    9  A    between atoms: C13_27  and  O5_29
ROOT
HETATM    1  C1  UNL     1      41.473  39.367  32.397  1.00  0.00     0.015 C
HETATM    2  C2  UNL     1      42.175  39.806  33.270  1.00  0.00    -0.077 C
HETATM    3  C3  UNL     1      43.060  40.356  34.322  1.00  0.00     0.144 C
HETATM    4  C4  UNL     1      44.031  41.268  33.650  1.00  0.00     0.062 C
ENDROOT
BRANCH   3   5
HETATM    5  O1  UNL     1      43.699  39.306  34.924  1.00  0.00    -0.376 OA
ATOM      6  H1  UNL     1      44.374  38.998  34.333  1.00  0.00     0.211 HD
ENDBRANCH   3   5
BRANCH   3   7
HETATM    7  C5  UNL     1      42.219  41.202  35.294  1.00  0.00     0.244 C
BRANCH   7   8
HETATM    8  N1  UNL     1      41.604  42.213  34.382  1.00  0.00    -0.083 NA
BRANCH   8   9
HETATM    9  O2  UNL     1      41.741  43.434  34.972  1.00  0.00    -0.290 OA
HETATM   10  C6  UNL     1      40.801  44.362  34.588  1.00  0.00     0.231 C
ENDBRANCH   8   9
ENDBRANCH   7   8
BRANCH   7  11
HETATM   11  C7  UNL     1      41.102  40.356  35.771  1.00  0.00     0.247 C
HETATM   12  O3  UNL     1      39.947  40.904  35.734  1.00  0.00    -0.271 OA
HETATM   13  N2  UNL     1      41.249  39.020  36.255  1.00  0.00    -0.304 N
ATOM     14  H2  UNL     1      42.179  38.604  36.280  1.00  0.00     0.167 HD
BRANCH  13  15
HETATM   15  C8  UNL     1      40.123  38.245  36.707  1.00  0.00     0.253 C
HETATM   16  C9  UNL     1      40.536  36.850  37.131  1.00  0.00     0.128 C
HETATM   17  C10 UNL     1      39.359  35.919  37.125  1.00  0.00     0.213 C
HETATM   18  C11 UNL     1      38.653  35.861  35.812  1.00  0.00     0.185 C
HETATM   19  C12 UNL     1      38.960  34.589  35.151  1.00  0.00     0.071 C
HETATM   20  C13 UNL     1      39.147  37.022  34.970  1.00  0.00     0.181 C
HETATM   21  N4  UNL     1      39.189  33.580  34.652  1.00  0.00    -0.197 NA
HETATM   22  C14 UNL     1      38.151  37.202  33.842  1.00  0.00     0.080 C
HETATM   23  O6  UNL     1      39.155  38.199  35.701  1.00  0.00    -0.300 OA
BRANCH  15  24
HETATM   24  O4  UNL     1      39.550  38.880  37.798  1.00  0.00    -0.348 OA
ATOM     25  H4  UNL     1      38.937  39.534  37.485  1.00  0.00     0.215 HD
ENDBRANCH  15  24
BRANCH  17  26
HETATM   26  N3  UNL     1      39.894  34.602  37.510  1.00  0.00    -0.073 N
ATOM     27  H33 UNL     1      39.563  34.277  38.418  1.00  0.00     0.274 HD
ATOM     28  H32 UNL     1      39.516  33.830  36.960  1.00  0.00     0.274 HD
ATOM     29  H31 UNL     1      40.908  34.690  37.451  1.00  0.00     0.274 HD
ENDBRANCH  17  26
BRANCH  20  30
HETATM   30  O5  UNL     1      40.361  36.737  34.343  1.00  0.00    -0.364 OA
ATOM     31  H5  UNL     1      40.985  37.448  34.434  1.00  0.00     0.213 HD
ENDBRANCH  20  30
ENDBRANCH  13  15
ENDBRANCH   7  11
ENDBRANCH   3   7
TORSDOF 9
ENDMDL