MODEL 1
REMARK VINA RESULT: -7.620107507      0.000      0.000
REMARK  6 active torsions:
REMARK  status: ('A' for Active; 'I' for Inactive)
REMARK    1  A    between atoms: C2_2  and  C4_4
REMARK    2  A    between atoms: C4_4  and  C5_5
REMARK    3  A    between atoms: C5_5  and  N1_6
REMARK    4  A    between atoms: C5_5  and  C14_17
REMARK       I    between atoms: N1_6  and  C6_8
REMARK    5  A    between atoms: C6_8  and  C7_10
REMARK    6  A    between atoms: C7_10  and  C8_11
ROOT
HETATM    1  N1  UNL     1     -26.814 151.389  56.475  1.00  0.00    -0.356 N
ATOM      2  H1  UNL     1     -26.689 152.005  55.673  1.00  0.00     0.162 HD
HETATM    3  C6  UNL     1     -28.110 150.887  56.721  1.00  0.00     0.218 C
HETATM    4  O1  UNL     1     -28.302 150.128  57.697  1.00  0.00    -0.274 OA
ENDROOT
BRANCH   1   5
HETATM    5  C5  UNL     1     -25.658 151.090  57.279  1.00  0.00     0.088 C
BRANCH   5   6
HETATM    6  C4  UNL     1     -25.202 152.258  58.078  1.00  0.00     0.029 C
BRANCH   6   7
HETATM    7  C2  UNL     1     -25.822 153.578  57.784  1.00  0.00    -0.021 C
HETATM    8  C1  UNL     1     -24.938 154.630  57.198  1.00  0.00     0.009 C
HETATM    9  C3  UNL     1     -26.358 154.134  59.120  1.00  0.00     0.009 C
ENDBRANCH   6   7
ENDBRANCH   5   6
BRANCH   5  10
HETATM   10  C14 UNL     1     -24.548 150.584  56.361  1.00  0.00     0.000 C
HETATM   11  C15 UNL     1     -23.361 151.495  56.420  1.00  0.00     0.011 C
HETATM   12  C16 UNL     1     -25.032 150.401  54.960  1.00  0.00     0.011 C
ENDBRANCH   5  10
ENDBRANCH   1   5
BRANCH   3  13
HETATM   13  C7  UNL     1     -29.215 151.252  55.845  1.00  0.00     0.107 C
BRANCH  13  14
HETATM   14  C8  UNL     1     -30.113 152.321  56.425  1.00  0.00    -0.006 C
HETATM   15  C9  UNL     1     -29.369 153.375  57.151  1.00  0.00     0.005 C
HETATM   16  C10 UNL     1     -29.993 153.833  58.432  1.00  0.00     0.000 C
HETATM   17  C11 UNL     1     -31.489 153.825  58.429  1.00  0.00     0.000 C
HETATM   18  C12 UNL     1     -32.106 152.567  57.932  1.00  0.00     0.000 C
HETATM   19  C13 UNL     1     -31.181 151.640  57.227  1.00  0.00     0.005 C
ENDBRANCH  13  14
ENDBRANCH   3  13
TORSDOF 6
ENDMDL