MODEL 2
REMARK VINA RESULT: -4.909571439      0.471      1.080
REMARK  6 active torsions:
REMARK  status: ('A' for Active; 'I' for Inactive)
REMARK    1  A    between atoms: C2_2  and  O1_3
REMARK    2  A    between atoms: C2_2  and  C3_5
REMARK    3  A    between atoms: C4_6  and  C5_7
REMARK    4  A    between atoms: C5_7  and  C6_8
REMARK    5  A    between atoms: C6_8  and  C7_9
REMARK    6  A    between atoms: C7_9  and  C8_10
ROOT
HETATM    1  C5  UNL     1     -26.128 151.879  57.292  1.00  0.00    -0.019 C
HETATM    2  C12 UNL     1     -25.674 153.219  56.669  1.00  0.00     0.044 C
HETATM    3  C13 UNL     1     -25.856 154.379  57.585  1.00  0.00     0.273 C
HETATM    4  N1  UNL     1     -25.219 154.255  58.866  1.00  0.00     0.084 N
HETATM    5  C14 UNL     1     -25.837 155.165  59.813  1.00  0.00     0.309 C
HETATM    6  C15 UNL     1     -25.369 152.911  59.391  1.00  0.00     0.273 C
HETATM    7  C16 UNL     1     -26.522 152.259  58.706  1.00  0.00     0.044 C
ENDROOT
BRANCH   1   8
HETATM    8  C4  UNL     1     -25.014 150.963  57.182  1.00  0.00    -0.015 C
HETATM    9  C3  UNL     1     -24.535 150.190  56.065  1.00  0.00     0.028 C
BRANCH   9  10
HETATM   10  C2  UNL     1     -24.067 150.769  54.782  1.00  0.00     0.039 C
HETATM   11  C1  UNL     1     -24.862 150.399  53.565  1.00  0.00     0.076 C
BRANCH  10  12
HETATM   12  O1  UNL     1     -22.720 150.921  54.613  1.00  0.00    -0.365 OA
ATOM     13  H1  UNL     1     -22.163 150.596  55.310  1.00  0.00     0.217 HD
ENDBRANCH  10  12
ENDBRANCH   9  10
ENDBRANCH   1   8
BRANCH   1  14
HETATM   14  C6  UNL     1     -27.325 151.483  56.484  1.00  0.00     0.014 C
BRANCH  14  15
HETATM   15  C7  UNL     1     -28.465 150.939  57.305  1.00  0.00     0.010 C
BRANCH  15  16
HETATM   16  C8  UNL     1     -29.713 151.723  56.922  1.00  0.00    -0.044 A
HETATM   17  C9  UNL     1     -29.476 153.238  57.069  1.00  0.00     0.015 C
HETATM   18  C10 UNL     1     -31.063 151.291  57.274  1.00  0.00     0.010 A
HETATM   19  C11 UNL     1     -30.591 151.348  55.823  1.00  0.00     0.010 A
ENDBRANCH  15  16
ENDBRANCH  14  15
ENDBRANCH   1  14
TORSDOF 6
ENDMDL