MODEL 3
REMARK VINA RESULT: -6.229662350      2.508      6.082
REMARK  6 active torsions:
REMARK  status: ('A' for Active; 'I' for Inactive)
REMARK    1  A    between atoms: C2_2  and  C4_4
REMARK    2  A    between atoms: C4_4  and  C5_5
REMARK    3  A    between atoms: C5_5  and  C6_6
REMARK    4  A    between atoms: C6_6  and  C7_7
REMARK    5  A    between atoms: C6_6  and  C14_17
REMARK       I    between atoms: C7_7  and  N1_9
REMARK    6  A    between atoms: N1_9  and  C8_11
ROOT
HETATM    1  C7  UNL     1     -24.706 150.495  54.879  1.00  0.00     0.222 C
HETATM    2  O1  UNL     1     -23.487 150.207  54.786  1.00  0.00    -0.273 OA
HETATM    3  N1  UNL     1     -25.393 150.760  53.650  1.00  0.00    -0.356 N
ATOM      4  H1  UNL     1     -26.384 150.997  53.686  1.00  0.00     0.162 HD
ENDROOT
BRANCH   1   5
HETATM    5  C6  UNL     1     -25.333 150.541  56.191  1.00  0.00     0.081 C
BRANCH   5   6
HETATM    6  C5  UNL     1     -26.838 150.451  56.154  1.00  0.00     0.015 C
BRANCH   6   7
HETATM    7  C4  UNL     1     -27.499 151.341  57.172  1.00  0.00     0.005 C
BRANCH   7   8
HETATM    8  C2  UNL     1     -28.679 152.093  56.619  1.00  0.00    -0.023 C
HETATM    9  C1  UNL     1     -28.930 153.264  57.579  1.00  0.00     0.009 C
HETATM   10  C3  UNL     1     -29.937 151.295  56.562  1.00  0.00     0.009 C
ENDBRANCH   7   8
ENDBRANCH   6   7
ENDBRANCH   5   6
BRANCH   5  11
HETATM   11  C14 UNL     1     -24.944 151.713  57.045  1.00  0.00    -0.010 C
HETATM   12  C15 UNL     1     -24.185 151.288  58.285  1.00  0.00     0.010 C
HETATM   13  C16 UNL     1     -24.141 152.761  56.355  1.00  0.00     0.010 C
ENDBRANCH   5  11
ENDBRANCH   1   5
BRANCH   3  14
HETATM   14  C8  UNL     1     -24.741 150.706  52.367  1.00  0.00     0.084 C
HETATM   15  C9  UNL     1     -25.754 150.226  51.337  1.00  0.00     0.025 C
HETATM   16  C10 UNL     1     -25.253 150.451  49.925  1.00  0.00     0.002 C
HETATM   17  C11 UNL     1     -25.173 151.913  49.611  1.00  0.00     0.000 C
HETATM   18  C12 UNL     1     -25.169 152.698  50.909  1.00  0.00     0.002 C
HETATM   19  C13 UNL     1     -24.217 152.032  51.912  1.00  0.00     0.025 C
ENDBRANCH   3  14
TORSDOF 6
ENDMDL