MODEL 3
REMARK VINA RESULT: -6.482524368      3.274      5.592
REMARK  6 active torsions:
REMARK  status: ('A' for Active; 'I' for Inactive)
REMARK    1  A    between atoms: C3_5  and  O1_6
REMARK    2  A    between atoms: O1_6  and  C4_7
REMARK    3  A    between atoms: C4_7  and  C5_8
REMARK    4  A    between atoms: C5_8  and  C6_9
REMARK    5  A    between atoms: C13_16  and  C14_17
REMARK    6  A    between atoms: C14_17  and  C15_18
ROOT
HETATM    1  C1  UNL     1     -25.880 151.751  57.797  1.00  0.00     0.097 A
HETATM    2  N1  UNL     1     -24.588 152.027  57.963  1.00  0.00    -0.372 N
ATOM      3  H1  UNL     1     -24.198 152.526  58.762  1.00  0.00     0.164 HD
HETATM    4  C2  UNL     1     -23.875 151.559  56.936  1.00  0.00     0.124 A
HETATM    5  C3  UNL     1     -24.747 150.957  56.072  1.00  0.00     0.091 A
HETATM    6  C13 UNL     1     -26.018 151.064  56.594  1.00  0.00    -0.008 A
ENDROOT
BRANCH   5   7
HETATM    7  O1  UNL     1     -24.395 150.357  54.895  1.00  0.00    -0.349 OA
BRANCH   7   8
HETATM    8  C4  UNL     1     -24.120 150.866  53.655  1.00  0.00     0.176 C
BRANCH   8   9
HETATM    9  C5  UNL     1     -25.195 150.656  52.608  1.00  0.00     0.032 C
BRANCH   9  10
HETATM   10  C6  UNL     1     -24.693 151.311  51.356  1.00  0.00    -0.008 C
HETATM   11  C7  UNL     1     -25.043 152.781  51.264  1.00  0.00     0.010 C
HETATM   12  C8  UNL     1     -25.432 153.019  49.825  1.00  0.00    -0.014 C
HETATM   13  C9  UNL     1     -26.837 152.537  49.650  1.00  0.00     0.005 C
HETATM   14  C12 UNL     1     -24.677 151.868  49.130  1.00  0.00     0.009 C
HETATM   15  C10 UNL     1     -26.685 151.041  49.959  1.00  0.00     0.005 C
HETATM   16  C11 UNL     1     -25.223 150.773  50.076  1.00  0.00    -0.010 C
ENDBRANCH   9  10
ENDBRANCH   8   9
ENDBRANCH   7   8
ENDBRANCH   5   7
BRANCH   6  17
HETATM   17  C14 UNL     1     -27.326 150.581  56.128  1.00  0.00     0.047 C
BRANCH  17  18
HETATM   18  C15 UNL     1     -28.467 151.193  56.844  1.00  0.00    -0.010 A
HETATM   19  C16 UNL     1     -29.855 150.954  56.417  1.00  0.00     0.005 A
HETATM   20  C17 UNL     1     -29.226 152.368  56.363  1.00  0.00     0.005 A
ENDBRANCH  17  18
ENDBRANCH   6  17
TORSDOF 6
ENDMDL