MODEL 3
REMARK VINA RESULT: -6.283603486      3.745      6.652
REMARK  7 active torsions:
REMARK  status: ('A' for Active; 'I' for Inactive)
REMARK    1  A    between atoms: C2_2  and  C3_3
REMARK    2  A    between atoms: C8_8  and  C9_9
REMARK    3  A    between atoms: C9_9  and  C11_11
REMARK    4  A    between atoms: C12_12  and  C13_13
REMARK    5  A    between atoms: C14_14  and  C15_15
REMARK    6  A    between atoms: C16_16  and  C17_17
REMARK    7  A    between atoms: C17_17  and  N1_18
ROOT
HETATM    1  C9  UNL     1     -26.000 154.290  57.891  1.00  0.00     0.008 C
HETATM    2  C10 UNL     1     -25.637 154.721  59.283  1.00  0.00     0.014 C
ENDROOT
BRANCH   1   3
HETATM    3  C8  UNL     1     -25.520 152.876  57.581  1.00  0.00    -0.006 C
HETATM    4  C7  UNL     1     -24.996 152.181  58.782  1.00  0.00     0.005 C
HETATM    5  C6  UNL     1     -24.021 151.088  58.517  1.00  0.00     0.001 C
HETATM    6  C5  UNL     1     -24.110 150.572  57.108  1.00  0.00     0.013 C
HETATM    7  C3  UNL     1     -23.887 151.668  56.099  1.00  0.00    -0.027 C
HETATM    8  C4  UNL     1     -24.298 151.072  54.744  1.00  0.00     0.019 C
HETATM    9  C18 UNL     1     -24.627 152.924  56.392  1.00  0.00     0.018 C
BRANCH   7  10
HETATM   10  C2  UNL     1     -22.423 151.914  56.027  1.00  0.00    -0.028 C
HETATM   11  C1  UNL     1     -21.671 151.441  55.044  1.00  0.00     0.007 C
ENDBRANCH   7  10
ENDBRANCH   1   3
BRANCH   1  12
HETATM   12  C11 UNL     1     -27.471 154.400  57.748  1.00  0.00    -0.022 C
HETATM   13  C12 UNL     1     -28.256 153.357  57.580  1.00  0.00    -0.004 C
BRANCH  13  14
HETATM   14  C13 UNL     1     -29.690 153.530  57.446  1.00  0.00    -0.000 C
HETATM   15  C14 UNL     1     -30.409 153.950  58.467  1.00  0.00    -0.000 C
BRANCH  15  16
HETATM   16  C15 UNL     1     -31.846 154.129  58.349  1.00  0.00    -0.002 C
HETATM   17  C16 UNL     1     -32.662 153.250  57.835  1.00  0.00     0.000 C
BRANCH  17  18
HETATM   18  C17 UNL     1     -32.302 151.925  57.283  1.00  0.00     0.257 C
BRANCH  18  19
HETATM   19  N1  UNL     1     -32.334 150.957  58.376  1.00  0.00    -0.076 N
ATOM     20  H13 UNL     1     -32.257 149.993  58.052  1.00  0.00     0.274 HD
ATOM     21  H12 UNL     1     -31.489 150.978  58.947  1.00  0.00     0.274 HD
ATOM     22  H11 UNL     1     -33.181 151.125  58.920  1.00  0.00     0.274 HD
ENDBRANCH  18  19
ENDBRANCH  17  18
ENDBRANCH  15  16
ENDBRANCH  13  14
ENDBRANCH   1  12
TORSDOF 7
ENDMDL