MODEL 5
REMARK VINA RESULT: -6.001698882      1.378      7.051
REMARK  5 active torsions:
REMARK  status: ('A' for Active; 'I' for Inactive)
REMARK    1  A    between atoms: C2_2  and  C4_4
REMARK    2  A    between atoms: C4_4  and  C5_5
REMARK    3  A    between atoms: C5_5  and  N1_6
REMARK       I    between atoms: N1_6  and  C6_8
REMARK    4  A    between atoms: C6_8  and  C7_10
REMARK    5  A    between atoms: C7_10  and  C8_11
ROOT
HETATM    1  C8  UNL     1     -25.280 152.130  57.550  1.00  0.00    -0.031 C
HETATM    2  C9  UNL     1     -24.666 153.464  57.056  1.00  0.00     0.014 C
HETATM    3  C10 UNL     1     -25.365 154.643  57.646  1.00  0.00    -0.013 C
HETATM    4  C11 UNL     1     -25.266 154.588  59.154  1.00  0.00     0.009 C
HETATM    5  C12 UNL     1     -26.010 153.382  59.617  1.00  0.00    -0.013 C
HETATM    6  C13 UNL     1     -27.438 153.331  59.120  1.00  0.00     0.009 C
HETATM    7  C14 UNL     1     -27.408 153.326  57.614  1.00  0.00    -0.013 C
HETATM    8  C15 UNL     1     -26.800 154.618  57.160  1.00  0.00     0.009 C
HETATM    9  C16 UNL     1     -26.678 152.111  57.057  1.00  0.00     0.014 C
HETATM   10  C17 UNL     1     -25.304 152.148  59.069  1.00  0.00     0.014 C
ENDROOT
BRANCH   1  11
HETATM   11  C7  UNL     1     -24.399 151.045  57.084  1.00  0.00     0.112 C
BRANCH  11  12
HETATM   12  C6  UNL     1     -23.737 151.171  55.800  1.00  0.00     0.218 C
HETATM   13  N1  UNL     1     -24.482 151.062  54.595  1.00  0.00    -0.361 N
ATOM     14  H1  UNL     1     -25.486 150.894  54.654  1.00  0.00     0.162 HD
HETATM   15  O1  UNL     1     -22.519 151.374  55.702  1.00  0.00    -0.274 OA
BRANCH  13  16
HETATM   16  C5  UNL     1     -23.869 151.178  53.288  1.00  0.00     0.123 C
BRANCH  16  17
HETATM   17  C4  UNL     1     -24.898 151.325  52.207  1.00  0.00     0.023 C
BRANCH  17  18
HETATM   18  C2  UNL     1     -24.395 152.041  50.997  1.00  0.00    -0.021 C
HETATM   19  C1  UNL     1     -24.484 151.248  49.734  1.00  0.00     0.009 C
HETATM   20  C3  UNL     1     -25.184 153.326  50.853  1.00  0.00     0.009 C
ENDBRANCH  17  18
ENDBRANCH  16  17
ENDBRANCH  13  16
ENDBRANCH  11  12
ENDBRANCH   1  11
TORSDOF 5
ENDMDL