MODEL 1
REMARK VINA RESULT: -6.290836970      0.000      0.000
REMARK  6 active torsions:
REMARK  status: ('A' for Active; 'I' for Inactive)
REMARK    1  A    between atoms: C2_2  and  C3_3
REMARK    2  A    between atoms: C3_3  and  C4_4
REMARK    3  A    between atoms: C4_4  and  C6_6
REMARK    4  A    between atoms: C6_6  and  C8_8
REMARK    5  A    between atoms: C16_16  and  C17_17
REMARK    6  A    between atoms: C17_17  and  N1_18
ROOT
HETATM    1  C8  UNL     1     -25.421 151.071  57.013  1.00  0.00    -0.004 C
HETATM    2  C9  UNL     1     -25.969 151.492  58.388  1.00  0.00     0.011 C
HETATM    3  C10 UNL     1     -25.206 152.692  58.862  1.00  0.00    -0.005 C
HETATM    4  C11 UNL     1     -26.136 153.807  59.268  1.00  0.00    -0.006 A
HETATM    5  C12 UNL     1     -25.776 155.221  59.264  1.00  0.00     0.010 A
HETATM    6  C13 UNL     1     -26.363 154.620  58.042  1.00  0.00    -0.009 A
HETATM    7  C14 UNL     1     -25.353 154.158  56.998  1.00  0.00     0.010 C
HETATM    8  C15 UNL     1     -24.494 153.188  57.667  1.00  0.00    -0.004 C
HETATM    9  C16 UNL     1     -24.238 151.871  56.909  1.00  0.00     0.020 C
ENDROOT
BRANCH   1  10
HETATM   10  C6  UNL     1     -26.504 150.982  56.016  1.00  0.00    -0.010 C
HETATM   11  C7  UNL     1     -26.402 149.783  55.131  1.00  0.00     0.011 C
BRANCH  10  12
HETATM   12  C4  UNL     1     -27.880 150.953  56.688  1.00  0.00    -0.011 C
HETATM   13  C5  UNL     1     -28.646 149.705  56.450  1.00  0.00     0.010 C
BRANCH  12  14
HETATM   14  C3  UNL     1     -28.618 152.205  56.322  1.00  0.00     0.031 C
BRANCH  14  15
HETATM   15  C2  UNL     1     -29.703 152.488  57.333  1.00  0.00    -0.037 C
HETATM   16  C1  UNL     1     -29.755 153.645  57.954  1.00  0.00     0.007 C
ENDBRANCH  14  15
ENDBRANCH  12  14
ENDBRANCH  10  12
ENDBRANCH   1  10
BRANCH   9  17
HETATM   17  C17 UNL     1     -23.361 152.029  55.760  1.00  0.00     0.234 C
BRANCH  17  18
HETATM   18  N1  UNL     1     -23.086 150.745  55.093  1.00  0.00    -0.079 N
ATOM     19  H13 UNL     1     -22.149 150.409  55.311  1.00  0.00     0.274 HD
ATOM     20  H12 UNL     1     -23.629 149.989  55.509  1.00  0.00     0.274 HD
ATOM     21  H11 UNL     1     -23.235 150.797  54.085  1.00  0.00     0.274 HD
ENDBRANCH  17  18
ENDBRANCH   9  17
TORSDOF 6
ENDMDL