MODEL 2
REMARK VINA RESULT: -6.202577626      0.173      1.754
REMARK  6 active torsions:
REMARK  status: ('A' for Active; 'I' for Inactive)
REMARK    1  A    between atoms: C2_2  and  C3_3
REMARK    2  A    between atoms: C3_3  and  C5_5
REMARK    3  A    between atoms: C5_5  and  C6_6
REMARK    4  A    between atoms: C6_6  and  C7_7
REMARK    5  A    between atoms: C7_7  and  N1_8
REMARK    6  A    between atoms: N1_8  and  C8_11
ROOT
HETATM    1  C8  UNL     1     -24.854 151.903  51.160  1.00  0.00     0.127 C
HETATM    2  C9  UNL     1     -25.011 153.388  51.116  1.00  0.00     0.043 C
HETATM    3  C10 UNL     1     -25.741 153.777  49.855  1.00  0.00    -0.012 C
HETATM    4  C11 UNL     1     -24.973 153.349  48.636  1.00  0.00     0.009 C
HETATM    5  C12 UNL     1     -24.869 151.831  48.660  1.00  0.00    -0.012 C
HETATM    6  C13 UNL     1     -26.276 151.295  48.634  1.00  0.00     0.009 C
HETATM    7  C14 UNL     1     -26.960 151.663  49.910  1.00  0.00    -0.012 C
HETATM    8  C15 UNL     1     -27.120 153.177  49.921  1.00  0.00     0.009 C
HETATM    9  C16 UNL     1     -26.209 151.253  51.150  1.00  0.00     0.043 C
HETATM   10  C17 UNL     1     -24.125 151.404  49.907  1.00  0.00     0.043 C
ENDROOT
BRANCH   1  11
HETATM   11  N1  UNL     1     -24.042 151.475  52.284  1.00  0.00    -0.066 N
ATOM     12  H12 UNL     1     -23.601 152.274  52.740  1.00  0.00     0.278 HD
ATOM     13  H11 UNL     1     -23.207 150.984  51.964  1.00  0.00     0.278 HD
BRANCH  11  14
HETATM   14  C7  UNL     1     -24.767 150.687  53.226  1.00  0.00     0.233 C
BRANCH  14  15
HETATM   15  C6  UNL     1     -23.937 150.318  54.430  1.00  0.00     0.028 C
BRANCH  15  16
HETATM   16  C5  UNL     1     -24.646 150.499  55.727  1.00  0.00     0.006 C
BRANCH  16  17
HETATM   17  C3  UNL     1     -24.106 151.670  56.536  1.00  0.00    -0.019 C
HETATM   18  C4  UNL     1     -22.617 151.841  56.274  1.00  0.00     0.010 C
BRANCH  17  19
HETATM   19  C2  UNL     1     -24.394 151.473  57.990  1.00  0.00    -0.000 C
HETATM   20  C1  UNL     1     -25.369 152.511  58.522  1.00  0.00     0.005 C
ENDBRANCH  17  19
ENDBRANCH  16  17
ENDBRANCH  15  16
ENDBRANCH  14  15
ENDBRANCH  11  14
ENDBRANCH   1  11
TORSDOF 6
ENDMDL