MODEL 3
REMARK VINA RESULT: -7.423106279      0.401      1.138
REMARK  10 active torsions:
REMARK  status: ('A' for Active; 'I' for Inactive)
REMARK    1  A    between atoms: C2_2  and  C3_3
REMARK    2  A    between atoms: C3_3  and  C4_4
REMARK    3  A    between atoms: C4_4  and  C5_5
REMARK    4  A    between atoms: C5_5  and  C6_6
REMARK    5  A    between atoms: C6_6  and  C7_7
REMARK    6  A    between atoms: C7_7  and  C8_8
REMARK    7  A    between atoms: C8_8  and  C9_9
REMARK    8  A    between atoms: N4_31  and  C23_33
REMARK    9  A    between atoms: C23_33  and  C24_34
REMARK   10  A    between atoms: C27_37  and  C28_38
ROOT
HETATM    1  C9  UNL     1       6.264   5.657  18.377  1.00  0.00     0.277 C
HETATM    2  N1  UNL     1       6.342   7.082  18.663  1.00  0.00    -0.062 N
ATOM      3  H11 UNL     1       5.639   7.624  18.159  1.00  0.00     0.278 HD
ATOM      4  H12 UNL     1       7.169   7.520  18.258  1.00  0.00     0.278 HD
HETATM    5  C10 UNL     1       6.262   7.260  20.093  1.00  0.00     0.233 C
HETATM    6  C11 UNL     1       7.446   8.029  20.627  1.00  0.00     0.028 C
HETATM    7  C12 UNL     1       7.042   8.852  21.859  1.00  0.00     0.011 C
HETATM    8  C13 UNL     1       6.379   7.879  22.808  1.00  0.00     0.103 C
HETATM    9  C14 UNL     1       6.068   8.475  24.122  1.00  0.00     0.218 C
HETATM   10  O1  UNL     1       7.027   9.129  24.664  1.00  0.00    -0.274 OA
HETATM   11  N2  UNL     1       4.863   8.410  24.838  1.00  0.00    -0.344 N
ATOM     12  H2  UNL     1       4.917   8.001  25.771  1.00  0.00     0.163 HD
HETATM   13  C15 UNL     1       3.549   8.854  24.413  1.00  0.00     0.106 C
HETATM   14  C16 UNL     1       3.521   9.595  23.125  1.00  0.00     0.048 C
HETATM   15  C17 UNL     1       3.191   9.969  25.446  1.00  0.00     0.048 C
HETATM   16  C18 UNL     1       2.541   7.766  24.533  1.00  0.00     0.245 C
HETATM   17  O2  UNL     1       2.392   7.348  25.744  1.00  0.00    -0.271 OA
HETATM   18  N3  UNL     1       1.772   7.163  23.561  1.00  0.00    -0.353 N
ATOM     19  H3  UNL     1       0.765   7.180  23.717  1.00  0.00     0.163 HD
HETATM   20  C19 UNL     1       2.224   6.495  22.320  1.00  0.00     0.107 C
HETATM   21  C20 UNL     1       1.360   7.127  21.243  1.00  0.00     0.034 C
HETATM   22  C21 UNL     1       2.001   5.073  22.572  1.00  0.00     0.267 C
HETATM   23  N4  UNL     1       2.451   4.065  21.630  1.00  0.00    -0.047 N
HETATM   24  C22 UNL     1       1.624   4.100  20.489  1.00  0.00     0.278 C
HETATM   25  C26 UNL     1       3.855   4.185  21.406  1.00  0.00     0.227 C
HETATM   26  C27 UNL     1       4.558   3.595  20.289  1.00  0.00     0.039 C
HETATM   27  N5  UNL     1       4.256   4.153  18.970  1.00  0.00    -0.327 N
ATOM     28  H5  UNL     1       3.570   3.654  18.403  1.00  0.00     0.168 HD
HETATM   29  C31 UNL     1       4.816   5.300  18.417  1.00  0.00     0.252 C
HETATM   30  O3  UNL     1       4.031   6.153  17.880  1.00  0.00    -0.271 OA
ENDROOT
BRANCH   1  31
HETATM   31  C8  UNL     1       6.742   5.323  17.002  1.00  0.00     0.043 C
BRANCH  31  32
HETATM   32  C7  UNL     1       7.265   3.890  16.872  1.00  0.00     0.006 C
BRANCH  32  33
HETATM   33  C6  UNL     1       6.520   3.141  15.827  1.00  0.00     0.027 C
BRANCH  33  34
HETATM   34  C5  UNL     1       6.910   1.735  15.621  1.00  0.00    -0.031 C
BRANCH  34  35
HETATM   35  C4  UNL     1       7.223   0.833  16.720  1.00  0.00    -0.031 C
BRANCH  35  36
HETATM   36  C3  UNL     1       8.583   0.319  16.946  1.00  0.00     0.026 C
BRANCH  36  37
HETATM   37  C2  UNL     1       9.268   0.824  18.184  1.00  0.00    -0.001 C
HETATM   38  C1  UNL     1      10.037   2.101  17.874  1.00  0.00     0.005 C
ENDBRANCH  36  37
ENDBRANCH  35  36
ENDBRANCH  34  35
ENDBRANCH  33  34
ENDBRANCH  32  33
ENDBRANCH  31  32
ENDBRANCH   1  31
BRANCH  26  39
HETATM   39  C28 UNL     1       4.766   2.133  20.175  1.00  0.00     0.029 C
HETATM   40  C29 UNL     1       6.233   1.756  20.096  1.00  0.00     0.016 C
HETATM   41  C30 UNL     1       4.209   1.744  18.785  1.00  0.00     0.016 C
ENDBRANCH  26  39
BRANCH  23  42
HETATM   42  C23 UNL     1       2.267   2.829  22.365  1.00  0.00     0.242 C
BRANCH  42  43
HETATM   43  C24 UNL     1       3.161   2.477  23.460  1.00  0.00     0.024 C
HETATM   44  C25 UNL     1       3.355   1.022  23.788  1.00  0.00     0.007 C
ENDBRANCH  42  43
ENDBRANCH  23  42
TORSDOF 10
ENDMDL