MODEL 2
REMARK VINA RESULT: -7.619122046      3.649      5.520
REMARK  11 active torsions:
REMARK  status: ('A' for Active; 'I' for Inactive)
REMARK    1  A    between atoms: C3_3  and  N1_4
REMARK    2  A    between atoms: C3_3  and  C13_17
REMARK       I    between atoms: N1_4  and  C4_6
REMARK       I    between atoms: C4_6  and  N2_8
REMARK    3  A    between atoms: N2_8  and  C5_9
REMARK    4  A    between atoms: N2_8  and  C8_12
REMARK    5  A    between atoms: C5_9  and  C6_10
REMARK    6  A    between atoms: C8_12  and  C9_13
REMARK    7  A    between atoms: C9_13  and  C10_14
REMARK    8  A    between atoms: C10_14  and  C11_15
REMARK       I    between atoms: C13_17  and  N3_19
REMARK    9  A    between atoms: N3_19  and  C14_21
REMARK   10  A    between atoms: C15_22  and  C16_23
REMARK   11  A    between atoms: C16_23  and  N4_24
ROOT
HETATM    1  C1  UNL     1       6.239   5.857  13.283  1.00  0.00     0.015 C
HETATM    2  C2  UNL     1       5.563   6.290  14.181  1.00  0.00    -0.082 C
HETATM    3  C3  UNL     1       4.764   6.806  15.282  1.00  0.00     0.257 C
ENDROOT
BRANCH   3   4
HETATM    4  N1  UNL     1       5.371   8.065  15.694  1.00  0.00    -0.319 N
HETATM    5  C4  UNL     1       4.550   9.167  16.010  1.00  0.00     0.319 C
HETATM    6  O1  UNL     1       3.282   9.037  15.930  1.00  0.00    -0.247 OA
HETATM    7  N2  UNL     1       5.126  10.394  16.408  1.00  0.00    -0.334 N
ATOM      8  H1  UNL     1       6.386   8.150  15.753  1.00  0.00     0.166 HD
BRANCH   7   9
HETATM    9  C5  UNL     1       6.544  10.543  16.479  1.00  0.00     0.127 C
BRANCH   9  10
HETATM   10  C6  UNL     1       7.165  10.043  17.748  1.00  0.00     0.015 C
HETATM   11  C7  UNL     1       7.028  11.046  18.853  1.00  0.00     0.006 C
ENDBRANCH   9  10
ENDBRANCH   7   9
BRANCH   7  12
HETATM   12  C8  UNL     1       4.259  11.522  16.732  1.00  0.00     0.127 C
BRANCH  12  13
HETATM   13  C9  UNL     1       4.377  12.543  15.629  1.00  0.00     0.020 C
BRANCH  13  14
HETATM   14  C10 UNL     1       4.468  13.928  16.201  1.00  0.00     0.001 C
BRANCH  14  15
HETATM   15  C11 UNL     1       5.056  13.900  17.567  1.00  0.00    -0.004 C
HETATM   16  C12 UNL     1       5.492  15.317  17.924  1.00  0.00     0.005 C
ENDBRANCH  14  15
ENDBRANCH  13  14
ENDBRANCH  12  13
ENDBRANCH   7  12
ENDBRANCH   3   4
BRANCH   3  17
HETATM   17  C13 UNL     1       4.780   5.895  16.460  1.00  0.00     0.253 C
HETATM   18  O2  UNL     1       3.719   5.464  16.977  1.00  0.00    -0.270 OA
HETATM   19  N3  UNL     1       6.006   5.466  17.056  1.00  0.00    -0.353 N
ATOM     20  H3  UNL     1       6.884   5.800  16.658  1.00  0.00     0.163 HD
BRANCH  19  21
HETATM   21  C14 UNL     1       6.058   4.588  18.189  1.00  0.00     0.094 C
HETATM   22  C15 UNL     1       7.209   4.939  19.104  1.00  0.00     0.027 C
HETATM   23  C24 UNL     1       7.710   3.795  19.909  1.00  0.00     0.013 C
HETATM   24  C25 UNL     1       7.117   2.465  19.765  1.00  0.00    -0.013 C
HETATM   25  C26 UNL     1       5.891   2.335  18.905  1.00  0.00     0.011 C
HETATM   26  C32 UNL     1       8.102   1.464  19.130  1.00  0.00     0.013 C
HETATM   27  C27 UNL     1       6.217   3.173  17.685  1.00  0.00     0.010 C
HETATM   28  C28 UNL     1       7.573   2.911  17.130  1.00  0.00     0.015 C
HETATM   29  C29 UNL     1       8.321   1.769  17.681  1.00  0.00    -0.047 C
HETATM   30  C30 UNL     1       8.047   0.504  16.892  1.00  0.00     0.015 C
HETATM   31  C31 UNL     1       9.819   2.045  17.516  1.00  0.00     0.015 C
BRANCH  22  32
HETATM   32  C16 UNL     1       6.666   6.011  20.019  1.00  0.00     0.136 C
BRANCH  32  33
HETATM   33  N4  UNL     1       7.620   7.034  20.345  1.00  0.00    -0.339 N
HETATM   34  C17 UNL     1       8.586   7.541  19.645  1.00  0.00     0.185 A
HETATM   35  N5  UNL     1       9.262   8.538  20.394  1.00  0.00    -0.337 N
HETATM   36  C18 UNL     1       8.726   8.655  21.553  1.00  0.00     0.134 A
ATOM     37  H5  UNL     1      10.058   9.081  20.060  1.00  0.00     0.168 HD
HETATM   38  N6  UNL     1       8.757   9.296  22.738  1.00  0.00    -0.340 N
HETATM   39  C21 UNL     1       7.699   7.751  21.591  1.00  0.00     0.088 A
HETATM   40  C19 UNL     1       7.756   8.808  23.532  1.00  0.00     0.039 A
ATOM     41  H6  UNL     1       9.419  10.027  22.999  1.00  0.00     0.167 HD
HETATM   42  C20 UNL     1       7.106   7.862  22.836  1.00  0.00     0.003 A
HETATM   43  C23 UNL     1       6.972   8.639  24.568  1.00  0.00     0.008 A
HETATM   44  C22 UNL     1       6.177   7.591  23.928  1.00  0.00     0.073 A
ENDBRANCH  32  33
ENDBRANCH  22  32
ENDBRANCH  19  21
ENDBRANCH   3  17
TORSDOF 11
ENDMDL