MODEL 5
REMARK VINA RESULT: -8.507958541      2.071      6.100
REMARK  11 active torsions:
REMARK  status: ('A' for Active; 'I' for Inactive)
REMARK    1  A    between atoms: C2_2  and  C3_3
REMARK    2  A    between atoms: C3_3  and  C4_4
REMARK    3  A    between atoms: C4_4  and  N1_5
REMARK    4  A    between atoms: N1_5  and  C5_6
REMARK       I    between atoms: N1_5  and  C24_35
REMARK    5  A    between atoms: C6_7  and  O1_8
REMARK    6  A    between atoms: C6_7  and  N2_10
REMARK    7  A    between atoms: N2_10  and  C8_12
REMARK       I    between atoms: N3_20  and  C16_21
REMARK       I    between atoms: C16_21  and  N4_23
REMARK    8  A    between atoms: N4_23  and  C17_25
REMARK    9  A    between atoms: C17_25  and  C18_26
REMARK       I    between atoms: C24_35  and  N6_37
REMARK   10  A    between atoms: N6_37  and  C25_39
REMARK   11  A    between atoms: C25_39  and  C26_40
ROOT
HETATM    1  C8  UNL     1       6.997   7.654  21.323  1.00  0.00     0.036 A
HETATM    2  C9  UNL     1       7.791   6.687  20.784  1.00  0.00     0.032 A
HETATM    3  C10 UNL     1       7.535   6.182  19.497  1.00  0.00     0.032 A
HETATM    4  C11 UNL     1       6.469   6.669  18.778  1.00  0.00     0.045 A
HETATM    5  C12 UNL     1       5.656   7.658  19.328  1.00  0.00    -0.027 A
HETATM    6  C13 UNL     1       5.938   8.141  20.611  1.00  0.00     0.039 A
HETATM    7  C14 UNL     1       4.624   7.982  18.307  1.00  0.00     0.061 C
HETATM    8  C15 UNL     1       5.380   7.612  17.020  1.00  0.00     0.138 C
HETATM    9  N3  UNL     1       5.967   6.337  17.484  1.00  0.00    -0.299 N
HETATM   10  C16 UNL     1       5.976   5.100  16.817  1.00  0.00     0.322 C
HETATM   11  O2  UNL     1       5.566   5.109  15.614  1.00  0.00    -0.247 OA
HETATM   12  N4  UNL     1       6.388   3.863  17.345  1.00  0.00    -0.342 N
ATOM     13  H4  UNL     1       6.720   3.849  18.310  1.00  0.00     0.164 HD
ENDROOT
BRANCH   1  14
HETATM   14  N2  UNL     1       7.313   8.129  22.671  1.00  0.00    -0.331 N
HETATM   15  C7  UNL     1       7.758   9.483  22.725  1.00  0.00     0.158 C
BRANCH  14  16
HETATM   16  C6  UNL     1       7.147   7.250  23.746  1.00  0.00     0.158 C
HETATM   17  C5  UNL     1       6.001   6.593  24.324  1.00  0.00     0.151 C
BRANCH  17  18
HETATM   18  N1  UNL     1       4.695   6.778  23.824  1.00  0.00    -0.306 N
HETATM   19  C24 UNL     1       4.193   5.834  22.836  1.00  0.00     0.322 C
HETATM   20  O3  UNL     1       3.065   6.084  22.383  1.00  0.00    -0.247 OA
HETATM   21  N6  UNL     1       4.939   4.733  22.439  1.00  0.00    -0.342 N
ATOM     22  H6  UNL     1       5.835   4.654  22.921  1.00  0.00     0.164 HD
BRANCH  18  23
HETATM   23  C4  UNL     1       3.823   7.841  24.191  1.00  0.00     0.133 C
BRANCH  23  24
HETATM   24  C3  UNL     1       4.037   9.160  23.565  1.00  0.00     0.020 C
BRANCH  24  25
HETATM   25  C2  UNL     1       2.902   9.863  22.933  1.00  0.00    -0.003 C
HETATM   26  C1  UNL     1       2.615   9.436  21.498  1.00  0.00     0.005 C
ENDBRANCH  24  25
ENDBRANCH  23  24
ENDBRANCH  18  23
BRANCH  21  27
HETATM   27  C25 UNL     1       4.709   3.699  21.504  1.00  0.00     0.129 C
BRANCH  27  28
HETATM   28  C26 UNL     1       4.181   2.393  21.945  1.00  0.00     0.003 C
HETATM   29  C27 UNL     1       3.432   1.679  20.826  1.00  0.00     0.006 C
HETATM   30  C28 UNL     1       2.410   0.720  21.428  1.00  0.00     0.000 C
HETATM   31  C29 UNL     1       2.945   0.053  22.657  1.00  0.00     0.000 C
HETATM   32  C30 UNL     1       3.382   0.972  23.747  1.00  0.00     0.000 C
HETATM   33  C31 UNL     1       3.336   2.420  23.160  1.00  0.00     0.006 C
ENDBRANCH  27  28
ENDBRANCH  21  27
ENDBRANCH  17  18
BRANCH  16  34
HETATM   34  O1  UNL     1       8.268   6.947  24.377  1.00  0.00    -0.345 OA
ATOM     35  H1  UNL     1       8.838   7.700  24.478  1.00  0.00     0.219 HD
ENDBRANCH  16  34
ENDBRANCH  14  16
ENDBRANCH   1  14
BRANCH  12  36
HETATM   36  C17 UNL     1       6.377   2.614  16.628  1.00  0.00     0.131 C
BRANCH  36  37
HETATM   37  C18 UNL     1       7.168   1.590  17.357  1.00  0.00     0.040 C
HETATM   38  C19 UNL     1       8.441   1.202  16.636  1.00  0.00     0.194 C
HETATM   39  C20 UNL     1       9.175   0.440  17.747  1.00  0.00     0.067 C
HETATM   40  N5  UNL     1       9.354   2.279  16.906  1.00  0.00    -0.066 N
HETATM   41  C21 UNL     1       9.245   1.848  18.309  1.00  0.00     0.192 C
HETATM   42  C22 UNL     1       7.830   2.192  18.619  1.00  0.00     0.020 C
HETATM   43  C23 UNL     1       7.293   1.599  19.876  1.00  0.00     0.012 C
ATOM     44  H52 UNL     1      10.253   2.362  16.430  1.00  0.00     0.278 HD
ATOM     45  H51 UNL     1       9.165   3.238  16.614  1.00  0.00     0.278 HD
ENDBRANCH  36  37
ENDBRANCH  12  36
TORSDOF 11
ENDMDL