MODEL 1
REMARK VINA RESULT: -7.542441085      0.000      0.000
REMARK  11 active torsions:
REMARK  status: ('A' for Active; 'I' for Inactive)
REMARK    1  A    between atoms: C2_2  and  C3_3
REMARK    2  A    between atoms: C3_3  and  C4_4
REMARK    3  A    between atoms: C4_4  and  C5_5
REMARK    4  A    between atoms: C5_5  and  C6_6
REMARK    5  A    between atoms: C6_6  and  C7_7
REMARK    6  A    between atoms: C7_7  and  C9_9
REMARK    7  A    between atoms: C9_9  and  C10_10
REMARK    8  A    between atoms: C10_10  and  C11_11
REMARK    9  A    between atoms: C11_11  and  N1_12
REMARK   10  A    between atoms: C17_18  and  C18_19
REMARK       I    between atoms: N3_26  and  C23_27
REMARK   11  A    between atoms: C23_27  and  C24_29
ROOT
HETATM    1  N1  UNL     1       5.146   5.932  15.434  1.00  0.00    -0.061 N
HETATM    2  C12 UNL     1       4.886   7.283  14.921  1.00  0.00     0.243 C
HETATM    3  C13 UNL     1       3.411   7.383  15.203  1.00  0.00     0.021 C
HETATM    4  C14 UNL     1       2.960   6.058  14.560  1.00  0.00     0.040 C
HETATM    5  C15 UNL     1       3.816   5.487  15.707  1.00  0.00     0.196 C
HETATM    6  C16 UNL     1       3.249   6.643  16.489  1.00  0.00     0.036 C
HETATM    7  C17 UNL     1       4.021   7.071  17.676  1.00  0.00     0.093 C
HETATM    8  C19 UNL     1       5.434   6.655  17.782  1.00  0.00     0.012 C
HETATM    9  C20 UNL     1       5.673   5.706  18.959  1.00  0.00     0.015 C
HETATM   10  C21 UNL     1       7.155   5.527  19.206  1.00  0.00     0.021 C
HETATM   11  C22 UNL     1       7.844   6.812  19.545  1.00  0.00     0.126 C
HETATM   12  N3  UNL     1       6.884   7.876  19.337  1.00  0.00    -0.347 N
HETATM   13  C23 UNL     1       6.563   8.818  20.371  1.00  0.00     0.256 C
HETATM   14  O2  UNL     1       5.725   9.740  20.175  1.00  0.00    -0.267 OA
HETATM   15  C31 UNL     1       6.267   7.929  18.027  1.00  0.00     0.138 C
HETATM   16  C32 UNL     1       6.010   5.973  16.573  1.00  0.00     0.249 C
ENDROOT
BRANCH   7  17
HETATM   17  C18 UNL     1       3.214   6.649  18.880  1.00  0.00     0.236 C
HETATM   18  N2  UNL     1       2.361   5.518  18.819  1.00  0.00    -0.062 NA
HETATM   19  O1  UNL     1       3.255   7.261  19.973  1.00  0.00    -0.276 OA
ENDBRANCH   7  17
BRANCH   1  20
HETATM   20  C11 UNL     1       5.718   5.051  14.441  1.00  0.00     0.238 C
BRANCH  20  21
HETATM   21  C10 UNL     1       6.691   4.070  14.994  1.00  0.00     0.028 C
BRANCH  21  22
HETATM   22  C9  UNL     1       6.181   2.660  14.844  1.00  0.00     0.006 C
BRANCH  22  23
HETATM   23  C7  UNL     1       6.547   1.858  16.042  1.00  0.00    -0.019 C
HETATM   24  C8  UNL     1       5.960   0.472  15.905  1.00  0.00     0.010 C
BRANCH  23  25
HETATM   25  C6  UNL     1       5.991   2.446  17.328  1.00  0.00     0.004 C
BRANCH  25  26
HETATM   26  C5  UNL     1       6.155   1.506  18.507  1.00  0.00     0.000 C
BRANCH  26  27
HETATM   27  C4  UNL     1       7.448   1.581  19.200  1.00  0.00     0.000 C
BRANCH  27  28
HETATM   28  C3  UNL     1       8.635   0.886  18.703  1.00  0.00    -0.000 C
BRANCH  28  29
HETATM   29  C2  UNL     1       9.682   1.595  17.953  1.00  0.00    -0.005 C
HETATM   30  C1  UNL     1       9.560   3.080  17.953  1.00  0.00     0.005 C
ENDBRANCH  28  29
ENDBRANCH  27  28
ENDBRANCH  26  27
ENDBRANCH  25  26
ENDBRANCH  23  25
ENDBRANCH  22  23
ENDBRANCH  21  22
ENDBRANCH  20  21
ENDBRANCH   1  20
BRANCH  13  31
HETATM   31  C24 UNL     1       7.176   8.767  21.681  1.00  0.00     0.060 A
HETATM   32  C25 UNL     1       8.260   9.553  21.969  1.00  0.00     0.109 A
HETATM   33  N4  UNL     1       8.862   9.530  23.192  1.00  0.00    -0.331 N
HETATM   34  C26 UNL     1       8.371   8.700  24.158  1.00  0.00     0.273 A
ATOM     35  H4  UNL     1       9.669  10.125  23.383  1.00  0.00     0.168 HD
HETATM   36  O3  UNL     1       8.943   8.693  25.285  1.00  0.00    -0.266 OA
HETATM   37  C27 UNL     1       7.287   7.889  23.927  1.00  0.00     0.112 A
HETATM   38  N5  UNL     1       6.642   7.012  24.703  1.00  0.00    -0.361 N
HETATM   39  C30 UNL     1       6.690   7.933  22.664  1.00  0.00     0.015 A
HETATM   40  C28 UNL     1       5.617   6.455  23.998  1.00  0.00     0.089 A
ATOM     41  H5  UNL     1       6.880   6.793  25.670  1.00  0.00     0.165 HD
HETATM   42  C29 UNL     1       5.654   7.028  22.743  1.00  0.00     0.032 A
ENDBRANCH  13  31
TORSDOF 11
ENDMDL