MODEL 3
REMARK VINA RESULT: -7.733960032      2.205      3.129
REMARK  12 active torsions:
REMARK  status: ('A' for Active; 'I' for Inactive)
REMARK       I    between atoms: C2_4  and  N2_5
REMARK       I    between atoms: C2_4  and  N8_39
REMARK       I    between atoms: N3_9  and  C5_10
REMARK    1  A    between atoms: N5_12  and  C6_14
REMARK    2  A    between atoms: C6_14  and  C7_15
REMARK    3  A    between atoms: C7_15  and  N6_16
REMARK    4  A    between atoms: C12_21  and  C13_22
REMARK    5  A    between atoms: C13_22  and  C14_23
REMARK    6  A    between atoms: C14_23  and  C15_24
REMARK    7  A    between atoms: C15_24  and  N7_25
REMARK    8  A    between atoms: N7_25  and  C18_28
REMARK    9  A    between atoms: C18_28  and  C19_29
REMARK   10  A    between atoms: C19_29  and  C20_30
REMARK   11  A    between atoms: C25_35  and  O1_36
REMARK   12  A    between atoms: N8_39  and  C27_41
ROOT
HETATM    1  C1  UNL     1       7.908  11.743  19.805  1.00  0.00     0.165 C
HETATM    2  N1  UNL     1       7.604  10.468  20.404  1.00  0.00    -0.231 N
ATOM      3  H1  UNL     1       7.673  10.397  21.420  1.00  0.00     0.177 HD
HETATM    4  C2  UNL     1       7.252   9.413  19.756  1.00  0.00     0.674 C
HETATM    5  N2  UNL     1       6.990   8.240  20.494  1.00  0.00    -0.198 N
ATOM      6  H2  UNL     1       7.676   7.492  20.392  1.00  0.00     0.183 HD
HETATM    7  C3  UNL     1       6.026   7.994  21.259  1.00  0.00     0.026 C
HETATM    8  C4  UNL     1       4.888   8.906  21.584  1.00  0.00     0.178 C
HETATM    9  N3  UNL     1       4.663   8.758  23.001  1.00  0.00    -0.350 N
HETATM   10  C5  UNL     1       3.395   9.037  23.544  1.00  0.00     0.186 C
HETATM   11  N4  UNL     1       2.453   8.011  23.875  1.00  0.00    -0.064 NA
HETATM   12  N5  UNL     1       3.015  10.264  23.775  1.00  0.00    -0.363 N
ATOM     13  H5  UNL     1       3.653  11.029  23.555  1.00  0.00     0.162 HD
HETATM   14  C10 UNL     1       5.775   8.313  23.802  1.00  0.00     0.126 C
HETATM   15  C11 UNL     1       6.169   6.880  23.435  1.00  0.00     0.030 C
HETATM   16  C12 UNL     1       5.974   6.631  21.952  1.00  0.00     0.035 C
HETATM   17  N8  UNL     1       7.152   9.480  18.343  1.00  0.00    -0.218 N
ATOM     18  H8  UNL     1       8.017   9.591  17.814  1.00  0.00     0.178 HD
ENDROOT
BRANCH  16  19
HETATM   19  C13 UNL     1       7.074   5.844  21.362  1.00  0.00     0.012 C
BRANCH  19  20
HETATM   20  C14 UNL     1       6.822   4.611  20.607  1.00  0.00     0.029 C
BRANCH  20  21
HETATM   21  C15 UNL     1       5.467   4.385  20.069  1.00  0.00     0.236 C
BRANCH  21  22
HETATM   22  N7  UNL     1       4.958   3.056  20.440  1.00  0.00    -0.075 N
HETATM   23  C16 UNL     1       4.920   2.905  21.877  1.00  0.00     0.272 C
HETATM   24  C17 UNL     1       3.606   2.877  19.959  1.00  0.00     0.272 C
BRANCH  22  25
HETATM   25  C18 UNL     1       5.801   2.059  19.862  1.00  0.00     0.237 C
BRANCH  25  26
HETATM   26  C19 UNL     1       5.620   1.879  18.369  1.00  0.00     0.032 C
BRANCH  26  27
HETATM   27  C20 UNL     1       6.900   1.197  17.865  1.00  0.00    -0.010 C
HETATM   28  C21 UNL     1       7.944   1.204  18.938  1.00  0.00     0.009 C
HETATM   29  C22 UNL     1       9.343   1.382  18.410  1.00  0.00    -0.016 C
HETATM   30  C23 UNL     1       9.757   0.154  17.660  1.00  0.00     0.010 C
HETATM   31  C24 UNL     1       9.491   2.655  17.621  1.00  0.00     0.036 C
HETATM   32  C25 UNL     1       8.287   2.984  16.791  1.00  0.00     0.118 C
HETATM   33  C26 UNL     1       7.372   1.806  16.569  1.00  0.00     0.036 C
BRANCH  32  34
HETATM   34  O1  UNL     1       7.569   4.064  17.279  1.00  0.00    -0.396 OA
ATOM     35  H1  UNL     1       6.918   3.815  17.925  1.00  0.00     0.210 HD
ENDBRANCH  32  34
ENDBRANCH  26  27
ENDBRANCH  25  26
ENDBRANCH  22  25
ENDBRANCH  21  22
ENDBRANCH  20  21
ENDBRANCH  19  20
ENDBRANCH  16  19
BRANCH  17  36
HETATM   36  C27 UNL     1       5.924   9.404  17.600  1.00  0.00     0.036 C
HETATM   37  C28 UNL     1       4.861  10.215  18.261  1.00  0.00     0.038 C
HETATM   38  C29 UNL     1       5.432   7.983  17.420  1.00  0.00     0.038 C
HETATM   39  C30 UNL     1       6.152   9.991  16.222  1.00  0.00     0.038 C
ENDBRANCH  17  36
BRANCH  12  40
HETATM   40  C6  UNL     1       1.714  10.573  24.333  1.00  0.00     0.141 C
BRANCH  40  41
HETATM   41  C7  UNL     1       0.899  11.248  23.254  1.00  0.00     0.135 C
BRANCH  41  42
HETATM   42  N6  UNL     1       0.255  12.441  23.704  1.00  0.00    -0.419 N
HETATM   43  C8  UNL     1      -0.225  12.407  25.047  1.00  0.00     0.142 C
HETATM   44  C9  UNL     1      -0.647  13.019  22.756  1.00  0.00     0.142 C
ENDBRANCH  41  42
ENDBRANCH  40  41
ENDBRANCH  12  40
TORSDOF 12
ENDMDL