MODEL 1
REMARK VINA RESULT: -7.323896651      0.000      0.000
REMARK  12 active torsions:
REMARK  status: ('A' for Active; 'I' for Inactive)
REMARK    1  A    between atoms: C2_2  and  C3_3
REMARK    2  A    between atoms: C3_3  and  C4_4
REMARK    3  A    between atoms: C4_4  and  C5_5
REMARK    4  A    between atoms: C5_5  and  C6_6
REMARK    5  A    between atoms: C6_6  and  C7_7
REMARK    6  A    between atoms: C7_7  and  C8_8
REMARK    7  A    between atoms: C8_8  and  N1_9
REMARK    8  A    between atoms: C13_14  and  N2_15
REMARK       I    between atoms: N2_15  and  C14_17
REMARK       I    between atoms: C14_17  and  N3_19
REMARK    9  A    between atoms: C24_31  and  N5_32
REMARK   10  A    between atoms: N5_32  and  C26_34
REMARK   11  A    between atoms: C26_34  and  N6_36
REMARK   12  A    between atoms: N6_36  and  C27_38
ROOT
HETATM    1  N1  UNL     1       6.357   5.712  20.079  1.00  0.00    -0.002 N
HETATM    2  C9  UNL     1       6.312   4.414  20.720  1.00  0.00     0.283 C
HETATM    3  C10 UNL     1       5.019   5.909  19.553  1.00  0.00     0.272 C
HETATM    4  C11 UNL     1       4.598   7.232  20.048  1.00  0.00     0.105 C
HETATM    5  C12 UNL     1       3.211   7.747  19.907  1.00  0.00     0.051 C
HETATM    6  C13 UNL     1       3.309   9.088  20.662  1.00  0.00     0.088 C
HETATM    7  C21 UNL     1       4.412   9.110  21.742  1.00  0.00     0.037 C
HETATM    8  C22 UNL     1       5.785   9.073  21.323  1.00  0.00     0.061 C
HETATM    9  C23 UNL     1       5.786   9.349  19.789  1.00  0.00     0.125 C
HETATM   10  N4  UNL     1       5.374   8.119  19.303  1.00  0.00    -0.415 N
ATOM     11  H4  UNL     1       5.649   7.851  18.358  1.00  0.00     0.153 HD
HETATM   12  C24 UNL     1       6.802   8.061  21.528  1.00  0.00     0.095 C
HETATM   13  C29 UNL     1       6.855   6.730  20.974  1.00  0.00     0.364 C
HETATM   14  O2  UNL     1       7.817   6.162  21.545  1.00  0.00    -0.258 OA
ENDROOT
BRANCH   6  15
HETATM   15  N2  UNL     1       2.063   9.188  21.396  1.00  0.00    -0.338 N
HETATM   16  C14 UNL     1       1.265  10.354  21.418  1.00  0.00     0.318 C
HETATM   17  O1  UNL     1       1.707  11.337  20.743  1.00  0.00    -0.247 OA
HETATM   18  N3  UNL     1       0.057  10.511  22.104  1.00  0.00    -0.334 N
HETATM   19  C15 UNL     1      -0.517   9.447  22.895  1.00  0.00     0.127 C
HETATM   20  C20 UNL     1      -0.588  11.827  21.968  1.00  0.00     0.127 C
HETATM   21  C16 UNL     1      -0.350   9.783  24.379  1.00  0.00     0.020 C
HETATM   22  C17 UNL     1       0.634  10.881  24.608  1.00  0.00     0.002 C
HETATM   23  C18 UNL     1       0.132  12.255  24.327  1.00  0.00     0.002 C
HETATM   24  C19 UNL     1      -0.997  12.326  23.338  1.00  0.00     0.020 C
ATOM     25  H2  UNL     1       1.745   8.375  21.923  1.00  0.00     0.164 HD
ENDBRANCH   6  15
BRANCH  12  26
HETATM   26  N5  UNL     1       7.479   8.260  22.826  1.00  0.00    -0.327 N
HETATM   27  C25 UNL     1       8.465   9.377  22.857  1.00  0.00     0.159 C
BRANCH  26  28
HETATM   28  C26 UNL     1       7.251   7.562  23.990  1.00  0.00     0.173 C
HETATM   29  S1  UNL     1       8.444   7.755  25.175  1.00  0.00    -0.041 SA
BRANCH  28  30
HETATM   30  N6  UNL     1       6.263   6.691  24.365  1.00  0.00    -0.367 N
ATOM     31  H6  UNL     1       6.627   5.813  24.734  1.00  0.00     0.161 HD
BRANCH  30  32
HETATM   32  C27 UNL     1       4.842   6.739  24.353  1.00  0.00     0.117 C
HETATM   33  C28 UNL     1       4.149   5.784  23.421  1.00  0.00     0.026 C
ENDBRANCH  30  32
ENDBRANCH  28  30
ENDBRANCH  26  28
ENDBRANCH  12  26
BRANCH   1  34
HETATM   34  C8  UNL     1       7.240   5.717  18.931  1.00  0.00     0.247 C
BRANCH  34  35
HETATM   35  C7  UNL     1       6.880   4.914  17.750  1.00  0.00     0.029 C
BRANCH  35  36
HETATM   36  C6  UNL     1       7.876   3.872  17.326  1.00  0.00     0.002 C
BRANCH  36  37
HETATM   37  C5  UNL     1       8.978   3.598  18.294  1.00  0.00     0.000 C
BRANCH  37  38
HETATM   38  C4  UNL     1       9.774   2.410  17.867  1.00  0.00     0.000 C
BRANCH  38  39
HETATM   39  C3  UNL     1       9.183   1.094  18.338  1.00  0.00    -0.000 C
BRANCH  39  40
HETATM   40  C2  UNL     1       9.121   0.152  17.183  1.00  0.00    -0.005 C
HETATM   41  C1  UNL     1       7.714   0.270  16.598  1.00  0.00     0.005 C
ENDBRANCH  39  40
ENDBRANCH  38  39
ENDBRANCH  37  38
ENDBRANCH  36  37
ENDBRANCH  35  36
ENDBRANCH  34  35
ENDBRANCH   1  34
TORSDOF 12
ENDMDL