MODEL 4
REMARK VINA RESULT: -7.607732220      2.263      5.930
REMARK  10 active torsions:
REMARK  status: ('A' for Active; 'I' for Inactive)
REMARK    1  A    between atoms: C2_2  and  C3_3
REMARK    2  A    between atoms: C3_3  and  C4_4
REMARK    3  A    between atoms: C4_4  and  C5_5
REMARK    4  A    between atoms: N1_8  and  C8_9
REMARK    5  A    between atoms: C8_9  and  C9_10
REMARK       I    between atoms: C9_10  and  N2_12
REMARK    6  A    between atoms: N2_12  and  C10_14
REMARK    7  A    between atoms: C10_14  and  C11_15
REMARK    8  A    between atoms: C10_14  and  C25_32
REMARK       I    between atoms: C11_15  and  N3_17
REMARK    9  A    between atoms: C15_21  and  C16_22
REMARK   10  A    between atoms: C16_22  and  N4_25
REMARK       I    between atoms: N5_34  and  C27_36
ROOT
HETATM    1  C10 UNL     1       2.961   4.246  21.704  1.00  0.00     0.222 C
ENDROOT
BRANCH   1   2
HETATM    2  N2  UNL     1       3.533   3.174  20.858  1.00  0.00    -0.341 N
HETATM    3  C9  UNL     1       3.411   3.157  19.449  1.00  0.00     0.247 C
HETATM    4  O1  UNL     1       2.792   4.093  18.902  1.00  0.00    -0.272 OA
ATOM      5  H2  UNL     1       4.038   2.413  21.313  1.00  0.00     0.163 HD
BRANCH   3   6
HETATM    6  C8  UNL     1       3.983   2.088  18.642  1.00  0.00     0.374 C
BRANCH   6   7
HETATM    7  N1  UNL     1       5.409   2.023  18.561  1.00  0.00     0.097 N
HETATM    8  C7  UNL     1       6.065   2.090  19.836  1.00  0.00     0.273 C
HETATM    9  C6  UNL     1       7.468   2.559  19.859  1.00  0.00     0.035 C
HETATM   10  C5  UNL     1       7.711   3.858  19.074  1.00  0.00    -0.007 C
HETATM   11  C29 UNL     1       6.429   4.238  18.424  1.00  0.00     0.014 C
HETATM   12  C28 UNL     1       5.823   3.080  17.656  1.00  0.00     0.277 C
HETATM   13  C30 UNL     1       6.339   5.535  17.727  1.00  0.00     0.012 C
BRANCH  10  14
HETATM   14  C4  UNL     1       8.920   3.709  18.206  1.00  0.00     0.005 C
BRANCH  14  15
HETATM   15  C3  UNL     1       9.502   2.353  18.067  1.00  0.00     0.000 C
BRANCH  15  16
HETATM   16  C2  UNL     1       9.183   1.736  16.702  1.00  0.00    -0.005 C
HETATM   17  C1  UNL     1       8.446   0.432  16.888  1.00  0.00     0.005 C
ENDBRANCH  15  16
ENDBRANCH  14  15
ENDBRANCH  10  14
ENDBRANCH   6   7
ENDBRANCH   3   6
ENDBRANCH   1   2
BRANCH   1  18
HETATM   18  C11 UNL     1       4.015   5.228  22.049  1.00  0.00     0.248 C
HETATM   19  O2  UNL     1       5.204   4.886  21.715  1.00  0.00    -0.271 OA
HETATM   20  N3  UNL     1       3.872   6.456  22.684  1.00  0.00    -0.343 N
HETATM   21  C12 UNL     1       2.490   6.920  23.018  1.00  0.00     0.126 C
HETATM   22  C15 UNL     1       4.605   7.522  23.224  1.00  0.00     0.123 C
HETATM   23  C13 UNL     1       2.586   7.139  24.484  1.00  0.00     0.022 C
HETATM   24  C14 UNL     1       4.071   7.500  24.676  1.00  0.00     0.029 C
BRANCH  22  25
HETATM   25  C16 UNL     1       6.061   7.699  23.151  1.00  0.00     0.142 C
HETATM   26  C17 UNL     1       6.848   6.668  23.924  1.00  0.00     0.048 C
HETATM   27  C18 UNL     1       6.273   8.915  24.159  1.00  0.00     0.048 C
BRANCH  25  28
HETATM   28  N4  UNL     1       6.653   8.140  21.932  1.00  0.00    -0.061 N
HETATM   29  C19 UNL     1       5.665   8.521  20.898  1.00  0.00     0.273 C
HETATM   30  C20 UNL     1       7.484   7.152  21.286  1.00  0.00     0.238 C
HETATM   31  C21 UNL     1       8.226   7.592  20.084  1.00  0.00     0.028 C
HETATM   32  C22 UNL     1       8.828   8.946  20.147  1.00  0.00     0.003 C
HETATM   33  C23 UNL     1       7.914   9.931  20.767  1.00  0.00     0.028 C
HETATM   34  C24 UNL     1       7.440   9.348  22.095  1.00  0.00     0.238 C
ENDBRANCH  25  28
ENDBRANCH  22  25
ENDBRANCH   1  18
BRANCH   1  35
HETATM   35  C25 UNL     1       2.442   3.524  22.876  1.00  0.00     0.017 C
HETATM   36  C26 UNL     1       3.433   2.625  23.588  1.00  0.00     0.066 C
HETATM   37  N5  UNL     1       1.295   3.549  23.298  1.00  0.00    -0.336 N
HETATM   38  C27 UNL     1       0.083   4.128  23.003  1.00  0.00     0.185 C
ATOM     39  H5  UNL     1       1.211   2.957  24.124  1.00  0.00     0.168 HD
HETATM   40  N6  UNL     1      -0.876   3.976  23.886  1.00  0.00    -0.374 N
HETATM   41  N7  UNL     1      -0.239   4.870  21.844  1.00  0.00    -0.064 NA
ATOM     42  H62 UNL     1      -0.644   3.440  24.722  1.00  0.00     0.158 HD
ATOM     43  H61 UNL     1      -1.775   4.406  23.668  1.00  0.00     0.158 HD
ENDBRANCH   1  35
TORSDOF 10
ENDMDL