MODEL 3
REMARK VINA RESULT: -8.333969905      1.245      2.815
REMARK  11 active torsions:
REMARK  status: ('A' for Active; 'I' for Inactive)
REMARK    1  A    between atoms: C4_4  and  C5_5
REMARK    2  A    between atoms: C9_13  and  C10_14
REMARK    3  A    between atoms: C10_14  and  C11_15
REMARK    4  A    between atoms: C11_15  and  N3_16
REMARK       I    between atoms: N3_16  and  C12_18
REMARK    5  A    between atoms: C12_18  and  C13_20
REMARK    6  A    between atoms: C13_20  and  C14_21
REMARK    7  A    between atoms: C14_21  and  C15_22
REMARK    8  A    between atoms: C15_22  and  C16_23
REMARK    9  A    between atoms: C16_23  and  C17_24
REMARK       I    between atoms: N4_27  and  C20_28
REMARK   10  A    between atoms: C20_28  and  C21_30
REMARK       I    between atoms: N5_34  and  C25_35
REMARK   11  A    between atoms: C25_35  and  C26_37
ROOT
HETATM    1  C1  UNL     1       7.145  10.213  16.975  1.00  0.00     0.027 C
HETATM    2  C2  UNL     1       7.459   9.993  18.118  1.00  0.00    -0.026 C
HETATM    3  C3  UNL     1       7.829   9.711  19.452  1.00  0.00    -0.009 C
HETATM    4  C4  UNL     1       8.145   9.446  20.594  1.00  0.00    -0.034 C
ENDROOT
BRANCH   4   5
HETATM    5  C5  UNL     1       8.509   9.109  21.932  1.00  0.00     0.101 A
HETATM    6  N1  UNL     1       9.735   9.119  22.472  1.00  0.00    -0.356 N
HETATM    7  C6  UNL     1       9.708   8.755  23.748  1.00  0.00     0.119 A
ATOM      8  H1  UNL     1      10.583   9.375  21.966  1.00  0.00     0.166 HD
HETATM    9  C7  UNL     1       8.385   8.491  24.068  1.00  0.00     0.061 A
HETATM   10  N2  UNL     1       7.592   8.103  25.085  1.00  0.00    -0.363 N
HETATM   11  C32 UNL     1       7.647   8.714  22.930  1.00  0.00     0.039 A
HETATM   12  C8  UNL     1       6.334   8.066  24.632  1.00  0.00     0.101 A
ATOM     13  H2  UNL     1       7.896   7.876  26.031  1.00  0.00     0.165 HD
HETATM   14  C9  UNL     1       6.323   8.444  23.276  1.00  0.00    -0.004 A
BRANCH  14  15
HETATM   15  C10 UNL     1       5.143   8.561  22.447  1.00  0.00     0.031 C
BRANCH  15  16
HETATM   16  C11 UNL     1       3.984   9.369  22.842  1.00  0.00     0.092 C
BRANCH  16  17
HETATM   17  N3  UNL     1       2.904   8.843  23.551  1.00  0.00    -0.337 N
HETATM   18  C12 UNL     1       2.608   8.905  24.911  1.00  0.00     0.221 C
HETATM   19  O1  UNL     1       3.303   9.458  25.810  1.00  0.00    -0.273 OA
ATOM     20  H3  UNL     1       2.226   8.334  22.985  1.00  0.00     0.168 HD
BRANCH  18  21
HETATM   21  C13 UNL     1       1.319   8.245  25.399  1.00  0.00     0.103 C
BRANCH  21  22
HETATM   22  C14 UNL     1       1.510   6.764  25.373  1.00  0.00     0.009 C
BRANCH  22  23
HETATM   23  C15 UNL     1       0.745   6.099  24.249  1.00  0.00     0.001 C
BRANCH  23  24
HETATM   24  C16 UNL     1       1.235   4.673  24.100  1.00  0.00     0.005 C
BRANCH  24  25
HETATM   25  C17 UNL     1       2.270   4.536  23.028  1.00  0.00    -0.012 C
HETATM   26  C18 UNL     1       1.718   4.467  21.652  1.00  0.00     0.024 C
HETATM   27  C19 UNL     1       2.734   4.201  20.619  1.00  0.00     0.126 C
HETATM   28  N4  UNL     1       4.102   4.070  21.068  1.00  0.00    -0.350 N
HETATM   29  C20 UNL     1       5.130   4.255  20.114  1.00  0.00     0.242 C
HETATM   30  C30 UNL     1       4.459   3.741  22.428  1.00  0.00     0.126 C
HETATM   31  O2  UNL     1       4.797   4.501  18.898  1.00  0.00    -0.271 OA
HETATM   32  C31 UNL     1       3.215   3.374  23.234  1.00  0.00     0.024 C
BRANCH  29  33
HETATM   33  C21 UNL     1       6.545   4.164  20.506  1.00  0.00     0.179 C
HETATM   34  C22 UNL     1       7.179   5.516  20.798  1.00  0.00     0.037 C
HETATM   35  C23 UNL     1       7.354   6.103  19.418  1.00  0.00     0.022 C
HETATM   36  C24 UNL     1       7.541   4.937  18.510  1.00  0.00     0.127 C
HETATM   37  N5  UNL     1       7.282   3.762  19.282  1.00  0.00    -0.338 N
HETATM   38  C25 UNL     1       7.628   2.429  19.016  1.00  0.00     0.224 C
HETATM   39  O3  UNL     1       7.334   1.481  19.809  1.00  0.00    -0.273 OA
BRANCH  38  40
HETATM   40  C26 UNL     1       8.356   2.079  17.778  1.00  0.00     0.078 C
HETATM   41  C27 UNL     1       8.502   0.609  17.494  1.00  0.00     0.014 C
HETATM   42  C28 UNL     1       9.959   0.685  17.898  1.00  0.00     0.002 C
HETATM   43  C29 UNL     1       9.841   2.195  17.903  1.00  0.00     0.014 C
ENDBRANCH  38  40
ENDBRANCH  29  33
ENDBRANCH  24  25
ENDBRANCH  23  24
ENDBRANCH  22  23
ENDBRANCH  21  22
ENDBRANCH  18  21
ENDBRANCH  16  17
ENDBRANCH  15  16
ENDBRANCH  14  15
ENDBRANCH   4   5
TORSDOF 11
ENDMDL