MODEL 1
REMARK VINA RESULT: -9.440192531      0.000      0.000
REMARK  12 active torsions:
REMARK  status: ('A' for Active; 'I' for Inactive)
REMARK    1  A    between atoms: C2_2  and  C3_3
REMARK    2  A    between atoms: C3_3  and  C4_4
REMARK       I    between atoms: C4_4  and  N1_6
REMARK    3  A    between atoms: N2_9  and  C7_10
REMARK    4  A    between atoms: C7_10  and  O2_11
REMARK    5  A    between atoms: C7_10  and  C8_13
REMARK    6  A    between atoms: C8_13  and  C9_14
REMARK    7  A    between atoms: C8_13  and  N5_26
REMARK    8  A    between atoms: C9_14  and  C10_15
REMARK       I    between atoms: N5_26  and  C18_28
REMARK       I    between atoms: C18_28  and  N6_30
REMARK    9  A    between atoms: N6_30  and  C19_32
REMARK   10  A    between atoms: C19_32  and  C20_33
REMARK   11  A    between atoms: C23_36  and  C24_37
REMARK   12  A    between atoms: C24_37  and  C26_39
ROOT
HETATM    1  C8  UNL     1       3.853   7.684  23.146  1.00  0.00     0.165 C
ENDROOT
BRANCH   1   2
HETATM    2  C7  UNL     1       5.002   8.559  22.898  1.00  0.00     0.137 C
BRANCH   2   3
HETATM    3  N2  UNL     1       6.306   8.566  23.415  1.00  0.00    -0.361 N
HETATM    4  C6  UNL     1       7.353   9.156  22.540  1.00  0.00     0.144 C
HETATM    5  C5  UNL     1       8.621   8.329  22.580  1.00  0.00     0.145 C
HETATM    6  N1  UNL     1       9.036   8.373  23.992  1.00  0.00    -0.349 N
HETATM    7  C4  UNL     1      10.258   8.967  24.373  1.00  0.00     0.219 C
HETATM    8  C31 UNL     1       8.132   7.786  24.921  1.00  0.00     0.145 C
HETATM    9  O1  UNL     1      10.991   9.464  23.483  1.00  0.00    -0.273 OA
HETATM   10  C30 UNL     1       6.681   8.033  24.702  1.00  0.00     0.144 C
BRANCH   7  11
HETATM   11  C3  UNL     1      10.693   9.019  25.780  1.00  0.00     0.103 C
BRANCH  11  12
HETATM   12  C2  UNL     1      11.696   7.887  26.038  1.00  0.00     0.005 C
HETATM   13  C1  UNL     1      11.274   7.048  27.215  1.00  0.00     0.005 C
ENDBRANCH  11  12
ENDBRANCH   7  11
ENDBRANCH   2   3
BRANCH   2  14
HETATM   14  O2  UNL     1       4.769   9.503  22.034  1.00  0.00    -0.348 OA
ATOM     15  H2  UNL     1       3.996   9.357  21.499  1.00  0.00     0.219 HD
ENDBRANCH   2  14
ENDBRANCH   1   2
BRANCH   1  16
HETATM   16  C9  UNL     1       2.531   8.433  22.943  1.00  0.00     0.076 C
BRANCH  16  17
HETATM   17  C10 UNL     1       1.569   8.253  24.025  1.00  0.00    -0.011 A
HETATM   18  C11 UNL     1       1.509   7.081  24.829  1.00  0.00     0.098 A
HETATM   19  N3  UNL     1       0.589   7.216  25.774  1.00  0.00    -0.363 N
HETATM   20  C12 UNL     1       0.014   8.423  25.658  1.00  0.00     0.059 A
ATOM     21  H3  UNL     1       0.355   6.515  26.477  1.00  0.00     0.165 HD
HETATM   22  C13 UNL     1      -0.989   9.045  26.376  1.00  0.00     0.033 A
HETATM   23  C17 UNL     1       0.619   9.075  24.570  1.00  0.00     0.068 A
HETATM   24  C14 UNL     1      -1.397  10.298  26.024  1.00  0.00     0.020 A
HETATM   25  C15 UNL     1      -0.776  10.887  24.953  1.00  0.00     0.091 A
HETATM   26  N4  UNL     1       0.200  10.313  24.236  1.00  0.00    -0.359 N
HETATM   27  C16 UNL     1       0.794  10.965  23.095  1.00  0.00     0.156 C
ENDBRANCH  16  17
ENDBRANCH   1  16
BRANCH   1  28
HETATM   28  N5  UNL     1       3.877   6.609  22.152  1.00  0.00    -0.331 N
HETATM   29  C18 UNL     1       4.469   5.350  22.418  1.00  0.00     0.316 C
HETATM   30  O3  UNL     1       4.980   5.148  23.544  1.00  0.00    -0.247 OA
HETATM   31  N6  UNL     1       4.506   4.310  21.458  1.00  0.00    -0.343 N
ATOM     32  H6  UNL     1       4.087   4.491  20.546  1.00  0.00     0.164 HD
ATOM     33  H5  UNL     1       3.453   6.773  21.238  1.00  0.00     0.165 HD
BRANCH  31  34
HETATM   34  C19 UNL     1       5.094   3.016  21.680  1.00  0.00     0.129 C
BRANCH  34  35
HETATM   35  C20 UNL     1       6.285   2.754  20.819  1.00  0.00     0.003 C
HETATM   36  C21 UNL     1       7.080   3.952  20.431  1.00  0.00     0.006 C
HETATM   37  C22 UNL     1       7.955   3.793  19.244  1.00  0.00     0.005 C
HETATM   38  C23 UNL     1       7.834   2.574  18.422  1.00  0.00    -0.011 C
HETATM   39  C28 UNL     1       7.092   1.421  19.001  1.00  0.00     0.005 C
HETATM   40  C29 UNL     1       5.812   1.962  19.597  1.00  0.00     0.006 C
BRANCH  38  41
HETATM   41  C24 UNL     1       9.225   2.053  18.013  1.00  0.00    -0.015 C
HETATM   42  C25 UNL     1       9.343   0.583  18.382  1.00  0.00     0.010 C
BRANCH  41  43
HETATM   43  C26 UNL     1       9.430   2.184  16.531  1.00  0.00     0.000 C
HETATM   44  C27 UNL     1       8.156   2.352  15.769  1.00  0.00     0.005 C
ENDBRANCH  41  43
ENDBRANCH  38  41
ENDBRANCH  34  35
ENDBRANCH  31  34
ENDBRANCH   1  28
TORSDOF 12
ENDMDL