MODEL 5
REMARK VINA RESULT: -7.684364648      1.647      3.165
REMARK  9 active torsions:
REMARK  status: ('A' for Active; 'I' for Inactive)
REMARK    1  A    between atoms: C2_2  and  C3_3
REMARK    2  A    between atoms: C3_3  and  N1_4
REMARK       I    between atoms: N1_4  and  C4_5
REMARK    3  A    between atoms: C4_5  and  C5_7
REMARK    4  A    between atoms: C5_7  and  N2_8
REMARK    5  A    between atoms: C5_7  and  C19_35
REMARK    6  A    between atoms: N2_8  and  C6_10
REMARK    7  A    between atoms: C6_10  and  O2_11
REMARK    8  A    between atoms: C6_10  and  C7_13
REMARK    9  A    between atoms: C11_26  and  N7_28
ROOT
HETATM    1  C7  UNL     1       5.814   6.194  22.133  1.00  0.00     0.165 C
HETATM    2  N3  UNL     1       5.026   5.173  22.378  1.00  0.00    -0.307 N
ATOM      3  H3  UNL     1       4.390   5.094  23.172  1.00  0.00     0.170 HD
HETATM    4  C8  UNL     1       5.202   4.191  21.354  1.00  0.00     0.251 C
HETATM    5  O3  UNL     1       4.323   3.373  21.054  1.00  0.00    -0.271 OA
HETATM    6  C9  UNL     1       6.580   4.450  20.864  1.00  0.00     0.243 C
HETATM    7  N4  UNL     1       6.485   5.945  20.888  1.00  0.00    -0.283 N
HETATM    8  C10 UNL     1       7.044   6.450  19.712  1.00  0.00     0.179 C
HETATM    9  N5  UNL     1       6.975   7.646  19.298  1.00  0.00    -0.371 N
ATOM     10  H51 UNL     1       7.383   8.015  18.439  1.00  0.00     0.159 HD
ATOM     11  H52 UNL     1       6.538   8.447  19.754  1.00  0.00     0.159 HD
HETATM   12  N6  UNL     1       7.663   5.316  19.065  1.00  0.00    -0.327 N
ATOM     13  H6  UNL     1       8.499   5.317  18.481  1.00  0.00     0.165 HD
HETATM   14  C11 UNL     1       6.819   4.145  19.433  1.00  0.00     0.229 C
HETATM   15  C12 UNL     1       5.572   4.311  18.593  1.00  0.00     0.074 C
ENDROOT
BRANCH   1  16
HETATM   16  C6  UNL     1       5.912   7.371  22.939  1.00  0.00     0.182 C
BRANCH  16  17
HETATM   17  N2  UNL     1       6.987   8.238  23.096  1.00  0.00    -0.353 N
ATOM     18  H2  UNL     1       6.909   9.189  22.734  1.00  0.00     0.162 HD
BRANCH  17  19
HETATM   19  C5  UNL     1       8.223   7.836  23.762  1.00  0.00     0.194 C
BRANCH  19  20
HETATM   20  C4  UNL     1       8.069   8.318  25.211  1.00  0.00     0.314 C
HETATM   21  N1  UNL     1       8.976   7.864  26.156  1.00  0.00    -0.382 NA
HETATM   22  O1  UNL     1       7.111   9.093  25.420  1.00  0.00    -0.255 OA
BRANCH  21  23
HETATM   23  C3  UNL     1       9.841   7.431  27.062  1.00  0.00     0.185 C
BRANCH  23  24
HETATM   24  C2  UNL     1      11.257   7.935  26.932  1.00  0.00     0.021 C
HETATM   25  C1  UNL     1      12.240   7.385  27.649  1.00  0.00     0.013 C
ENDBRANCH  23  24
ENDBRANCH  21  23
ENDBRANCH  19  20
BRANCH  19  26
HETATM   26  C19 UNL     1       9.445   8.375  23.158  1.00  0.00     0.010 C
HETATM   27  C20 UNL     1      10.052   9.526  23.927  1.00  0.00     0.012 C
HETATM   28  C21 UNL     1       9.201   8.823  21.725  1.00  0.00     0.012 C
ENDBRANCH  19  26
ENDBRANCH  17  19
ENDBRANCH  16  17
BRANCH  16  29
HETATM   29  O2  UNL     1       4.830   7.659  23.602  1.00  0.00    -0.344 OA
ATOM     30  H2  UNL     1       4.046   7.812  23.089  1.00  0.00     0.219 HD
ENDBRANCH  16  29
ENDBRANCH   1  16
BRANCH  14  31
HETATM   31  N7  UNL     1       7.583   2.977  19.141  1.00  0.00    -0.042 N
HETATM   32  C13 UNL     1       7.588   2.084  20.287  1.00  0.00     0.275 C
HETATM   33  C14 UNL     1       8.955   3.348  18.882  1.00  0.00     0.240 C
HETATM   34  C15 UNL     1       9.860   2.186  18.569  1.00  0.00     0.028 C
HETATM   35  C16 UNL     1       9.216   1.191  17.636  1.00  0.00     0.003 C
HETATM   36  C17 UNL     1       7.964   1.746  17.036  1.00  0.00     0.028 C
HETATM   37  C18 UNL     1       6.972   2.285  18.037  1.00  0.00     0.240 C
ENDBRANCH  14  31
TORSDOF 9
ENDMDL