MODEL 3
REMARK VINA RESULT: -7.999530344      2.297      5.889
REMARK  9 active torsions:
REMARK  status: ('A' for Active; 'I' for Inactive)
REMARK    1  A    between atoms: C2_2  and  C3_3
REMARK    2  A    between atoms: C3_3  and  C4_4
REMARK    3  A    between atoms: C4_4  and  C13_19
REMARK    4  A    between atoms: N1_5  and  N2_7
REMARK    5  A    between atoms: N2_7  and  C5_8
REMARK       I    between atoms: N2_7  and  C7_10
REMARK       I    between atoms: C7_10  and  N3_12
REMARK    6  A    between atoms: N3_12  and  C8_14
REMARK       I    between atoms: C13_19  and  N4_21
REMARK    7  A    between atoms: N4_21  and  C14_23
REMARK    8  A    between atoms: C20_29  and  C21_30
REMARK    9  A    between atoms: C21_30  and  O3_31
ROOT
HETATM    1  C4  UNL     1       7.243   7.653  22.193  1.00  0.00     0.097 C
HETATM    2  N1  UNL     1       6.637   8.699  21.770  1.00  0.00    -0.293 N
ATOM      3  H1  UNL     1       6.916   9.588  22.185  1.00  0.00     0.187 HD
ENDROOT
BRANCH   1   4
HETATM    4  C3  UNL     1       8.311   7.766  23.250  1.00  0.00     0.090 C
BRANCH   4   5
HETATM    5  C2  UNL     1       7.752   7.565  24.616  1.00  0.00    -0.031 C
HETATM    6  C1  UNL     1       7.240   8.584  25.275  1.00  0.00     0.007 C
ENDBRANCH   4   5
ENDBRANCH   1   4
BRANCH   1   7
HETATM    7  C13 UNL     1       6.940   6.323  21.687  1.00  0.00     0.266 C
HETATM    8  O2  UNL     1       6.028   5.658  22.209  1.00  0.00    -0.266 OA
HETATM    9  N4  UNL     1       7.675   5.768  20.598  1.00  0.00    -0.347 N
ATOM     10  H4  UNL     1       8.417   6.340  20.197  1.00  0.00     0.163 HD
BRANCH   9  11
HETATM   11  C14 UNL     1       7.461   4.478  20.019  1.00  0.00     0.035 C
HETATM   12  C15 UNL     1       6.354   4.559  19.007  1.00  0.00     0.035 C
HETATM   13  C16 UNL     1       6.227   3.226  18.290  1.00  0.00    -0.011 C
HETATM   14  C17 UNL     1       5.810   2.217  19.347  1.00  0.00     0.009 C
HETATM   15  C22 UNL     1       7.501   2.856  17.607  1.00  0.00     0.016 C
HETATM   16  C18 UNL     1       6.900   2.126  20.388  1.00  0.00    -0.011 C
HETATM   17  C19 UNL     1       8.154   1.665  19.656  1.00  0.00     0.016 C
HETATM   18  C24 UNL     1       7.186   3.422  21.074  1.00  0.00     0.035 C
HETATM   19  C20 UNL     1       8.579   2.701  18.659  1.00  0.00    -0.016 C
HETATM   20  C23 UNL     1       8.750   4.044  19.327  1.00  0.00     0.042 C
BRANCH  19  21
HETATM   21  C21 UNL     1       9.904   2.313  18.052  1.00  0.00     0.173 C
BRANCH  21  22
HETATM   22  O3  UNL     1      10.305   1.070  18.526  1.00  0.00    -0.400 OA
ATOM     23  H3  UNL     1      11.238   1.073  18.707  1.00  0.00     0.209 HD
ENDBRANCH  21  22
ENDBRANCH  19  21
ENDBRANCH   9  11
ENDBRANCH   1   7
BRANCH   2  24
HETATM   24  N2  UNL     1       5.641   8.749  20.808  1.00  0.00    -0.243 N
HETATM   25  C7  UNL     1       5.965   8.664  19.431  1.00  0.00     0.337 C
HETATM   26  O1  UNL     1       7.163   8.541  19.084  1.00  0.00    -0.245 OA
HETATM   27  N3  UNL     1       4.982   8.713  18.414  1.00  0.00    -0.334 N
ATOM     28  H3  UNL     1       4.003   8.813  18.683  1.00  0.00     0.165 HD
BRANCH  24  29
HETATM   29  C5  UNL     1       4.264   8.898  21.252  1.00  0.00     0.149 C
HETATM   30  C6  UNL     1       4.203   9.424  22.676  1.00  0.00     0.028 C
ENDBRANCH  24  29
BRANCH  27  31
HETATM   31  C8  UNL     1       5.313   8.626  17.001  1.00  0.00     0.109 A
HETATM   32  C9  UNL     1       5.659   7.557  16.509  1.00  0.00    -0.006 A
HETATM   33  C10 UNL     1       5.374   6.953  16.166  1.00  0.00    -0.029 A
HETATM   34  C11 UNL     1       4.302   6.487  15.786  1.00  0.00     0.029 A
HETATM   35  C12 UNL     1       3.650   8.050  16.492  1.00  0.00     0.033 A
ENDBRANCH  27  31
ENDBRANCH   2  24
TORSDOF 9
ENDMDL