MODEL 2
REMARK VINA RESULT: -8.547072825      1.061      1.564
REMARK  9 active torsions:
REMARK  status: ('A' for Active; 'I' for Inactive)
REMARK    1  A    between atoms: C2_2  and  C3_3
REMARK    2  A    between atoms: C6_6  and  C7_7
REMARK    3  A    between atoms: C7_7  and  C8_8
REMARK    4  A    between atoms: C8_8  and  C9_9
REMARK    5  A    between atoms: C9_9  and  S1_10
REMARK    6  A    between atoms: S1_10  and  N1_11
REMARK    7  A    between atoms: S1_10  and  N6_28
REMARK       I    between atoms: N1_11  and  C10_13
REMARK       I    between atoms: C10_13  and  N2_15
REMARK    8  A    between atoms: N3_19  and  N4_21
REMARK    9  A    between atoms: N6_28  and  C16_29
ROOT
HETATM    1  S1  UNL     1       7.145   8.133  21.670  1.00  0.00    -0.033 SA
ENDROOT
BRANCH   1   2
HETATM    2  C9  UNL     1       7.290   6.354  21.427  1.00  0.00     0.103 C
BRANCH   2   3
HETATM    3  C8  UNL     1       8.070   6.145  20.148  1.00  0.00     0.014 C
BRANCH   3   4
HETATM    4  C7  UNL     1       7.145   5.520  19.137  1.00  0.00     0.026 C
BRANCH   4   5
HETATM    5  C6  UNL     1       7.911   4.463  18.355  1.00  0.00     0.085 C
HETATM    6  C5  UNL     1       8.788   3.642  19.229  1.00  0.00     0.048 C
HETATM    7  C3  UNL     1       8.372   2.215  19.060  1.00  0.00     0.056 C
HETATM    8  C4  UNL     1       9.578   1.308  18.847  1.00  0.00     0.030 C
HETATM    9  C20 UNL     1       7.564   2.261  17.817  1.00  0.00     0.230 C
HETATM   10  N7  UNL     1       7.046   3.571  17.660  1.00  0.00    -0.355 N
HETATM   11  O2  UNL     1       7.365   1.282  17.018  1.00  0.00    -0.272 OA
ATOM     12  H7  UNL     1       6.205   3.828  17.143  1.00  0.00     0.162 HD
BRANCH   7  13
HETATM   13  C2  UNL     1       7.574   1.744  20.199  1.00  0.00    -0.018 C
HETATM   14  C1  UNL     1       7.196   2.563  21.150  1.00  0.00     0.008 C
ENDBRANCH   7  13
ENDBRANCH   4   5
ENDBRANCH   3   4
ENDBRANCH   2   3
ENDBRANCH   1   2
BRANCH   1  15
HETATM   15  N1  UNL     1       8.411   8.499  22.844  1.00  0.00    -0.278 N
HETATM   16  C10 UNL     1       8.138   8.156  24.192  1.00  0.00     0.328 C
HETATM   17  O1  UNL     1       7.027   7.614  24.491  1.00  0.00    -0.246 OA
HETATM   18  N2  UNL     1       9.107   8.423  25.184  1.00  0.00    -0.333 N
HETATM   19  C11 UNL     1       8.836   8.080  26.565  1.00  0.00     0.133 C
HETATM   20  C15 UNL     1      10.354   9.030  24.849  1.00  0.00     0.133 C
HETATM   21  C12 UNL     1       9.915   7.112  27.006  1.00  0.00     0.074 C
HETATM   22  C13 UNL     1      11.222   7.761  26.794  1.00  0.00     0.008 C
HETATM   23  N3  UNL     1      12.254   7.172  27.333  1.00  0.00    -0.295 N
HETATM   24  C14 UNL     1      11.336   9.001  26.009  1.00  0.00     0.074 C
ATOM     25  H3  UNL     1      12.149   6.309  27.868  1.00  0.00     0.187 HD
ATOM     26  H1  UNL     1       9.291   8.935  22.568  1.00  0.00     0.179 HD
BRANCH  23  27
HETATM   27  N4  UNL     1      13.504   7.761  27.153  1.00  0.00    -0.249 N
HETATM   28  N5  UNL     1      14.273   7.246  26.285  1.00  0.00    -0.331 N
ATOM     29  H52 UNL     1      13.973   6.433  25.749  1.00  0.00     0.178 HD
ATOM     30  H51 UNL     1      15.188   7.678  26.154  1.00  0.00     0.178 HD
ATOM     31  H4  UNL     1      13.789   8.576  27.697  1.00  0.00     0.207 HD
ENDBRANCH  23  27
ENDBRANCH   1  15
BRANCH   1  32
HETATM   32  N6  UNL     1       5.615   8.378  22.453  1.00  0.00    -0.161 NA
BRANCH  32  33
HETATM   33  C16 UNL     1       4.554   8.724  21.571  1.00  0.00     0.030 C
HETATM   34  C17 UNL     1       3.701   7.456  21.399  1.00  0.00     0.034 C
HETATM   35  C18 UNL     1       3.651   9.821  22.020  1.00  0.00     0.034 C
HETATM   36  C19 UNL     1       5.061   9.073  20.171  1.00  0.00     0.034 C
ENDBRANCH  32  33
ENDBRANCH   1  32
TORSDOF 9
ENDMDL