MODEL 3
REMARK VINA RESULT: -6.430708245      1.350      1.697
REMARK  13 active torsions:
REMARK  status: ('A' for Active; 'I' for Inactive)
REMARK    1  A    between atoms: C2_2  and  C3_3
REMARK    2  A    between atoms: C2_2  and  C15_18
REMARK    3  A    between atoms: C4_4  and  C5_5
REMARK    4  A    between atoms: C6_6  and  C7_7
REMARK    5  A    between atoms: C7_7  and  N1_8
REMARK    6  A    between atoms: N1_8  and  C8_9
REMARK    7  A    between atoms: C8_9  and  C9_10
REMARK    8  A    between atoms: C13_14  and  O1_16
REMARK       I    between atoms: C15_18  and  N2_20
REMARK    9  A    between atoms: N2_20  and  C16_22
REMARK       I    between atoms: N3_25  and  C19_26
REMARK   10  A    between atoms: C19_26  and  C20_28
REMARK   11  A    between atoms: C20_28  and  O4_29
REMARK   12  A    between atoms: C20_28  and  C21_31
REMARK   13  A    between atoms: C21_31  and  C22_32
ROOT
HETATM    1  C9  UNL     1       7.922   2.013  19.033  1.00  0.00    -0.079 C
HETATM    2  C10 UNL     1       8.951   1.429  18.836  1.00  0.00    -0.109 C
HETATM    3  C11 UNL     1      10.198   0.702  18.579  1.00  0.00     0.112 C
ENDROOT
BRANCH   1   4
HETATM    4  C8  UNL     1       6.663   2.714  19.261  1.00  0.00     0.335 C
BRANCH   4   5
HETATM    5  N1  UNL     1       6.473   3.687  18.219  1.00  0.00    -0.009 N
HETATM    6  C12 UNL     1       5.094   4.169  18.142  1.00  0.00     0.311 A
HETATM    7  C13 UNL     1       5.762   3.393  17.027  1.00  0.00     0.251 A
HETATM    8  C14 UNL     1       5.998   4.212  15.786  1.00  0.00     0.081 C
BRANCH   5   9
HETATM    9  C7  UNL     1       7.521   4.667  18.123  1.00  0.00     0.336 C
BRANCH   9  10
HETATM   10  C6  UNL     1       7.691   5.424  19.354  1.00  0.00    -0.064 C
HETATM   11  C5  UNL     1       7.834   6.089  20.378  1.00  0.00    -0.013 C
BRANCH  11  12
HETATM   12  C4  UNL     1       7.973   6.852  21.561  1.00  0.00    -0.009 C
HETATM   13  C3  UNL     1       8.077   7.497  22.579  1.00  0.00    -0.048 C
BRANCH  13  14
HETATM   14  C2  UNL     1       8.214   8.268  23.780  1.00  0.00     0.076 C
HETATM   15  C1  UNL     1       9.323   8.907  24.046  1.00  0.00     0.039 C
BRANCH  14  16
HETATM   16  C15 UNL     1       7.106   8.330  24.698  1.00  0.00     0.259 C
HETATM   17  O2  UNL     1       7.275   7.878  25.858  1.00  0.00    -0.267 OA
HETATM   18  N2  UNL     1       5.834   8.871  24.364  1.00  0.00    -0.350 N
ATOM     19  H2  UNL     1       5.708   9.234  23.419  1.00  0.00     0.163 HD
BRANCH  18  20
HETATM   20  C16 UNL     1       4.722   8.944  25.255  1.00  0.00     0.104 C
HETATM   21  C17 UNL     1       3.728  10.014  24.883  1.00  0.00     0.046 C
HETATM   22  C18 UNL     1       2.504   9.560  25.695  1.00  0.00     0.128 C
HETATM   23  N3  UNL     1       2.503   8.147  25.544  1.00  0.00    -0.348 N
HETATM   24  C19 UNL     1       1.430   7.234  25.695  1.00  0.00     0.248 C
HETATM   25  C25 UNL     1       3.856   7.710  25.188  1.00  0.00     0.151 C
HETATM   26  O3  UNL     1       1.609   5.975  25.519  1.00  0.00    -0.270 OA
BRANCH  24  27
HETATM   27  C20 UNL     1       0.041   7.585  26.053  1.00  0.00     0.210 C
BRANCH  27  28
HETATM   28  O4  UNL     1      -0.172   7.946  27.351  1.00  0.00    -0.386 OA
ATOM     29  H4  UNL     1      -0.992   7.659  27.736  1.00  0.00     0.210 HD
ENDBRANCH  27  28
BRANCH  27  30
HETATM   30  C21 UNL     1      -0.575   8.592  25.133  1.00  0.00     0.045 C
BRANCH  30  31
HETATM   31  C22 UNL     1      -0.556   8.115  23.717  1.00  0.00    -0.020 C
HETATM   32  C23 UNL     1       0.074   9.109  22.768  1.00  0.00     0.009 C
HETATM   33  C24 UNL     1      -1.980   7.791  23.315  1.00  0.00     0.009 C
ENDBRANCH  30  31
ENDBRANCH  27  30
ENDBRANCH  24  27
ENDBRANCH  18  20
ENDBRANCH  14  16
ENDBRANCH  13  14
ENDBRANCH  11  12
ENDBRANCH   9  10
ENDBRANCH   5   9
BRANCH   7  34
HETATM   34  O1  UNL     1       5.207   2.150  16.785  1.00  0.00    -0.363 OA
ATOM     35  H1  UNL     1       4.516   1.788  17.327  1.00  0.00     0.212 HD
ENDBRANCH   7  34
ENDBRANCH   4   5
ENDBRANCH   1   4
TORSDOF 13
ENDMDL