MODEL 1
REMARK VINA RESULT: -7.695253070      0.000      0.000
REMARK  7 active torsions:
REMARK  status: ('A' for Active; 'I' for Inactive)
REMARK    1  A    between atoms: C2_2  and  S1_3
REMARK    2  A    between atoms: S1_3  and  N1_6
REMARK    3  A    between atoms: N1_6  and  C3_8
REMARK    4  A    between atoms: C3_8  and  C4_9
REMARK    5  A    between atoms: C4_9  and  N2_10
REMARK    6  A    between atoms: C9_15  and  N3_16
REMARK       I    between atoms: N3_16  and  C10_18
REMARK       I    between atoms: C10_18  and  N5_22
REMARK    7  A    between atoms: N5_22  and  C11_24
ROOT
HETATM    1  N3  UNL     1       5.902   5.458  22.716  1.00  0.00    -0.220 N
ATOM      2  H3  UNL     1       6.771   4.989  22.968  1.00  0.00     0.178 HD
HETATM    3  C10 UNL     1       5.100   4.975  21.647  1.00  0.00     0.668 C
HETATM    4  N4  UNL     1       3.838   5.249  21.618  1.00  0.00    -0.235 N
ATOM      5  H41 UNL     1       3.262   4.902  20.852  1.00  0.00     0.174 HD
ATOM      6  H42 UNL     1       3.475   5.815  22.386  1.00  0.00     0.174 HD
HETATM    7  N5  UNL     1       5.605   4.187  20.578  1.00  0.00    -0.220 N
ATOM      8  H5  UNL     1       5.215   3.267  20.373  1.00  0.00     0.178 HD
ENDROOT
BRANCH   1   9
HETATM    9  C9  UNL     1       5.465   6.613  23.427  1.00  0.00     0.131 C
HETATM   10  C7  UNL     1       5.755   7.906  22.726  1.00  0.00     0.038 C
HETATM   11  C6  UNL     1       4.861   8.965  23.342  1.00  0.00     0.036 C
HETATM   12  C8  UNL     1       7.089   8.292  23.386  1.00  0.00     0.244 C
HETATM   13  C5  UNL     1       5.434   9.007  24.767  1.00  0.00     0.238 C
HETATM   14  N2  UNL     1       6.602   8.187  24.774  1.00  0.00    -0.063 N
HETATM   15  C19 UNL     1       6.178   6.782  24.763  1.00  0.00     0.263 C
BRANCH  14  16
HETATM   16  C4  UNL     1       7.580   8.491  25.737  1.00  0.00     0.257 C
BRANCH  16  17
HETATM   17  C3  UNL     1       9.003   8.399  25.252  1.00  0.00     0.160 C
BRANCH  17  18
HETATM   18  N1  UNL     1       9.835   7.725  26.249  1.00  0.00    -0.318 N
ATOM     19  H1  UNL     1       9.504   6.985  26.868  1.00  0.00     0.172 HD
BRANCH  18  20
HETATM   20  S1  UNL     1      11.437   8.337  26.243  1.00  0.00     0.226 S
HETATM   21  O1  UNL     1      12.062   8.356  24.899  1.00  0.00    -0.206 OA
HETATM   22  O2  UNL     1      11.357   9.773  26.736  1.00  0.00    -0.206 OA
BRANCH  20  23
HETATM   23  C2  UNL     1      12.454   7.459  27.412  1.00  0.00     0.158 C
HETATM   24  C1  UNL     1      13.886   7.486  26.926  1.00  0.00     0.023 C
ENDBRANCH  20  23
ENDBRANCH  18  20
ENDBRANCH  17  18
ENDBRANCH  16  17
ENDBRANCH  14  16
ENDBRANCH   1   9
BRANCH   7  25
HETATM   25  C11 UNL     1       6.680   4.723  19.798  1.00  0.00     0.128 C
HETATM   26  C12 UNL     1       8.024   4.085  20.187  1.00  0.00     0.061 C
HETATM   27  C13 UNL     1       8.593   3.818  18.870  1.00  0.00     0.202 C
HETATM   28  C14 UNL     1       9.513   2.692  18.676  1.00  0.00     0.043 C
HETATM   29  N6  UNL     1       7.414   3.344  18.118  1.00  0.00    -0.003 N
HETATM   30  C15 UNL     1       9.282   2.414  17.175  1.00  0.00     0.113 C
HETATM   31  C16 UNL     1       7.999   3.162  16.863  1.00  0.00     0.318 C
HETATM   32  O3  UNL     1       7.663   3.475  15.742  1.00  0.00    -0.265 OA
HETATM   33  C17 UNL     1       6.954   2.075  18.612  1.00  0.00     0.283 C
HETATM   34  C18 UNL     1       6.518   4.410  18.300  1.00  0.00     0.273 C
ENDBRANCH   7  25
TORSDOF 7
ENDMDL