MODEL 3
REMARK VINA RESULT: -6.587435568      1.712      2.903
REMARK  10 active torsions:
REMARK  status: ('A' for Active; 'I' for Inactive)
REMARK    1  A    between atoms: C2_2  and  N1_3
REMARK    2  A    between atoms: N1_3  and  C3_4
REMARK    3  A    between atoms: C3_4  and  C4_5
REMARK    4  A    between atoms: C4_5  and  C5_6
REMARK    5  A    between atoms: C5_6  and  N2_7
REMARK    6  A    between atoms: N2_7  and  C6_9
REMARK    7  A    between atoms: C6_9  and  N3_11
REMARK    8  A    between atoms: N4_14  and  C10_16
REMARK    9  A    between atoms: C10_16  and  C11_17
REMARK   10  A    between atoms: C18_27  and  N6_28
ROOT
HETATM    1  N1  UNL     1       6.816   2.827  19.996  1.00  0.00     0.057 N
HETATM    2  N5  UNL     1       8.038   2.067  20.042  1.00  0.00    -0.179 N
ATOM      3  H5  UNL     1       8.268   1.606  20.922  1.00  0.00     0.197 HD
HETATM    4  C16 UNL     1       8.945   1.906  18.969  1.00  0.00     0.244 C
HETATM    5  O1  UNL     1       9.643   0.841  19.089  1.00  0.00    -0.272 OA
HETATM    6  C17 UNL     1       9.215   2.733  17.766  1.00  0.00     0.137 C
HETATM    7  C18 UNL     1       7.952   3.170  17.126  1.00  0.00     0.199 C
HETATM    8  C19 UNL     1       6.739   2.362  17.414  1.00  0.00     0.119 C
HETATM    9  C20 UNL     1       6.170   2.510  18.768  1.00  0.00     0.205 C
HETATM   10  N7  UNL     1       4.925   2.317  18.852  1.00  0.00    -0.381 N
ATOM     11  H71 UNL     1       4.462   2.090  17.972  1.00  0.00     0.157 HD
ATOM     12  H72 UNL     1       4.532   2.420  19.788  1.00  0.00     0.157 HD
ENDROOT
BRANCH   1  13
HETATM   13  C2  UNL     1       6.029   2.239  21.057  1.00  0.00     0.269 C
HETATM   14  C1  UNL     1       6.821   1.625  22.156  1.00  0.00     0.037 C
ENDBRANCH   1  13
BRANCH   1  15
HETATM   15  C3  UNL     1       7.218   4.163  20.154  1.00  0.00     0.275 C
BRANCH  15  16
HETATM   16  C4  UNL     1       6.356   5.302  19.869  1.00  0.00     0.050 C
BRANCH  16  17
HETATM   17  C5  UNL     1       6.811   6.295  18.813  1.00  0.00     0.123 C
BRANCH  17  18
HETATM   18  N2  UNL     1       6.995   7.610  19.383  1.00  0.00    -0.367 N
ATOM     19  H2  UNL     1       6.900   8.387  18.729  1.00  0.00     0.161 HD
BRANCH  18  20
HETATM   20  C6  UNL     1       7.283   7.966  20.696  1.00  0.00     0.169 C
HETATM   21  S1  UNL     1       8.800   8.668  20.925  1.00  0.00    -0.041 SA
BRANCH  20  22
HETATM   22  N3  UNL     1       6.525   7.842  21.859  1.00  0.00    -0.355 N
HETATM   23  C7  UNL     1       6.919   7.172  23.046  1.00  0.00     0.153 C
HETATM   24  C8  UNL     1       5.667   6.734  23.807  1.00  0.00     0.257 C
HETATM   25  N4  UNL     1       4.820   7.832  24.219  1.00  0.00    -0.068 N
HETATM   26  C9  UNL     1       5.272   8.243  25.532  1.00  0.00     0.272 C
HETATM   27  C14 UNL     1       5.023   8.981  23.331  1.00  0.00     0.257 C
HETATM   28  C15 UNL     1       5.189   8.474  21.894  1.00  0.00     0.153 C
BRANCH  25  29
HETATM   29  C10 UNL     1       3.460   7.382  24.170  1.00  0.00     0.241 C
BRANCH  29  30
HETATM   30  C11 UNL     1       2.899   6.842  25.449  1.00  0.00     0.003 C
HETATM   31  C12 UNL     1       1.614   7.644  25.759  1.00  0.00     0.011 C
HETATM   32  C13 UNL     1       2.468   5.401  25.364  1.00  0.00     0.011 C
ENDBRANCH  29  30
ENDBRANCH  25  29
ENDBRANCH  20  22
ENDBRANCH  18  20
ENDBRANCH  17  18
ENDBRANCH  16  17
ENDBRANCH  15  16
ENDBRANCH   1  15
BRANCH   7  33
HETATM   33  N6  UNL     1       8.146   3.077  15.663  1.00  0.00    -0.074 N
ATOM     34  H63 UNL     1       7.968   3.959  15.180  1.00  0.00     0.274 HD
ATOM     35  H62 UNL     1       9.125   2.975  15.396  1.00  0.00     0.274 HD
ATOM     36  H61 UNL     1       7.559   2.314  15.327  1.00  0.00     0.274 HD
ENDBRANCH   7  33
TORSDOF 10
ENDMDL