MODEL 2
REMARK VINA RESULT: -6.836638838      0.787      1.240
REMARK  9 active torsions:
REMARK  status: ('A' for Active; 'I' for Inactive)
REMARK    1  A    between atoms: C2_2  and  C4_4
REMARK    2  A    between atoms: C4_4  and  C5_5
REMARK    3  A    between atoms: N3_20  and  C14_21
REMARK    4  A    between atoms: C14_21  and  O3_22
REMARK    5  A    between atoms: C14_21  and  C15_24
REMARK    6  A    between atoms: C15_24  and  C16_25
REMARK    7  A    between atoms: C16_25  and  C17_26
REMARK    8  A    between atoms: C17_26  and  C18_27
REMARK    9  A    between atoms: C18_27  and  N4_28
ROOT
HETATM    1  C5  UNL     1       7.771   7.413  24.511  1.00  0.00     0.177 C
HETATM    2  N1  UNL     1       6.779   6.737  25.268  1.00  0.00    -0.346 N
ATOM      3  H1  UNL     1       7.021   6.315  26.165  1.00  0.00     0.163 HD
HETATM    4  C6  UNL     1       5.425   6.647  24.767  1.00  0.00     0.250 C
HETATM    5  O1  UNL     1       4.566   6.616  25.700  1.00  0.00    -0.271 OA
HETATM    6  C7  UNL     1       5.128   6.600  23.313  1.00  0.00     0.155 C
HETATM    7  C8  UNL     1       4.015   5.630  22.954  1.00  0.00     0.118 C
HETATM    8  C9  UNL     1       3.425   6.056  21.636  1.00  0.00     0.020 C
HETATM    9  C10 UNL     1       3.853   7.476  21.480  1.00  0.00     0.035 C
HETATM   10  C11 UNL     1       4.354   7.787  22.880  1.00  0.00     0.064 C
HETATM   11  C12 UNL     1       4.871   9.126  22.958  1.00  0.00     0.041 C
HETATM   12  N2  UNL     1       3.160   7.615  23.738  1.00  0.00    -0.349 N
ATOM     13  H2  UNL     1       2.592   8.360  24.143  1.00  0.00     0.163 HD
HETATM   14  C13 UNL     1       2.952   6.197  23.893  1.00  0.00     0.225 C
HETATM   15  O2  UNL     1       2.137   5.581  24.595  1.00  0.00    -0.273 OA
HETATM   16  N3  UNL     1       6.388   6.335  22.647  1.00  0.00    -0.302 N
HETATM   17  C22 UNL     1       7.452   7.206  23.074  1.00  0.00     0.245 C
HETATM   18  O4  UNL     1       8.142   7.814  22.229  1.00  0.00    -0.271 OA
ENDROOT
BRANCH  16  19
HETATM   19  C14 UNL     1       6.633   5.322  21.656  1.00  0.00     0.224 C
BRANCH  19  20
HETATM   20  O3  UNL     1       7.817   4.574  21.863  1.00  0.00    -0.377 OA
ATOM     21  H3  UNL     1       7.844   3.743  21.403  1.00  0.00     0.212 HD
ENDBRANCH  19  20
BRANCH  19  22
HETATM   22  C15 UNL     1       6.689   5.773  20.235  1.00  0.00     0.054 C
BRANCH  22  23
HETATM   23  C16 UNL     1       8.067   5.527  19.595  1.00  0.00     0.006 C
BRANCH  23  24
HETATM   24  C17 UNL     1       8.030   4.528  18.490  1.00  0.00     0.028 C
BRANCH  24  25
HETATM   25  C18 UNL     1       6.701   3.953  18.164  1.00  0.00     0.236 C
BRANCH  25  26
HETATM   26  N4  UNL     1       6.433   2.614  18.560  1.00  0.00    -0.079 N
HETATM   27  C19 UNL     1       5.329   2.408  19.436  1.00  0.00     0.271 C
HETATM   28  C20 UNL     1       7.613   1.991  19.165  1.00  0.00     0.271 C
HETATM   29  C21 UNL     1       6.193   1.804  17.350  1.00  0.00     0.271 C
ENDBRANCH  25  26
ENDBRANCH  24  25
ENDBRANCH  23  24
ENDBRANCH  22  23
ENDBRANCH  19  22
ENDBRANCH  16  19
BRANCH   1  30
HETATM   30  C4  UNL     1       8.169   8.767  24.912  1.00  0.00     0.038 C
BRANCH  30  31
HETATM   31  C2  UNL     1       9.528   8.898  25.503  1.00  0.00    -0.020 C
HETATM   32  C1  UNL     1       9.991   7.777  26.362  1.00  0.00     0.009 C
HETATM   33  C3  UNL     1      10.602   9.091  24.424  1.00  0.00     0.009 C
ENDBRANCH  30  31
ENDBRANCH   1  30
TORSDOF 9
ENDMDL