MODEL 4
REMARK VINA RESULT: -7.063279117      2.628      7.316
REMARK  8 active torsions:
REMARK  status: ('A' for Active; 'I' for Inactive)
REMARK    1  A    between atoms: C3_3  and  N1_4
REMARK    2  A    between atoms: N1_4  and  C4_5
REMARK    3  A    between atoms: C4_5  and  C5_6
REMARK       I    between atoms: C5_6  and  N2_8
REMARK    4  A    between atoms: N2_8  and  C6_10
REMARK    5  A    between atoms: C6_10  and  C7_11
REMARK       I    between atoms: C7_11  and  N3_13
REMARK    6  A    between atoms: N3_13  and  C8_15
REMARK    7  A    between atoms: C8_15  and  C9_16
REMARK       I    between atoms: N4_24  and  C17_25
REMARK       I    between atoms: C17_25  and  N5_27
REMARK    8  A    between atoms: N5_27  and  C18_29
ROOT
HETATM    1  C1  UNL     1       3.508   9.356  22.365  1.00  0.00     0.098 C
HETATM    2  C2  UNL     1       4.646   8.971  22.111  1.00  0.00    -0.159 C
HETATM    3  C3  UNL     1       5.997   8.543  21.818  1.00  0.00     0.332 C
ENDROOT
BRANCH   3   4
HETATM    4  N1  UNL     1       6.041   7.159  21.347  1.00  0.00     0.029 N
HETATM    5  C15 UNL     1       5.052   6.916  20.373  1.00  0.00     0.274 A
HETATM    6  C16 UNL     1       4.160   5.835  20.844  1.00  0.00     0.166 A
HETATM    7  N4  UNL     1       4.623   5.527  22.162  1.00  0.00    -0.263 N
HETATM    8  C17 UNL     1       4.039   4.545  23.050  1.00  0.00     0.325 C
HETATM    9  C22 UNL     1       5.738   6.330  22.461  1.00  0.00     0.290 A
HETATM   10  O3  UNL     1       4.546   4.369  24.193  1.00  0.00    -0.247 OA
HETATM   11  N5  UNL     1       2.907   3.793  22.632  1.00  0.00    -0.335 N
ATOM     12  H5  UNL     1       2.509   3.949  21.706  1.00  0.00     0.165 HD
HETATM   13  N6  UNL     1       6.396   6.312  23.592  1.00  0.00    -0.364 N
ATOM     14  H62 UNL     1       7.205   6.895  23.809  1.00  0.00     0.159 HD
ATOM     15  H61 UNL     1       6.179   5.717  24.391  1.00  0.00     0.159 HD
BRANCH   4  16
HETATM   16  C4  UNL     1       7.371   6.787  20.939  1.00  0.00     0.287 C
BRANCH  16  17
HETATM   17  C5  UNL     1       7.552   5.732  19.971  1.00  0.00     0.266 C
HETATM   18  O1  UNL     1       7.581   6.118  18.739  1.00  0.00    -0.267 OA
HETATM   19  N2  UNL     1       7.697   4.373  20.216  1.00  0.00    -0.338 N
ATOM     20  H2  UNL     1       7.675   4.063  21.188  1.00  0.00     0.164 HD
BRANCH  19  21
HETATM   21  C6  UNL     1       7.878   3.352  19.185  1.00  0.00     0.114 C
HETATM   22  C11 UNL     1       7.884   1.979  19.810  1.00  0.00     0.041 C
HETATM   23  C12 UNL     1       8.887   1.206  19.014  1.00  0.00     0.003 C
HETATM   24  C13 UNL     1       9.924   2.210  18.620  1.00  0.00     0.003 C
HETATM   25  C14 UNL     1       9.226   3.531  18.549  1.00  0.00     0.041 C
BRANCH  21  26
HETATM   26  C7  UNL     1       6.799   3.401  18.178  1.00  0.00     0.246 C
HETATM   27  O2  UNL     1       5.640   3.089  18.522  1.00  0.00    -0.271 OA
HETATM   28  N3  UNL     1       7.066   3.797  16.862  1.00  0.00    -0.355 N
ATOM     29  H3  UNL     1       8.034   4.052  16.665  1.00  0.00     0.162 HD
BRANCH  28  30
HETATM   30  C8  UNL     1       6.169   3.891  15.762  1.00  0.00     0.149 C
BRANCH  30  31
HETATM   31  C9  UNL     1       6.209   5.191  15.083  1.00  0.00    -0.018 C
HETATM   32  C10 UNL     1       6.069   6.389  15.585  1.00  0.00     0.008 C
ENDBRANCH  30  31
ENDBRANCH  28  30
ENDBRANCH  21  26
ENDBRANCH  19  21
ENDBRANCH  16  17
ENDBRANCH   4  16
BRANCH  11  33
HETATM   33  C18 UNL     1       2.306   2.792  23.526  1.00  0.00     0.023 C
HETATM   34  C19 UNL     1       3.363   1.915  24.161  1.00  0.00     0.037 C
HETATM   35  C20 UNL     1       1.525   3.502  24.621  1.00  0.00     0.037 C
HETATM   36  C21 UNL     1       1.388   1.904  22.715  1.00  0.00     0.037 C
ENDBRANCH  11  33
ENDBRANCH   3   4
TORSDOF 8
ENDMDL