MODEL 2
REMARK VINA RESULT: -6.539323139      0.914      1.165
REMARK  11 active torsions:
REMARK  status: ('A' for Active; 'I' for Inactive)
REMARK    1  A    between atoms: C2_2  and  C3_3
REMARK    2  A    between atoms: C3_3  and  C4_4
REMARK    3  A    between atoms: N2_9  and  C6_10
REMARK    4  A    between atoms: C6_10  and  C7_11
REMARK    5  A    between atoms: C7_11  and  O2_12
REMARK    6  A    between atoms: C9_15  and  C10_16
REMARK    7  A    between atoms: C10_16  and  N3_17
REMARK    8  A    between atoms: C15_24  and  O3_25
REMARK    9  A    between atoms: C16_27  and  C17_28
REMARK   10  A    between atoms: C17_28  and  C18_29
REMARK   11  A    between atoms: C21_34  and  O4_35
ROOT
HETATM    1  C4  UNL     1       6.380   5.583  17.374  1.00  0.00     0.161 C
HETATM    2  N1  UNL     1       5.617   6.441  18.213  1.00  0.00    -0.331 N
ATOM      3  H1  UNL     1       4.613   6.257  18.212  1.00  0.00     0.165 HD
HETATM    4  C5  UNL     1       6.015   7.489  19.033  1.00  0.00     0.319 C
HETATM    5  O1  UNL     1       5.352   8.585  18.942  1.00  0.00    -0.247 OA
HETATM    6  N2  UNL     1       7.078   7.496  19.971  1.00  0.00    -0.327 N
HETATM    7  C8  UNL     1       7.515   6.303  20.676  1.00  0.00     0.186 C
HETATM    8  C9  UNL     1       6.613   5.820  21.770  1.00  0.00     0.052 C
HETATM    9  N4  UNL     1       5.770   4.694  21.491  1.00  0.00    -0.336 N
ATOM     10  H4  UNL     1       5.419   4.306  22.367  1.00  0.00     0.168 HD
HETATM   11  C15 UNL     1       5.283   3.971  20.448  1.00  0.00     0.163 C
HETATM   12  C16 UNL     1       5.852   2.955  19.494  1.00  0.00     0.062 C
HETATM   13  N5  UNL     1       5.542   3.220  18.123  1.00  0.00    -0.339 N
ATOM     14  H5  UNL     1       4.904   2.533  17.720  1.00  0.00     0.167 HD
HETATM   15  C21 UNL     1       5.916   4.201  17.223  1.00  0.00     0.139 C
ENDROOT
BRANCH   8  16
HETATM   16  C10 UNL     1       5.980   6.971  22.456  1.00  0.00     0.228 C
BRANCH  16  17
HETATM   17  N3  UNL     1       6.273   7.379  23.743  1.00  0.00    -0.049 N
HETATM   18  C11 UNL     1       5.504   6.474  24.665  1.00  0.00     0.278 C
HETATM   19  C12 UNL     1       6.097   8.698  24.228  1.00  0.00     0.244 C
HETATM   20  C13 UNL     1       7.346   8.620  25.078  1.00  0.00     0.057 C
HETATM   21  C14 UNL     1       7.618   7.379  24.253  1.00  0.00     0.244 C
ENDBRANCH  16  17
ENDBRANCH   8  16
BRANCH   6  22
HETATM   22  C6  UNL     1       7.720   8.809  20.180  1.00  0.00     0.153 C
BRANCH  22  23
HETATM   23  C7  UNL     1       9.035   8.663  20.904  1.00  0.00     0.184 C
BRANCH  23  24
HETATM   24  O2  UNL     1       9.471   9.914  21.257  1.00  0.00    -0.399 OA
ATOM     25  H2  UNL     1      10.399   9.860  21.455  1.00  0.00     0.209 HD
ENDBRANCH  23  24
ENDBRANCH  22  23
ENDBRANCH   6  22
BRANCH  11  26
HETATM   26  O3  UNL     1       4.023   4.138  20.142  1.00  0.00    -0.345 OA
ATOM     27  H3  UNL     1       3.812   4.841  19.540  1.00  0.00     0.219 HD
ENDBRANCH  11  26
BRANCH  12  28
HETATM   28  C17 UNL     1       7.171   2.434  19.869  1.00  0.00     0.065 C
BRANCH  28  29
HETATM   29  C18 UNL     1       8.285   2.460  18.905  1.00  0.00    -0.017 C
HETATM   30  C19 UNL     1       9.170   3.641  18.853  1.00  0.00     0.010 C
HETATM   31  C20 UNL     1       9.180   1.215  19.080  1.00  0.00     0.010 C
ENDBRANCH  28  29
ENDBRANCH  12  28
BRANCH   1  32
HETATM   32  C3  UNL     1       6.448   6.339  16.023  1.00  0.00     0.033 C
BRANCH  32  33
HETATM   33  C2  UNL     1       5.226   7.138  15.746  1.00  0.00    -0.002 C
HETATM   34  C1  UNL     1       5.707   8.440  15.088  1.00  0.00     0.005 C
ENDBRANCH  32  33
ENDBRANCH   1  32
BRANCH  15  35
HETATM   35  O4  UNL     1       5.850   3.843  15.966  1.00  0.00    -0.348 OA
ATOM     36  H4  UNL     1       6.177   2.961  15.831  1.00  0.00     0.219 HD
ENDBRANCH  15  35
TORSDOF 11
ENDMDL