MODEL 5
REMARK VINA RESULT: -7.200948002      3.221      4.771
REMARK  8 active torsions:
REMARK  status: ('A' for Active; 'I' for Inactive)
REMARK    1  A    between atoms: C2_2  and  N1_4
REMARK    2  A    between atoms: N1_4  and  C4_6
REMARK    3  A    between atoms: C4_6  and  N2_8
REMARK    4  A    between atoms: C6_10  and  C7_11
REMARK    5  A    between atoms: C7_11  and  C8_12
REMARK       I    between atoms: N3_15  and  C11_16
REMARK       I    between atoms: C11_16  and  N4_18
REMARK    6  A    between atoms: N4_18  and  C12_20
REMARK    7  A    between atoms: C15_23  and  C16_24
REMARK    8  A    between atoms: C20_30  and  C21_31
ROOT
HETATM    1  C8  UNL     1       5.188   5.843  22.292  1.00  0.00     0.006 C
HETATM    2  C9  UNL     1       4.551   4.539  22.054  1.00  0.00     0.026 C
HETATM    3  C10 UNL     1       4.789   4.204  20.565  1.00  0.00     0.128 C
HETATM    4  N3  UNL     1       5.639   5.284  20.140  1.00  0.00    -0.334 N
HETATM    5  C11 UNL     1       6.676   5.185  19.187  1.00  0.00     0.318 C
HETATM    6  O1  UNL     1       7.336   6.212  18.914  1.00  0.00    -0.247 OA
HETATM    7  N4  UNL     1       6.973   3.966  18.549  1.00  0.00    -0.338 N
ATOM      8  H4  UNL     1       6.418   3.144  18.792  1.00  0.00     0.164 HD
HETATM    9  C19 UNL     1       5.211   6.455  20.879  1.00  0.00     0.132 C
ENDROOT
BRANCH   1  10
HETATM   10  C7  UNL     1       4.671   6.778  23.297  1.00  0.00     0.013 C
BRANCH  10  11
HETATM   11  C6  UNL     1       3.874   7.902  22.831  1.00  0.00     0.018 C
HETATM   12  C5  UNL     1       2.366   7.593  22.814  1.00  0.00     0.130 C
HETATM   13  N2  UNL     1       1.704   8.859  22.915  1.00  0.00    -0.357 N
HETATM   14  C22 UNL     1       2.759   9.903  22.660  1.00  0.00     0.139 C
HETATM   15  C20 UNL     1       3.891   9.218  23.473  1.00  0.00     0.098 C
BRANCH  13  16
HETATM   16  C4  UNL     1       0.392   9.292  23.193  1.00  0.00     0.170 C
HETATM   17  S1  UNL     1      -0.789   9.060  22.007  1.00  0.00    -0.041 SA
BRANCH  16  18
HETATM   18  N1  UNL     1      -0.080   9.902  24.345  1.00  0.00    -0.363 N
ATOM     19  H1  UNL     1      -0.416  10.859  24.237  1.00  0.00     0.162 HD
BRANCH  18  20
HETATM   20  C2  UNL     1      -0.156   9.360  25.663  1.00  0.00     0.075 C
HETATM   21  C1  UNL     1      -0.213   7.868  25.606  1.00  0.00     0.032 C
HETATM   22  C3  UNL     1      -1.460   9.901  26.302  1.00  0.00     0.032 C
ENDBRANCH  18  20
ENDBRANCH  16  18
ENDBRANCH  13  16
BRANCH  15  23
HETATM   23  C21 UNL     1       3.527   9.348  24.869  1.00  0.00     0.237 C
HETATM   24  N5  UNL     1       3.608   8.412  25.909  1.00  0.00    -0.062 NA
HETATM   25  O2  UNL     1       3.048  10.489  25.246  1.00  0.00    -0.276 OA
ENDBRANCH  15  23
ENDBRANCH  10  11
ENDBRANCH   1  10
BRANCH   7  26
HETATM   26  C12 UNL     1       8.029   3.816  17.564  1.00  0.00     0.086 C
HETATM   27  C13 UNL     1       7.613   2.861  16.450  1.00  0.00     0.026 C
HETATM   28  C14 UNL     1       7.096   1.600  17.094  1.00  0.00     0.012 C
HETATM   29  C15 UNL     1       8.056   0.982  18.047  1.00  0.00     0.051 C
HETATM   30  C17 UNL     1       8.798   1.940  18.914  1.00  0.00     0.012 C
HETATM   31  C18 UNL     1       9.241   3.191  18.224  1.00  0.00     0.026 C
BRANCH  29  32
HETATM   32  C16 UNL     1       9.017   0.031  17.321  1.00  0.00     0.357 C
HETATM   33  F1  UNL     1       8.334  -1.061  16.826  1.00  0.00    -0.214 F
HETATM   34  F2  UNL     1      10.006  -0.400  18.163  1.00  0.00    -0.214 F
ENDBRANCH  29  32
ENDBRANCH   7  26
TORSDOF 8
ENDMDL