MODEL 2
REMARK VINA RESULT: -7.832505134      1.482      1.900
REMARK  9 active torsions:
REMARK  status: ('A' for Active; 'I' for Inactive)
REMARK    1  A    between atoms: C2_2  and  N1_3
REMARK    2  A    between atoms: C2_2  and  C13_23
REMARK       I    between atoms: N1_3  and  C3_4
REMARK       I    between atoms: C3_4  and  N2_6
REMARK    3  A    between atoms: N2_6  and  C4_8
REMARK    4  A    between atoms: C7_11  and  N3_12
REMARK       I    between atoms: N3_12  and  C8_14
REMARK    5  A    between atoms: C8_14  and  C9_16
REMARK    6  A    between atoms: C9_16  and  C10_17
REMARK    7  A    between atoms: C10_17  and  C11_18
REMARK    8  A    between atoms: C18_28  and  C19_29
REMARK    9  A    between atoms: C20_30  and  C21_31
ROOT
HETATM    1  N1  UNL     1       6.436   6.024  17.496  1.00  0.00    -0.391 NA
HETATM    2  C3  UNL     1       6.775   6.757  18.580  1.00  0.00     0.393 C
HETATM    3  O1  UNL     1       6.238   7.828  18.975  1.00  0.00    -0.230 OA
HETATM    4  N2  UNL     1       7.874   6.357  19.462  1.00  0.00    -0.296 N
ATOM      5  H2  UNL     1       8.406   5.505  19.276  1.00  0.00     0.172 HD
ENDROOT
BRANCH   4   6
HETATM    6  C4  UNL     1       8.181   7.161  20.559  1.00  0.00     0.052 A
HETATM    7  C5  UNL     1       7.605   6.893  21.811  1.00  0.00     0.035 A
HETATM    8  C6  UNL     1       7.858   7.644  22.927  1.00  0.00     0.051 A
HETATM    9  C7  UNL     1       8.735   8.724  22.785  1.00  0.00     0.107 A
HETATM   10  N4  UNL     1       9.278   8.970  21.574  1.00  0.00    -0.350 N
HETATM   11  C12 UNL     1       9.052   8.256  20.475  1.00  0.00     0.119 A
ATOM     12  H4  UNL     1       9.912   9.766  21.495  1.00  0.00     0.166 HD
BRANCH   9  13
HETATM   13  N3  UNL     1       8.988   9.399  23.807  1.00  0.00    -0.313 N
HETATM   14  C8  UNL     1      10.145   9.300  24.589  1.00  0.00     0.223 C
HETATM   15  O2  UNL     1      10.994  10.239  24.444  1.00  0.00    -0.273 OA
ATOM     16  H3  UNL     1       8.290  10.083  24.096  1.00  0.00     0.170 HD
BRANCH  14  17
HETATM   17  C9  UNL     1      10.374   8.184  25.523  1.00  0.00     0.104 C
BRANCH  17  18
HETATM   18  C10 UNL     1      11.695   8.260  26.210  1.00  0.00     0.020 C
BRANCH  18  19
HETATM   19  C11 UNL     1      11.861   7.137  27.181  1.00  0.00     0.085 C
HETATM   20 BR1  UNL     1      10.106   6.356  27.534  1.00  0.00    -0.097 Br
ENDBRANCH  18  19
ENDBRANCH  17  18
ENDBRANCH  14  17
ENDBRANCH   9  13
ENDBRANCH   4   6
BRANCH   1  21
HETATM   21  C2  UNL     1       6.090   5.274  16.385  1.00  0.00     0.170 C
HETATM   22  C1  UNL     1       4.978   5.951  15.608  1.00  0.00     0.048 C
BRANCH  21  23
HETATM   23  C13 UNL     1       5.789   3.818  16.688  1.00  0.00     0.037 C
HETATM   24  C14 UNL     1       6.378   2.822  15.768  1.00  0.00     0.009 C
HETATM   25  C15 UNL     1       5.619   1.504  16.040  1.00  0.00     0.001 C
HETATM   26  C16 UNL     1       5.641   1.121  17.480  1.00  0.00     0.001 C
HETATM   27  C17 UNL     1       5.305   2.229  18.423  1.00  0.00     0.018 C
HETATM   28  C18 UNL     1       6.202   3.428  18.089  1.00  0.00     0.072 C
BRANCH  28  29
HETATM   29  C19 UNL     1       7.575   2.880  18.143  1.00  0.00    -0.099 C
HETATM   30  C20 UNL     1       8.705   2.420  18.201  1.00  0.00    -0.075 C
BRANCH  30  31
HETATM   31  C21 UNL     1      10.071   1.875  18.242  1.00  0.00     0.315 C
HETATM   32  F1  UNL     1       9.958   0.545  18.650  1.00  0.00    -0.242 F
ENDBRANCH  30  31
ENDBRANCH  28  29
ENDBRANCH  21  23
ENDBRANCH   1  21
TORSDOF 9
ENDMDL