MODEL 1
REMARK VINA RESULT: -7.787573223      0.000      0.000
REMARK  12 active torsions:
REMARK  status: ('A' for Active; 'I' for Inactive)
REMARK    1  A    between atoms: C9_9  and  C10_11
REMARK    2  A    between atoms: C10_11  and  N1_12
REMARK    3  A    between atoms: N1_12  and  C11_14
REMARK    4  A    between atoms: C11_14  and  O1_15
REMARK    5  A    between atoms: C11_14  and  N2_17
REMARK    6  A    between atoms: N2_17  and  C12_19
REMARK    7  A    between atoms: C12_19  and  O2_20
REMARK    8  A    between atoms: C12_19  and  N3_22
REMARK    9  A    between atoms: N3_22  and  C13_24
REMARK   10  A    between atoms: C13_24  and  C14_25
REMARK   11  A    between atoms: C14_25  and  C15_26
REMARK   12  A    between atoms: C15_26  and  C16_27
ROOT
HETATM    1  C11 UNL     1       7.679   6.504  21.398  1.00  0.00     0.220 C
ENDROOT
BRANCH   1   2
HETATM    2  N1  UNL     1       7.228   5.514  20.556  1.00  0.00    -0.355 N
ATOM      3  H1  UNL     1       6.287   5.189  20.779  1.00  0.00     0.163 HD
BRANCH   2   4
HETATM    4  C10 UNL     1       7.807   4.847  19.436  1.00  0.00     0.144 C
BRANCH   4   5
HETATM    5  C9  UNL     1       7.095   3.691  18.818  1.00  0.00     0.039 C
HETATM    6  C8  UNL     1       7.630   2.365  19.263  1.00  0.00     0.014 C
HETATM    7  C2  UNL     1       8.600   1.904  18.240  1.00  0.00    -0.039 C
HETATM    8  C7  UNL     1       6.483   1.399  19.347  1.00  0.00     0.007 C
HETATM    9  C1  UNL     1       8.921   0.439  18.296  1.00  0.00     0.015 C
HETATM   10  C3  UNL     1       9.895   2.658  18.206  1.00  0.00     0.015 C
HETATM   11  C4  UNL     1       7.814   2.262  16.986  1.00  0.00    -0.005 C
HETATM   12  C5  UNL     1       6.576   1.444  16.824  1.00  0.00     0.005 C
HETATM   13  C17 UNL     1       7.410   3.679  17.295  1.00  0.00     0.028 C
HETATM   14  C6  UNL     1       5.896   1.001  18.052  1.00  0.00     0.001 C
HETATM   15 BR1  UNL     1       5.200   3.889  18.930  1.00  0.00    -0.083 Br
ENDBRANCH   4   5
ENDBRANCH   2   4
ENDBRANCH   1   2
BRANCH   1  16
HETATM   16  O1  UNL     1       7.765   6.220  22.689  1.00  0.00    -0.332 OA
ATOM     17  H1  UNL     1       7.726   6.944  23.303  1.00  0.00     0.220 HD
ENDBRANCH   1  16
BRANCH   1  18
HETATM   18  N2  UNL     1       8.066   7.801  21.050  1.00  0.00    -0.288 N
ATOM     19  H2  UNL     1       7.490   8.182  20.300  1.00  0.00     0.173 HD
BRANCH  18  20
HETATM   20  C12 UNL     1       9.024   8.689  21.463  1.00  0.00     0.220 C
BRANCH  20  21
HETATM   21  O2  UNL     1       9.394   9.619  20.595  1.00  0.00    -0.332 OA
ATOM     22  H2  UNL     1      10.135  10.161  20.836  1.00  0.00     0.220 HD
ENDBRANCH  20  21
BRANCH  20  23
HETATM   23  N3  UNL     1       9.711   8.808  22.665  1.00  0.00    -0.356 N
ATOM     24  H3  UNL     1      10.720   8.662  22.691  1.00  0.00     0.163 HD
BRANCH  23  25
HETATM   25  C13 UNL     1       8.976   9.149  23.919  1.00  0.00     0.123 C
BRANCH  25  26
HETATM   26  C14 UNL     1       9.533   8.343  25.027  1.00  0.00     0.020 C
BRANCH  26  27
HETATM   27  C15 UNL     1      10.908   8.612  25.423  1.00  0.00     0.012 C
BRANCH  27  28
HETATM   28  C16 UNL     1      11.451   7.878  26.577  1.00  0.00     0.085 C
HETATM   29 BR2  UNL     1      10.341   6.549  27.348  1.00  0.00    -0.097 Br
ENDBRANCH  27  28
ENDBRANCH  26  27
ENDBRANCH  25  26
ENDBRANCH  23  25
ENDBRANCH  20  23
ENDBRANCH  18  20
ENDBRANCH   1  18
TORSDOF 12
ENDMDL