MODEL 3
REMARK VINA RESULT: -7.285106911      3.129      6.258
REMARK  9 active torsions:
REMARK  status: ('A' for Active; 'I' for Inactive)
REMARK    1  A    between atoms: C3_3  and  C5_6
REMARK    2  A    between atoms: C8_12  and  C9_13
REMARK    3  A    between atoms: N2_19  and  C14_21
REMARK    4  A    between atoms: C14_21  and  N3_23
REMARK    5  A    between atoms: N3_23  and  C15_25
REMARK    6  A    between atoms: C15_25  and  C16_26
REMARK    7  A    between atoms: C16_26  and  C17_27
REMARK    8  A    between atoms: C17_27  and  C18_28
REMARK    9  A    between atoms: C18_28  and  C19_29
ROOT
HETATM    1  C1  UNL     1       2.240   0.390  20.546  1.00  0.00     0.016 C
HETATM    2  C2  UNL     1       2.732   1.193  21.302  1.00  0.00    -0.070 C
HETATM    3  C3  UNL     1       3.354   2.191  22.209  1.00  0.00     0.183 C
HETATM    4  C4  UNL     1       3.594   1.595  23.561  1.00  0.00     0.071 C
HETATM    5  F1  UNL     1       2.386   3.193  22.414  1.00  0.00    -0.225 F
ENDROOT
BRANCH   3   6
HETATM    6  C5  UNL     1       4.521   2.816  21.586  1.00  0.00     0.077 C
HETATM    7  C6  UNL     1       5.075   3.960  21.836  1.00  0.00     0.109 C
HETATM    8  N1  UNL     1       4.562   4.815  22.839  1.00  0.00    -0.309 N
HETATM    9  N4  UNL     1       6.226   4.267  21.016  1.00  0.00    -0.328 N
HETATM   10  C7  UNL     1       5.082   6.089  23.311  1.00  0.00     0.255 C
ATOM     11  H1  UNL     1       3.707   4.494  23.295  1.00  0.00     0.170 HD
HETATM   12  O1  UNL     1       4.724   6.419  24.449  1.00  0.00    -0.268 OA
HETATM   13  C8  UNL     1       5.966   7.002  22.608  1.00  0.00     0.034 C
HETATM   14  C12 UNL     1       6.669   6.757  21.523  1.00  0.00     0.067 C
HETATM   15 BR1  UNL     1       7.716   8.225  20.895  1.00  0.00    -0.046 Br
HETATM   16  C13 UNL     1       6.795   5.543  20.681  1.00  0.00     0.127 C
HETATM   17  N2  UNL     1       7.440   5.655  19.615  1.00  0.00    -0.318 N
ATOM     18  H2  UNL     1       7.799   6.600  19.474  1.00  0.00     0.170 HD
ATOM     19  H4  UNL     1       6.704   3.459  20.617  1.00  0.00     0.169 HD
BRANCH  13  20
HETATM   20  C9  UNL     1       6.111   8.370  23.151  1.00  0.00     0.017 C
HETATM   21  C10 UNL     1       6.713   8.393  24.525  1.00  0.00     0.015 C
HETATM   22  C11 UNL     1       4.750   9.024  23.086  1.00  0.00     0.015 C
ENDBRANCH  13  20
BRANCH  17  23
HETATM   23  C14 UNL     1       7.774   4.813  18.599  1.00  0.00     0.173 C
HETATM   24  S1  UNL     1       6.805   4.634  17.300  1.00  0.00    -0.041 SA
BRANCH  23  25
HETATM   25  N3  UNL     1       9.002   4.047  18.629  1.00  0.00    -0.367 N
ATOM     26  H3  UNL     1       9.781   4.307  19.233  1.00  0.00     0.161 HD
BRANCH  25  27
HETATM   27  C15 UNL     1       9.066   2.918  17.777  1.00  0.00     0.122 C
BRANCH  27  28
HETATM   28  C16 UNL     1       9.439   1.595  18.311  1.00  0.00     0.020 C
BRANCH  28  29
HETATM   29  C17 UNL     1       8.348   0.654  18.661  1.00  0.00     0.002 C
BRANCH  29  30
HETATM   30  C18 UNL     1       7.186   1.181  19.404  1.00  0.00    -0.000 C
BRANCH  30  31
HETATM   31  C19 UNL     1       5.882   1.197  18.636  1.00  0.00    -0.005 C
HETATM   32  C20 UNL     1       6.095   0.671  17.228  1.00  0.00     0.005 C
ENDBRANCH  30  31
ENDBRANCH  29  30
ENDBRANCH  28  29
ENDBRANCH  27  28
ENDBRANCH  25  27
ENDBRANCH  23  25
ENDBRANCH  17  23
ENDBRANCH   3   6
TORSDOF 9
ENDMDL