MODEL 1
REMARK VINA RESULT: -6.935293635      0.000      0.000
REMARK  7 active torsions:
REMARK  status: ('A' for Active; 'I' for Inactive)
REMARK    1  A    between atoms: C2_2  and  C3_3
REMARK    2  A    between atoms: C3_3  and  N1_4
REMARK    3  A    between atoms: N1_4  and  C4_6
REMARK    4  A    between atoms: C7_13  and  C8_14
REMARK    5  A    between atoms: C8_14  and  C9_15
REMARK    6  A    between atoms: N5_25  and  C15_26
REMARK    7  A    between atoms: C15_26  and  C16_27
ROOT
HETATM    1  C4  UNL     1       5.502   5.314  21.517  1.00  0.00     0.126 A
HETATM    2  N2  UNL     1       5.295   5.399  22.840  1.00  0.00    -0.284 N
ATOM      3  H2  UNL     1       4.659   4.810  23.379  1.00  0.00     0.188 HD
HETATM    4  N3  UNL     1       6.046   6.368  23.332  1.00  0.00    -0.283 N
ATOM      5  H3  UNL     1       6.083   6.647  24.313  1.00  0.00     0.188 HD
HETATM    6  C5  UNL     1       6.761   6.933  22.323  1.00  0.00     0.135 A
HETATM    7  C6  UNL     1       6.424   6.274  21.174  1.00  0.00     0.037 A
HETATM    8  C7  UNL     1       6.969   6.569  19.816  1.00  0.00     0.039 C
HETATM    9  C13 UNL     1       7.698   7.865  19.739  1.00  0.00     0.113 C
HETATM   10  C14 UNL     1       8.266   8.305  21.032  1.00  0.00     0.226 C
HETATM   11  O1  UNL     1       9.314   8.999  21.007  1.00  0.00    -0.273 OA
HETATM   12  N5  UNL     1       7.720   8.003  22.303  1.00  0.00    -0.301 N
ENDROOT
BRANCH   8  13
HETATM   13  C8  UNL     1       7.875   5.451  19.372  1.00  0.00     0.051 C
BRANCH  13  14
HETATM   14  C9  UNL     1       7.478   4.806  18.116  1.00  0.00    -0.023 A
HETATM   15  C10 UNL     1       6.508   5.173  17.210  1.00  0.00     0.096 A
HETATM   16  N4  UNL     1       6.483   4.312  16.181  1.00  0.00    -0.373 N
HETATM   17  C11 UNL     1       7.412   3.370  16.363  1.00  0.00     0.107 A
ATOM     18  H4  UNL     1       5.852   4.369  15.382  1.00  0.00     0.164 HD
HETATM   19  C12 UNL     1       8.046   3.665  17.573  1.00  0.00     0.034 A
HETATM   20 BR1  UNL     1       9.448   2.607  18.273  1.00  0.00    -0.049 Br
ENDBRANCH  13  14
ENDBRANCH   8  13
BRANCH   1  21
HETATM   21  N1  UNL     1       4.933   4.479  20.730  1.00  0.00    -0.375 N
ATOM     22  H1  UNL     1       4.650   4.844  19.821  1.00  0.00     0.161 HD
BRANCH  21  23
HETATM   23  C3  UNL     1       4.648   3.106  20.966  1.00  0.00     0.121 C
BRANCH  23  24
HETATM   24  C2  UNL     1       5.585   2.300  20.056  1.00  0.00     0.015 C
HETATM   25  C1  UNL     1       6.765   1.858  20.889  1.00  0.00     0.006 C
ENDBRANCH  23  24
ENDBRANCH  21  23
ENDBRANCH   1  21
BRANCH  12  26
HETATM   26  C15 UNL     1       8.036   8.660  23.525  1.00  0.00     0.144 C
BRANCH  26  27
HETATM   27  C16 UNL     1       8.993   7.906  24.412  1.00  0.00     0.105 C
HETATM   28 BR2  UNL     1      10.539   9.028  24.711  1.00  0.00    -0.095 Br
ENDBRANCH  26  27
ENDBRANCH  12  26
TORSDOF 7
ENDMDL