MODEL 5
REMARK VINA RESULT: -7.188025316      2.632      4.890
REMARK  7 active torsions:
REMARK  status: ('A' for Active; 'I' for Inactive)
REMARK    1  A    between atoms: C3_3  and  C4_4
REMARK    2  A    between atoms: C9_13  and  C10_14
REMARK       I    between atoms: C10_14  and  N2_16
REMARK    3  A    between atoms: N2_16  and  C11_18
REMARK    4  A    between atoms: C11_18  and  C12_19
REMARK    5  A    between atoms: C11_18  and  C16_23
REMARK    6  A    between atoms: C12_19  and  C13_20
REMARK       I    between atoms: C16_23  and  N3_25
REMARK    7  A    between atoms: N3_25  and  C17_27
ROOT
HETATM    1  C1  UNL     1       9.845   2.212  17.856  1.00  0.00     0.112 C
HETATM    2  C2  UNL     1       8.844   2.961  18.600  1.00  0.00    -0.105 C
HETATM    3  C3  UNL     1       8.049   3.587  19.250  1.00  0.00    -0.054 C
ENDROOT
BRANCH   3   4
HETATM    4  C4  UNL     1       7.197   4.355  20.133  1.00  0.00     0.100 C
HETATM    5 CL1  UNL     1       7.902   5.973  20.384  1.00  0.00    -0.073 Cl
HETATM    6  C5  UNL     1       6.092   3.966  20.654  1.00  0.00     0.030 A
HETATM    7  C6  UNL     1       5.580   2.619  20.365  1.00  0.00     0.040 A
HETATM    8  C9  UNL     1       5.277   4.769  21.571  1.00  0.00     0.061 A
HETATM    9 BR1  UNL     1       6.438   1.391  19.188  1.00  0.00    -0.049 Br
HETATM   10  C7  UNL     1       4.456   2.147  20.894  1.00  0.00     0.107 A
HETATM   11  N1  UNL     1       3.688   2.926  21.768  1.00  0.00    -0.373 N
HETATM   12  C8  UNL     1       4.144   4.228  22.072  1.00  0.00     0.105 A
ATOM     13  H1  UNL     1       2.825   2.564  22.173  1.00  0.00     0.164 HD
BRANCH   8  14
HETATM   14  C10 UNL     1       5.576   6.104  21.999  1.00  0.00     0.254 C
HETATM   15  O1  UNL     1       5.335   7.139  21.383  1.00  0.00    -0.268 OA
HETATM   16  N2  UNL     1       6.233   6.324  23.285  1.00  0.00    -0.344 N
ATOM     17  H2  UNL     1       6.475   5.532  23.879  1.00  0.00     0.163 HD
BRANCH  16  18
HETATM   18  C11 UNL     1       6.538   7.668  23.709  1.00  0.00     0.177 C
BRANCH  18  19
HETATM   19  C12 UNL     1       7.843   7.861  24.381  1.00  0.00     0.038 C
BRANCH  19  20
HETATM   20  C13 UNL     1       8.754   8.910  23.893  1.00  0.00    -0.020 C
HETATM   21  C14 UNL     1       8.992   8.607  22.398  1.00  0.00     0.009 C
HETATM   22  C15 UNL     1      10.109   8.987  24.505  1.00  0.00     0.009 C
ENDBRANCH  19  20
ENDBRANCH  18  19
BRANCH  18  23
HETATM   23  C16 UNL     1       5.388   8.282  24.433  1.00  0.00     0.240 C
HETATM   24  O2  UNL     1       5.554   9.235  25.233  1.00  0.00    -0.271 OA
HETATM   25  N3  UNL     1       4.070   7.805  24.232  1.00  0.00    -0.355 N
ATOM     26  H3  UNL     1       3.891   7.036  23.587  1.00  0.00     0.162 HD
BRANCH  25  27
HETATM   27  C17 UNL     1       2.985   8.424  24.953  1.00  0.00     0.084 C
HETATM   28  C18 UNL     1       2.223   9.393  24.038  1.00  0.00     0.025 C
HETATM   29  C19 UNL     1       0.943   9.598  24.819  1.00  0.00     0.002 C
HETATM   30  C20 UNL     1       0.738   8.391  25.677  1.00  0.00     0.002 C
HETATM   31  C21 UNL     1       1.919   7.492  25.417  1.00  0.00     0.025 C
ENDBRANCH  25  27
ENDBRANCH  18  23
ENDBRANCH  16  18
ENDBRANCH   8  14
ENDBRANCH   3   4
TORSDOF 7
ENDMDL