MODEL 1
REMARK VINA RESULT: -9.677692885      0.000      0.000
REMARK  6 active torsions:
REMARK  status: ('A' for Active; 'I' for Inactive)
REMARK       I    between atoms: C1_4  and  N2_5
REMARK       I    between atoms: C1_4  and  N4_27
REMARK    1  A    between atoms: N2_5  and  C2_7
REMARK    2  A    between atoms: C4_11  and  C5_12
REMARK    3  A    between atoms: N4_27  and  C18_29
REMARK    4  A    between atoms: C18_29  and  C19_30
REMARK    5  A    between atoms: C19_30  and  C20_31
REMARK    6  A    between atoms: C21_32  and  C22_33
ROOT
HETATM    1  C2  UNL     1       6.764   7.022  21.333  1.00  0.00     0.160 C
HETATM    2  N3  UNL     1       6.968   5.704  21.552  1.00  0.00    -0.349 N
ATOM      3  H3  UNL     1       7.164   5.436  22.516  1.00  0.00     0.167 HD
HETATM    4  C3  UNL     1       6.943   4.701  20.650  1.00  0.00     0.101 C
HETATM    5  C4  UNL     1       7.047   4.714  19.271  1.00  0.00     0.016 C
HETATM    6  C15 UNL     1       6.750   5.833  18.521  1.00  0.00     0.183 C
HETATM    7  O1  UNL     1       6.761   5.677  17.303  1.00  0.00    -0.288 OA
HETATM    8  C16 UNL     1       6.433   7.143  18.903  1.00  0.00     0.101 C
HETATM    9  C17 UNL     1       6.292   7.615  20.182  1.00  0.00     0.164 C
HETATM   10  F1  UNL     1       5.625   8.771  20.327  1.00  0.00    -0.202 F
ENDROOT
BRANCH   1  11
HETATM   11  N2  UNL     1       7.048   7.750  22.320  1.00  0.00    -0.174 N
HETATM   12  C1  UNL     1       7.816   7.525  23.448  1.00  0.00     0.673 C
HETATM   13  N1  UNL     1       7.375   6.811  24.419  1.00  0.00    -0.235 N
HETATM   14  N4  UNL     1       9.111   8.087  23.565  1.00  0.00    -0.226 N
ATOM     15  H12 UNL     1       6.442   6.407  24.335  1.00  0.00     0.174 HD
ATOM     16  H11 UNL     1       7.941   6.645  25.251  1.00  0.00     0.174 HD
ATOM     17  H4  UNL     1       9.868   7.803  22.944  1.00  0.00     0.177 HD
ATOM     18  H2  UNL     1       6.634   8.682  22.280  1.00  0.00     0.186 HD
BRANCH  14  19
HETATM   19  C18 UNL     1       9.320   9.081  24.605  1.00  0.00     0.142 C
BRANCH  19  20
HETATM   20  C19 UNL     1      10.519   8.778  25.446  1.00  0.00     0.047 C
BRANCH  20  21
HETATM   21  C20 UNL     1      10.511   7.438  26.040  1.00  0.00    -0.028 C
HETATM   22  C21 UNL     1      11.117   7.083  27.302  1.00  0.00    -0.020 C
BRANCH  22  23
HETATM   23  C22 UNL     1      12.467   7.373  27.756  1.00  0.00     0.112 C
HETATM   24 BR1  UNL     1      13.771   7.317  26.303  1.00  0.00    -0.092 Br
ENDBRANCH  22  23
ENDBRANCH  20  21
ENDBRANCH  19  20
ENDBRANCH  14  19
ENDBRANCH   1  11
BRANCH   5  25
HETATM   25  C5  UNL     1       7.489   3.497  18.607  1.00  0.00    -0.007 C
HETATM   26  C6  UNL     1       7.240   2.303  19.558  1.00  0.00     0.019 C
HETATM   27  C7  UNL     1       7.848   1.023  18.965  1.00  0.00    -0.013 C
HETATM   28  C8  UNL     1       9.312   1.127  18.738  1.00  0.00     0.009 C
HETATM   29  C12 UNL     1       7.178   0.708  17.634  1.00  0.00     0.009 C
HETATM   30  C9  UNL     1       9.559   2.296  17.809  1.00  0.00    -0.013 C
HETATM   31  C10 UNL     1       8.878   2.112  16.482  1.00  0.00     0.009 C
HETATM   32  C14 UNL     1       8.992   3.526  18.456  1.00  0.00     0.019 C
HETATM   33  C11 UNL     1       7.411   1.902  16.749  1.00  0.00    -0.013 C
HETATM   34  C13 UNL     1       6.746   3.095  17.377  1.00  0.00     0.019 C
ENDBRANCH   5  25
TORSDOF 6
ENDMDL