MODEL 4
REMARK VINA RESULT: -7.728611631      3.292      6.938
REMARK  6 active torsions:
REMARK  status: ('A' for Active; 'I' for Inactive)
REMARK    1  A    between atoms: C2_2  and  N1_3
REMARK       I    between atoms: N1_3  and  C3_5
REMARK       I    between atoms: C3_5  and  N2_7
REMARK    2  A    between atoms: N2_7  and  C4_8
REMARK       I    between atoms: N2_7  and  C13_20
REMARK    3  A    between atoms: C4_8  and  C5_9
REMARK       I    between atoms: C5_9  and  N3_11
REMARK    4  A    between atoms: N3_11  and  C6_13
REMARK    5  A    between atoms: C6_13  and  C7_14
REMARK    6  A    between atoms: C13_20  and  C14_22
ROOT
HETATM    1  N1  UNL     1       9.067   8.738  24.454  1.00  0.00    -0.343 N
ATOM      2  H1  UNL     1       8.426   8.873  25.236  1.00  0.00     0.164 HD
HETATM    3  C3  UNL     1       8.601   8.565  23.173  1.00  0.00     0.325 C
HETATM    4  O1  UNL     1       9.509   8.402  22.259  1.00  0.00    -0.247 OA
HETATM    5  N2  UNL     1       7.276   8.540  22.708  1.00  0.00    -0.256 N
HETATM    6  C13 UNL     1       6.172   8.681  23.523  1.00  0.00     0.279 C
HETATM    7  O3  UNL     1       6.444   8.894  24.773  1.00  0.00    -0.265 OA
ENDROOT
BRANCH   5   8
HETATM    8  C4  UNL     1       7.156   8.327  21.247  1.00  0.00     0.239 C
BRANCH   8   9
HETATM    9  C5  UNL     1       6.621   6.990  20.930  1.00  0.00     0.236 C
HETATM   10  O2  UNL     1       5.529   6.960  20.274  1.00  0.00    -0.272 OA
HETATM   11  N3  UNL     1       7.268   5.787  21.321  1.00  0.00    -0.359 N
ATOM     12  H3  UNL     1       8.142   5.813  21.845  1.00  0.00     0.162 HD
BRANCH  11  13
HETATM   13  C6  UNL     1       6.670   4.538  20.964  1.00  0.00     0.127 C
BRANCH  13  14
HETATM   14  C7  UNL     1       7.599   3.584  20.297  1.00  0.00     0.003 C
HETATM   15  C8  UNL     1       8.156   4.152  19.012  1.00  0.00     0.006 C
HETATM   16  C9  UNL     1       9.092   3.156  18.392  1.00  0.00     0.000 C
HETATM   17  C10 UNL     1       8.501   1.789  18.255  1.00  0.00     0.000 C
HETATM   18  C11 UNL     1       7.811   1.297  19.491  1.00  0.00     0.000 C
HETATM   19  C12 UNL     1       6.810   2.341  19.922  1.00  0.00     0.006 C
ENDBRANCH  13  14
ENDBRANCH  11  13
ENDBRANCH   8   9
ENDBRANCH   5   8
BRANCH   6  20
HETATM   20  C14 UNL     1       4.746   8.635  23.233  1.00  0.00     0.109 A
HETATM   21  N4  UNL     1       3.868   9.541  22.809  1.00  0.00    -0.354 N
HETATM   22  C15 UNL     1       2.605   9.016  22.691  1.00  0.00     0.024 A
ATOM     23  H4  UNL     1       4.105  10.510  22.597  1.00  0.00     0.166 HD
HETATM   24  C16 UNL     1       1.371   9.717  22.250  1.00  0.00     0.069 C
HETATM   25  C17 UNL     1       2.664   7.708  23.055  1.00  0.00     0.041 A
HETATM   26 BR1  UNL     1       1.212   6.460  23.094  1.00  0.00    -0.048 Br
HETATM   27  C18 UNL     1       3.978   7.468  23.389  1.00  0.00    -0.010 A
HETATM   28  C19 UNL     1       4.459   6.146  23.843  1.00  0.00     0.052 C
ENDBRANCH   6  20
BRANCH   1  29
HETATM   29  C2  UNL     1      10.530   8.720  24.656  1.00  0.00     0.120 C
HETATM   30  C1  UNL     1      10.833   8.310  26.063  1.00  0.00     0.026 C
ENDBRANCH   1  29
TORSDOF 6
ENDMDL