MODEL 2
REMARK VINA RESULT: -8.691909817      2.251      2.837
REMARK  7 active torsions:
REMARK  status: ('A' for Active; 'I' for Inactive)
REMARK    1  A    between atoms: C2_2  and  N1_3
REMARK    2  A    between atoms: C2_2  and  C20_30
REMARK       I    between atoms: N1_3  and  C3_5
REMARK       I    between atoms: C3_5  and  N3_9
REMARK    3  A    between atoms: N3_9  and  C5_11
REMARK    4  A    between atoms: C5_11  and  C6_12
REMARK       I    between atoms: C6_12  and  N4_14
REMARK    5  A    between atoms: N4_14  and  C7_16
REMARK    6  A    between atoms: C7_16  and  C8_17
REMARK    7  A    between atoms: C8_17  and  N5_18
ROOT
HETATM    1  C5  UNL     1       3.881   2.594  22.137  1.00  0.00     0.128 C
HETATM    2  C15 UNL     1       2.776   2.282  21.187  1.00  0.00     0.041 C
HETATM    3  C16 UNL     1       2.291   0.863  21.226  1.00  0.00     0.003 C
HETATM    4  C17 UNL     1       2.048   0.491  22.668  1.00  0.00     0.000 C
HETATM    5  C18 UNL     1       3.375   0.432  23.364  1.00  0.00     0.003 C
HETATM    6  C19 UNL     1       4.326   1.528  23.045  1.00  0.00     0.041 C
ENDROOT
BRANCH   1   7
HETATM    7  N3  UNL     1       5.005   3.050  21.297  1.00  0.00    -0.208 N
HETATM    8  C3  UNL     1       4.995   3.995  20.295  1.00  0.00     0.674 C
HETATM    9  N1  UNL     1       5.493   3.644  19.011  1.00  0.00    -0.196 N
HETATM   10  N2  UNL     1       4.562   5.184  20.460  1.00  0.00    -0.231 N
ATOM     11  H1  UNL     1       4.862   3.216  18.334  1.00  0.00     0.184 HD
HETATM   12  C4  UNL     1       4.549   6.197  19.415  1.00  0.00     0.165 C
ATOM     13  H2  UNL     1       4.204   5.440  21.379  1.00  0.00     0.177 HD
ATOM     14  H3  UNL     1       5.906   2.609  21.482  1.00  0.00     0.179 HD
BRANCH   9  15
HETATM   15  C2  UNL     1       6.846   3.874  18.648  1.00  0.00     0.021 C
HETATM   16  C1  UNL     1       7.118   4.898  17.867  1.00  0.00     0.039 C
BRANCH  15  17
HETATM   17  C20 UNL     1       7.924   3.003  19.147  1.00  0.00     0.036 C
HETATM   18  C21 UNL     1       9.211   3.087  18.440  1.00  0.00     0.017 C
HETATM   19  C22 UNL     1       9.432   2.066  17.367  1.00  0.00     0.080 C
HETATM   20  C23 UNL     1       9.048   0.663  17.842  1.00  0.00     0.243 C
HETATM   21  F1  UNL     1       9.359  -0.227  16.860  1.00  0.00    -0.206 F
HETATM   22  F2  UNL     1       9.719   0.378  19.018  1.00  0.00    -0.206 F
HETATM   23  C24 UNL     1       7.564   0.738  18.133  1.00  0.00     0.080 C
HETATM   24  C25 UNL     1       7.389   1.613  19.349  1.00  0.00     0.017 C
ENDBRANCH  15  17
ENDBRANCH   9  15
ENDBRANCH   1   7
BRANCH   1  25
HETATM   25  C6  UNL     1       3.415   3.777  22.950  1.00  0.00     0.246 C
HETATM   26  O1  UNL     1       4.272   4.314  23.685  1.00  0.00    -0.271 OA
HETATM   27  N4  UNL     1       2.111   4.276  22.915  1.00  0.00    -0.357 N
ATOM     28  H4  UNL     1       1.455   3.797  22.298  1.00  0.00     0.162 HD
BRANCH  27  29
HETATM   29  C7  UNL     1       1.596   5.397  23.662  1.00  0.00     0.150 C
BRANCH  29  30
HETATM   30  C8  UNL     1       1.802   6.657  22.904  1.00  0.00     0.256 C
BRANCH  30  31
HETATM   31  N5  UNL     1       2.585   7.642  23.616  1.00  0.00    -0.069 N
HETATM   32  C9  UNL     1       3.843   7.791  22.915  1.00  0.00     0.272 C
HETATM   33  C10 UNL     1       2.776   7.242  24.991  1.00  0.00     0.237 C
HETATM   34  C11 UNL     1       3.551   8.216  25.794  1.00  0.00     0.028 C
HETATM   35  C12 UNL     1       3.502   9.625  25.365  1.00  0.00     0.003 C
HETATM   36  C13 UNL     1       2.637   9.970  24.216  1.00  0.00     0.028 C
HETATM   37  C14 UNL     1       1.813   8.867  23.649  1.00  0.00     0.237 C
ENDBRANCH  30  31
ENDBRANCH  29  30
ENDBRANCH  27  29
ENDBRANCH   1  25
TORSDOF 7
ENDMDL