MODEL 4
REMARK VINA RESULT: -8.418997067      0.551      1.304
REMARK  6 active torsions:
REMARK  status: ('A' for Active; 'I' for Inactive)
REMARK    1  A    between atoms: C1_2  and  C2_3
REMARK       I    between atoms: C1_2  and  N2_16
REMARK    2  A    between atoms: C2_3  and  N1_4
REMARK       I    between atoms: N1_4  and  C3_6
REMARK    3  A    between atoms: C3_6  and  C4_8
REMARK    4  A    between atoms: N2_16  and  C12_18
REMARK    5  A    between atoms: C12_18  and  C13_19
REMARK    6  A    between atoms: C13_19  and  C14_20
ROOT
HETATM    1  O1  UNL     1       7.903   6.463  22.291  1.00  0.00    -0.272 OA
HETATM    2  C1  UNL     1       7.541   7.471  21.629  1.00  0.00     0.235 C
HETATM    3  N2  UNL     1       7.383   8.703  22.320  1.00  0.00    -0.359 N
ATOM      4  H2  UNL     1       7.092   9.539  21.814  1.00  0.00     0.162 HD
ENDROOT
BRANCH   2   5
HETATM    5  C2  UNL     1       7.282   7.415  20.187  1.00  0.00     0.225 C
BRANCH   5   6
HETATM    6  N1  UNL     1       7.724   6.167  19.624  1.00  0.00    -0.352 N
HETATM    7  C3  UNL     1       6.761   5.208  19.227  1.00  0.00     0.227 C
HETATM    8  O2  UNL     1       5.526   5.377  19.328  1.00  0.00    -0.273 OA
ATOM      9  H1  UNL     1       8.719   5.974  19.512  1.00  0.00     0.162 HD
BRANCH   7  10
HETATM   10  C4  UNL     1       7.276   3.912  18.650  1.00  0.00     0.045 A
HETATM   11  C5  UNL     1       6.629   2.680  19.111  1.00  0.00     0.020 C
HETATM   12  C6  UNL     1       7.468   1.742  19.907  1.00  0.00     0.001 C
HETATM   13  C7  UNL     1       8.060   0.719  18.951  1.00  0.00     0.000 C
HETATM   14  C8  UNL     1       8.894   1.396  17.889  1.00  0.00     0.000 C
HETATM   15  C9  UNL     1       9.463   2.693  18.337  1.00  0.00     0.006 C
HETATM   16  C10 UNL     1       8.616   3.892  18.121  1.00  0.00     0.004 A
HETATM   17  C11 UNL     1       7.535   3.959  17.120  1.00  0.00     0.025 A
ENDBRANCH   7  10
ENDBRANCH   5   6
ENDBRANCH   2   5
BRANCH   3  18
HETATM   18  C12 UNL     1       7.634   8.771  23.733  1.00  0.00     0.128 C
BRANCH  18  19
HETATM   19  C13 UNL     1       8.996   9.307  24.044  1.00  0.00     0.076 C
BRANCH  19  20
HETATM   20  C14 UNL     1       9.741   8.488  25.025  1.00  0.00     0.013 A
HETATM   21  C15 UNL     1       9.257   7.519  25.866  1.00  0.00     0.047 A
HETATM   22  C16 UNL     1      10.328   7.020  26.605  1.00  0.00     0.046 A
HETATM   23 BR1  UNL     1      10.279   5.660  27.930  1.00  0.00    -0.048 Br
HETATM   24  C17 UNL     1      11.436   7.708  26.188  1.00  0.00     0.097 A
HETATM   25 BR2  UNL     1      13.227   7.471  26.840  1.00  0.00    -0.030 Br
HETATM   26  N3  UNL     1      11.078   8.584  25.243  1.00  0.00    -0.353 N
ATOM     27  H3  UNL     1      11.709   9.224  24.761  1.00  0.00     0.166 HD
ENDBRANCH  19  20
ENDBRANCH  18  19
ENDBRANCH   3  18
TORSDOF 6
ENDMDL