MODEL 5
REMARK VINA RESULT: -8.394697982      1.728      2.986
REMARK  7 active torsions:
REMARK  status: ('A' for Active; 'I' for Inactive)
REMARK    1  A    between atoms: C2_2  and  C3_3
REMARK    2  A    between atoms: C2_2  and  C7_12
REMARK    3  A    between atoms: C3_3  and  C4_4
REMARK       I    between atoms: C4_4  and  N1_6
REMARK    4  A    between atoms: N1_6  and  C5_8
REMARK    5  A    between atoms: C5_8  and  C6_9
REMARK    6  A    between atoms: C6_9  and  O2_10
REMARK    7  A    between atoms: N2_26  and  N3_28
ROOT
HETATM    1  C7  UNL     1       4.084   6.320  22.715  1.00  0.00    -0.006 C
HETATM    2  C8  UNL     1       4.312   5.197  23.710  1.00  0.00     0.005 C
HETATM    3  C9  UNL     1       4.531   3.857  23.113  1.00  0.00     0.001 C
HETATM    4  C10 UNL     1       4.169   3.699  21.685  1.00  0.00     0.010 C
HETATM    5  C11 UNL     1       4.474   4.859  20.810  1.00  0.00    -0.036 C
HETATM    6  C12 UNL     1       3.162   5.286  20.149  1.00  0.00     0.016 C
HETATM    7  C13 UNL     1       4.977   6.074  21.549  1.00  0.00    -0.002 C
HETATM    8  C14 UNL     1       6.427   6.030  21.923  1.00  0.00     0.006 C
HETATM    9  C15 UNL     1       7.308   5.532  20.821  1.00  0.00     0.006 C
HETATM   10  C16 UNL     1       6.797   4.231  20.243  1.00  0.00    -0.005 C
HETATM   11  C17 UNL     1       7.738   3.723  19.183  1.00  0.00     0.004 C
HETATM   12  C18 UNL     1       8.006   4.714  18.093  1.00  0.00     0.012 C
HETATM   13  C19 UNL     1       7.984   3.947  16.792  1.00  0.00     0.055 C
HETATM   14  C20 UNL     1       7.701   2.524  17.154  1.00  0.00     0.014 C
HETATM   15  N2  UNL     1       7.852   1.551  16.345  1.00  0.00    -0.294 N
ATOM     16  H2  UNL     1       8.184   1.797  15.412  1.00  0.00     0.188 HD
HETATM   17  C21 UNL     1       7.236   2.458  18.559  1.00  0.00     0.000 C
HETATM   18  C22 UNL     1       7.937   1.280  19.217  1.00  0.00     0.022 C
HETATM   19  C23 UNL     1       5.773   2.242  18.654  1.00  0.00     0.016 C
HETATM   20  C24 UNL     1       4.912   3.433  18.798  1.00  0.00     0.007 C
HETATM   21  C25 UNL     1       5.431   4.524  19.683  1.00  0.00    -0.002 C
ENDROOT
BRANCH   1  22
HETATM   22  C2  UNL     1       4.356   7.631  23.417  1.00  0.00    -0.005 C
HETATM   23  C1  UNL     1       3.098   8.450  23.489  1.00  0.00     0.011 C
BRANCH  22  24
HETATM   24  C3  UNL     1       4.805   7.327  24.828  1.00  0.00     0.107 C
BRANCH  24  25
HETATM   25  C4  UNL     1       6.145   7.902  25.111  1.00  0.00     0.217 C
HETATM   26  O1  UNL     1       6.270   9.137  25.214  1.00  0.00    -0.274 OA
HETATM   27  N1  UNL     1       7.266   7.071  25.264  1.00  0.00    -0.359 N
ATOM     28  H1  UNL     1       7.136   6.063  25.175  1.00  0.00     0.162 HD
BRANCH  27  29
HETATM   29  C5  UNL     1       8.591   7.565  25.541  1.00  0.00     0.148 C
BRANCH  29  30
HETATM   30  C6  UNL     1       9.218   8.165  24.305  1.00  0.00     0.183 C
BRANCH  30  31
HETATM   31  O2  UNL     1       9.158   9.564  24.461  1.00  0.00    -0.399 OA
ATOM     32  H2  UNL     1       8.238   9.796  24.496  1.00  0.00     0.209 HD
ENDBRANCH  30  31
ENDBRANCH  29  30
ENDBRANCH  27  29
ENDBRANCH  24  25
ENDBRANCH  22  24
ENDBRANCH   1  22
BRANCH  15  33
HETATM   33  N3  UNL     1       7.626   0.216  16.567  1.00  0.00    -0.249 N
HETATM   34  N4  UNL     1       6.844  -0.471  15.822  1.00  0.00    -0.331 N
ATOM     35  H42 UNL     1       6.384   0.002  15.044  1.00  0.00     0.178 HD
ATOM     36  H41 UNL     1       6.676  -1.464  15.987  1.00  0.00     0.178 HD
ATOM     37  H3  UNL     1       8.094  -0.243  17.348  1.00  0.00     0.207 HD
ENDBRANCH  15  33
TORSDOF 7
ENDMDL