MODEL 1
REMARK VINA RESULT: -9.377427063      0.000      0.000
REMARK  9 active torsions:
REMARK  status: ('A' for Active; 'I' for Inactive)
REMARK    1  A    between atoms: C2_2  and  C4_4
REMARK    2  A    between atoms: C4_4  and  N1_5
REMARK    3  A    between atoms: C4_4  and  N3_13
REMARK    4  A    between atoms: C5_7  and  O1_8
REMARK    5  A    between atoms: C5_7  and  N2_10
REMARK       I    between atoms: N3_13  and  C8_15
REMARK    6  A    between atoms: C8_15  and  C9_17
REMARK    7  A    between atoms: C9_17  and  N4_18
REMARK    8  A    between atoms: C9_17  and  C21_34
REMARK       I    between atoms: N4_18  and  C10_20
REMARK       I    between atoms: C10_20  and  N5_22
REMARK    9  A    between atoms: N5_22  and  C11_24
ROOT
HETATM    1  C9  UNL     1       8.047   8.407  20.383  1.00  0.00     0.085 C
ENDROOT
BRANCH   1   2
HETATM    2  C8  UNL     1       8.078   8.908  21.792  1.00  0.00     0.269 C
HETATM    3  N3  UNL     1       7.472   8.242  22.849  1.00  0.00    -0.311 N
ATOM      4  H3  UNL     1       7.053   7.345  22.599  1.00  0.00     0.170 HD
HETATM    5  O2  UNL     1       8.713  10.001  21.942  1.00  0.00    -0.266 OA
BRANCH   3   6
HETATM    6  C4  UNL     1       7.332   8.596  24.230  1.00  0.00     0.090 C
BRANCH   6   7
HETATM    7  C2  UNL     1       6.164   8.228  25.081  1.00  0.00     0.045 C
HETATM    8  C1  UNL     1       5.737   6.782  24.798  1.00  0.00     0.017 C
HETATM    9  C3  UNL     1       5.015   9.156  25.129  1.00  0.00     0.017 C
ENDBRANCH   6   7
BRANCH   6  10
HETATM   10  N1  UNL     1       8.285   9.157  24.767  1.00  0.00    -0.311 N
HETATM   11  C5  UNL     1       9.544   9.048  25.157  1.00  0.00     0.219 C
ATOM     12  H1  UNL     1       7.976  10.096  25.017  1.00  0.00     0.170 HD
BRANCH  11  13
HETATM   13  O1  UNL     1      10.394   9.907  24.620  1.00  0.00    -0.332 OA
ATOM     14  H1  UNL     1      10.935   9.572  23.915  1.00  0.00     0.220 HD
ENDBRANCH  11  13
BRANCH  11  15
HETATM   15  N2  UNL     1      10.196   8.172  26.064  1.00  0.00    -0.356 N
HETATM   16  C6  UNL     1       9.571   7.095  26.796  1.00  0.00     0.152 C
HETATM   17  C7  UNL     1      11.634   8.375  26.305  1.00  0.00     0.152 C
ENDBRANCH  11  15
ENDBRANCH   6  10
ENDBRANCH   3   6
ENDBRANCH   1   2
BRANCH   1  18
HETATM   18  N4  UNL     1       8.218   7.046  20.165  1.00  0.00    -0.307 N
HETATM   19  C10 UNL     1       7.694   6.160  19.208  1.00  0.00     0.321 C
HETATM   20  O3  UNL     1       6.963   6.445  18.237  1.00  0.00    -0.247 OA
HETATM   21  N5  UNL     1       7.997   4.756  19.322  1.00  0.00    -0.338 N
ATOM     22  H5  UNL     1       8.543   4.454  20.130  1.00  0.00     0.164 HD
ATOM     23  H4  UNL     1       8.849   6.601  20.832  1.00  0.00     0.170 HD
BRANCH  21  24
HETATM   24  C11 UNL     1       7.596   3.779  18.406  1.00  0.00     0.094 C
HETATM   25  C12 UNL     1       7.049   2.489  19.002  1.00  0.00     0.009 C
HETATM   26  C13 UNL     1       6.471   1.690  17.829  1.00  0.00     0.011 C
HETATM   27  C17 UNL     1       8.067   1.619  19.638  1.00  0.00     0.011 C
HETATM   28  C14 UNL     1       7.542   1.333  16.844  1.00  0.00    -0.013 C
HETATM   29  C15 UNL     1       8.661   0.511  17.481  1.00  0.00     0.009 C
HETATM   30  C20 UNL     1       8.171   2.618  16.326  1.00  0.00     0.011 C
HETATM   31  C16 UNL     1       9.182   1.297  18.656  1.00  0.00    -0.013 C
HETATM   32  C18 UNL     1       9.772   2.592  18.174  1.00  0.00     0.011 C
HETATM   33  C19 UNL     1       8.720   3.420  17.458  1.00  0.00     0.009 C
ENDBRANCH  21  24
ENDBRANCH   1  18
BRANCH   1  34
HETATM   34  C21 UNL     1       7.027   9.091  19.514  1.00  0.00     0.033 C
HETATM   35  C22 UNL     1       7.635  10.306  18.824  1.00  0.00     0.016 C
HETATM   36  C23 UNL     1       5.778   9.521  20.185  1.00  0.00     0.016 C
ENDBRANCH   1  34
TORSDOF 9
ENDMDL