MODEL 1
REMARK VINA RESULT: -8.550458712      0.000      0.000
REMARK  7 active torsions:
REMARK  status: ('A' for Active; 'I' for Inactive)
REMARK       I    between atoms: C2_2  and  N1_4
REMARK    1  A    between atoms: N1_4  and  C3_6
REMARK    2  A    between atoms: C3_6  and  C4_7
REMARK    3  A    between atoms: C4_7  and  N3_11
REMARK    4  A    between atoms: N3_11  and  C5_13
REMARK    5  A    between atoms: C5_13  and  C6_14
REMARK    6  A    between atoms: C6_14  and  N4_15
REMARK    7  A    between atoms: N5_19  and  C10_20
ROOT
HETATM    1  C4  UNL     1       4.879   5.641  20.557  1.00  0.00     0.099 C
HETATM    2  N2  UNL     1       3.976   6.371  20.055  1.00  0.00    -0.387 N
ATOM      3  H21 UNL     1       3.205   6.792  20.575  1.00  0.00     0.157 HD
ATOM      4  H22 UNL     1       4.039   6.561  19.056  1.00  0.00     0.157 HD
ENDROOT
BRANCH   1   5
HETATM    5  C3  UNL     1       6.008   5.025  19.797  1.00  0.00     0.090 C
HETATM    6  C16 UNL     1       6.126   3.585  20.186  1.00  0.00     0.039 C
HETATM    7  C17 UNL     1       7.522   3.032  20.260  1.00  0.00     0.003 C
HETATM    8  C18 UNL     1       7.677   1.698  19.564  1.00  0.00     0.000 C
HETATM    9  C19 UNL     1       8.981   1.443  18.930  1.00  0.00     0.000 C
HETATM   10  C20 UNL     1       9.574   2.445  18.034  1.00  0.00     0.000 C
HETATM   11  C21 UNL     1       9.147   2.404  16.600  1.00  0.00     0.000 C
HETATM   12  C22 UNL     1       7.773   2.889  16.310  1.00  0.00     0.000 C
HETATM   13  C23 UNL     1       7.429   4.243  16.860  1.00  0.00     0.000 C
HETATM   14  C24 UNL     1       5.975   4.219  17.362  1.00  0.00     0.003 C
HETATM   15  C25 UNL     1       5.651   5.250  18.350  1.00  0.00     0.039 C
BRANCH   5  16
HETATM   16  N1  UNL     1       7.193   5.761  20.177  1.00  0.00    -0.345 N
HETATM   17  C2  UNL     1       7.533   7.054  19.718  1.00  0.00     0.214 C
HETATM   18  C1  UNL     1       8.782   7.704  20.191  1.00  0.00     0.117 C
HETATM   19  O1  UNL     1       6.842   7.727  18.912  1.00  0.00    -0.274 OA
ATOM     20  H1  UNL     1       7.835   5.311  20.829  1.00  0.00     0.163 HD
ENDBRANCH   5  16
ENDBRANCH   1   5
BRANCH   1  21
HETATM   21  N3  UNL     1       4.791   5.374  21.956  1.00  0.00    -0.376 N
ATOM     22  H3  UNL     1       4.643   4.404  22.234  1.00  0.00     0.160 HD
BRANCH  21  23
HETATM   23  C5  UNL     1       4.891   6.341  23.007  1.00  0.00     0.149 C
BRANCH  23  24
HETATM   24  C6  UNL     1       5.787   7.503  22.784  1.00  0.00     0.256 C
BRANCH  24  25
HETATM   25  N4  UNL     1       6.507   7.993  23.923  1.00  0.00    -0.066 N
HETATM   26  C7  UNL     1       5.622   8.867  24.708  1.00  0.00     0.272 C
HETATM   27  C8  UNL     1       7.547   8.876  23.388  1.00  0.00     0.267 C
HETATM   28  C9  UNL     1       8.547   9.329  24.387  1.00  0.00     0.301 C
HETATM   29  N5  UNL     1       9.182   8.113  24.930  1.00  0.00     0.096 N
HETATM   30  C14 UNL     1       8.109   7.472  25.685  1.00  0.00     0.301 C
HETATM   31  C15 UNL     1       6.991   6.996  24.817  1.00  0.00     0.267 C
BRANCH  29  32
HETATM   32  C10 UNL     1      10.182   8.544  25.854  1.00  0.00     0.223 C
HETATM   33  C11 UNL     1      10.661   7.494  26.834  1.00  0.00     0.036 C
HETATM   34  C12 UNL     1      12.101   7.816  26.464  1.00  0.00     0.004 C
HETATM   35  C13 UNL     1      11.561   8.550  25.240  1.00  0.00     0.036 C
ENDBRANCH  29  32
ENDBRANCH  24  25
ENDBRANCH  23  24
ENDBRANCH  21  23
ENDBRANCH   1  21
TORSDOF 7
ENDMDL