MODEL 3
REMARK VINA RESULT: -8.276251715      3.001      5.847
REMARK  8 active torsions:
REMARK  status: ('A' for Active; 'I' for Inactive)
REMARK    1  A    between atoms: N1_6  and  C6_7
REMARK    2  A    between atoms: C6_7  and  C7_8
REMARK    3  A    between atoms: C7_8  and  C8_9
REMARK    4  A    between atoms: C8_9  and  C9_10
REMARK    5  A    between atoms: C9_10  and  N4_16
REMARK    6  A    between atoms: N2_11  and  N3_13
REMARK    7  A    between atoms: N4_16  and  C10_18
REMARK       I    between atoms: N5_21  and  C13_22
REMARK       I    between atoms: C13_22  and  N6_24
REMARK    8  A    between atoms: N6_24  and  C14_26
ROOT
HETATM    1  C9  UNL     1       3.177   6.382  21.077  1.00  0.00     0.091 C
HETATM    2  N2  UNL     1       2.913   7.240  20.155  1.00  0.00    -0.296 N
ATOM      3  H2  UNL     1       2.898   6.927  19.184  1.00  0.00     0.187 HD
ENDROOT
BRANCH   1   4
HETATM    4  C8  UNL     1       3.454   4.974  20.734  1.00  0.00     0.079 C
BRANCH   4   5
HETATM    5  C7  UNL     1       4.771   4.919  19.947  1.00  0.00     0.035 C
BRANCH   5   6
HETATM    6  C6  UNL     1       5.229   3.504  19.890  1.00  0.00     0.238 C
BRANCH   6   7
HETATM    7  N1  UNL     1       6.414   3.277  19.129  1.00  0.00    -0.067 N
HETATM    8  C5  UNL     1       6.172   2.202  18.170  1.00  0.00     0.238 C
HETATM    9  C4  UNL     1       7.364   1.337  17.951  1.00  0.00     0.037 C
HETATM   10  C2  UNL     1       8.686   2.040  18.049  1.00  0.00    -0.041 C
HETATM   11  C1  UNL     1       9.698   0.978  18.508  1.00  0.00     0.015 C
HETATM   12  C3  UNL     1       9.117   2.496  16.697  1.00  0.00     0.015 C
HETATM   13  C23 UNL     1       8.707   3.113  19.097  1.00  0.00     0.021 C
HETATM   14  C22 UNL     1       8.390   4.480  18.598  1.00  0.00     0.035 C
HETATM   15  C24 UNL     1       7.502   2.847  20.013  1.00  0.00     0.242 C
HETATM   16  C21 UNL     1       6.896   4.394  18.370  1.00  0.00     0.238 C
ENDBRANCH   6   7
ENDBRANCH   5   6
ENDBRANCH   4   5
ENDBRANCH   1   4
BRANCH   1  17
HETATM   17  N4  UNL     1       3.192   6.838  22.436  1.00  0.00    -0.372 N
ATOM     18  H4  UNL     1       2.410   7.389  22.789  1.00  0.00     0.161 HD
BRANCH  17  19
HETATM   19  C10 UNL     1       4.290   6.531  23.308  1.00  0.00     0.102 C
HETATM   20  C11 UNL     1       4.112   7.006  24.713  1.00  0.00     0.046 C
HETATM   21  C12 UNL     1       5.253   7.981  24.934  1.00  0.00     0.129 C
HETATM   22  N5  UNL     1       6.243   7.508  24.008  1.00  0.00    -0.332 N
HETATM   23  C13 UNL     1       7.619   7.377  24.241  1.00  0.00     0.318 C
HETATM   24  C20 UNL     1       5.551   7.193  22.782  1.00  0.00     0.152 C
HETATM   25  O1  UNL     1       8.352   6.936  23.301  1.00  0.00    -0.247 OA
HETATM   26  N6  UNL     1       8.158   7.734  25.501  1.00  0.00    -0.338 N
ATOM     27  H6  UNL     1       7.568   8.089  26.253  1.00  0.00     0.164 HD
BRANCH  26  28
HETATM   28  C14 UNL     1       9.609   7.568  25.675  1.00  0.00     0.086 C
HETATM   29  C15 UNL     1       9.814   7.319  27.158  1.00  0.00     0.025 C
HETATM   30  C16 UNL     1      11.278   7.016  27.366  1.00  0.00     0.002 C
HETATM   31  C17 UNL     1      12.173   7.951  26.622  1.00  0.00     0.000 C
HETATM   32  C18 UNL     1      11.419   9.202  26.195  1.00  0.00     0.002 C
HETATM   33  C19 UNL     1      10.288   8.837  25.237  1.00  0.00     0.025 C
ENDBRANCH  26  28
ENDBRANCH  17  19
ENDBRANCH   1  17
BRANCH   2  34
HETATM   34  N3  UNL     1       2.645   8.579  20.431  1.00  0.00    -0.344 N
ATOM     35  H32 UNL     1       3.440   9.202  20.573  1.00  0.00     0.176 HD
ATOM     36  H31 UNL     1       1.695   8.947  20.494  1.00  0.00     0.176 HD
ENDBRANCH   2  34
TORSDOF 8
ENDMDL