MODEL 5
REMARK VINA RESULT: -9.427781959      1.071      1.131
REMARK  7 active torsions:
REMARK  status: ('A' for Active; 'I' for Inactive)
REMARK    1  A    between atoms: C2_2  and  C3_3
REMARK    2  A    between atoms: C3_3  and  N1_4
REMARK    3  A    between atoms: C3_3  and  C8_13
REMARK       I    between atoms: N1_4  and  C4_6
REMARK       I    between atoms: C4_6  and  N2_8
REMARK    4  A    between atoms: N2_8  and  C5_10
REMARK       I    between atoms: C8_13  and  N3_15
REMARK    5  A    between atoms: C12_19  and  C13_20
REMARK       I    between atoms: C13_20  and  N4_22
REMARK    6  A    between atoms: N4_22  and  C14_24
REMARK    7  A    between atoms: C14_24  and  C15_25
ROOT
HETATM    1  C8  UNL     1       6.779   6.741  21.757  1.00  0.00     0.247 C
HETATM    2  O2  UNL     1       7.600   5.824  21.588  1.00  0.00    -0.271 OA
HETATM    3  N3  UNL     1       5.426   6.525  21.915  1.00  0.00    -0.337 N
HETATM    4  C9  UNL     1       4.501   7.677  22.134  1.00  0.00     0.127 C
HETATM    5  C10 UNL     1       3.691   7.121  23.313  1.00  0.00     0.022 C
HETATM    6  C11 UNL     1       3.877   5.642  23.313  1.00  0.00     0.037 C
HETATM    7  C12 UNL     1       4.562   5.431  21.921  1.00  0.00     0.179 C
ENDROOT
BRANCH   7   8
HETATM    8  C13 UNL     1       5.012   4.059  21.811  1.00  0.00     0.240 C
HETATM    9  O3  UNL     1       4.943   3.127  22.640  1.00  0.00    -0.271 OA
HETATM   10  N4  UNL     1       5.635   3.715  20.545  1.00  0.00    -0.359 N
ATOM     11  H4  UNL     1       5.731   4.415  19.809  1.00  0.00     0.162 HD
BRANCH  10  12
HETATM   12  C14 UNL     1       6.119   2.366  20.340  1.00  0.00     0.132 C
BRANCH  12  13
HETATM   13  C15 UNL     1       7.056   2.251  19.188  1.00  0.00    -0.023 C
HETATM   14  C16 UNL     1       6.421   1.760  17.929  1.00  0.00     0.015 C
HETATM   15  C17 UNL     1       7.488   1.715  16.852  1.00  0.00    -0.013 C
HETATM   16  C18 UNL     1       8.638   0.803  17.228  1.00  0.00     0.009 C
HETATM   17  C22 UNL     1       8.049   3.098  16.606  1.00  0.00     0.009 C
HETATM   18  C19 UNL     1       9.276   1.319  18.495  1.00  0.00    -0.013 C
HETATM   19  C20 UNL     1       9.842   2.693  18.286  1.00  0.00     0.009 C
HETATM   20  C24 UNL     1       8.210   1.355  19.555  1.00  0.00     0.015 C
HETATM   21  C21 UNL     1       8.700   3.608  17.885  1.00  0.00    -0.013 C
HETATM   22  C23 UNL     1       7.650   3.645  18.951  1.00  0.00     0.015 C
ENDBRANCH  12  13
ENDBRANCH  10  12
ENDBRANCH   7   8
BRANCH   1  23
HETATM   23  C3  UNL     1       7.386   8.126  21.778  1.00  0.00     0.201 C
BRANCH  23  24
HETATM   24  C2  UNL     1       7.686   8.458  20.342  1.00  0.00    -0.003 C
HETATM   25  C1  UNL     1       8.737   9.176  19.998  1.00  0.00     0.009 C
ENDBRANCH  23  24
BRANCH  23  26
HETATM   26  N1  UNL     1       8.654   8.093  22.476  1.00  0.00    -0.327 N
HETATM   27  C4  UNL     1       8.761   8.307  23.879  1.00  0.00     0.317 C
HETATM   28  O1  UNL     1       7.705   8.537  24.551  1.00  0.00    -0.247 OA
HETATM   29  N2  UNL     1       9.984   8.277  24.570  1.00  0.00    -0.339 N
ATOM     30  H2  UNL     1      10.845   8.094  24.053  1.00  0.00     0.164 HD
ATOM     31  H1  UNL     1       9.503   7.909  21.942  1.00  0.00     0.165 HD
BRANCH  29  32
HETATM   32  C5  UNL     1      10.052   8.499  25.990  1.00  0.00     0.078 C
HETATM   33  C6  UNL     1      11.444   8.900  26.369  1.00  0.00     0.032 C
HETATM   34  C7  UNL     1       9.675   7.188  26.665  1.00  0.00     0.032 C
ENDBRANCH  29  32
ENDBRANCH  23  26
ENDBRANCH   1  23
TORSDOF 7
ENDMDL