MODEL 1
REMARK VINA RESULT: -7.764710496      0.000      0.000
REMARK  7 active torsions:
REMARK  status: ('A' for Active; 'I' for Inactive)
REMARK    1  A    between atoms: N1_2  and  C2_3
REMARK    2  A    between atoms: C2_3  and  C3_4
REMARK    3  A    between atoms: C3_4  and  N2_5
REMARK    4  A    between atoms: C3_4  and  C4_9
REMARK    5  A    between atoms: C4_9  and  N3_10
REMARK    6  A    between atoms: C21_27  and  C22_28
REMARK    7  A    between atoms: C22_28  and  N4_29
ROOT
HETATM    1  C3  UNL     1       3.765   7.319  22.650  1.00  0.00     0.237 C
ENDROOT
BRANCH   1   2
HETATM    2  C2  UNL     1       4.396   8.439  23.384  1.00  0.00     0.271 C
BRANCH   2   3
HETATM    3  N1  UNL     1       4.998   8.238  24.633  1.00  0.00    -0.068 N
HETATM    4  C1  UNL     1       4.151   8.396  25.793  1.00  0.00     0.272 C
HETATM    5  C19 UNL     1       5.444   6.832  24.690  1.00  0.00     0.237 C
HETATM    6  C20 UNL     1       6.926   6.821  24.760  1.00  0.00     0.036 C
HETATM    7  C21 UNL     1       7.377   8.211  24.415  1.00  0.00     0.031 C
HETATM    8  C24 UNL     1       6.189   9.030  24.869  1.00  0.00     0.243 C
BRANCH   7   9
HETATM    9  C22 UNL     1       8.622   8.614  25.176  1.00  0.00     0.128 C
BRANCH   9  10
HETATM   10  N4  UNL     1       9.116   7.563  26.016  1.00  0.00    -0.366 N
HETATM   11  C23 UNL     1      10.249   7.666  26.606  1.00  0.00     0.196 C
HETATM   12  N5  UNL     1      10.701   6.605  27.426  1.00  0.00    -0.067 NA
HETATM   13  N6  UNL     1      11.060   8.812  26.457  1.00  0.00    -0.067 NA
ATOM     14  H4  UNL     1       8.558   6.720  26.147  1.00  0.00     0.161 HD
ENDBRANCH   9  10
ENDBRANCH   7   9
ENDBRANCH   2   3
ENDBRANCH   1   2
BRANCH   1  15
HETATM   15  N2  UNL     1       2.325   7.273  22.770  1.00  0.00    -0.072 N
ATOM     16  H23 UNL     1       2.052   6.879  23.671  1.00  0.00     0.274 HD
ATOM     17  H22 UNL     1       1.943   8.214  22.871  1.00  0.00     0.274 HD
ATOM     18  H21 UNL     1       1.859   6.778  22.009  1.00  0.00     0.274 HD
ENDBRANCH   1  15
BRANCH   1  19
HETATM   19  C4  UNL     1       4.290   7.165  21.282  1.00  0.00     0.306 C
BRANCH  19  20
HETATM   20  N3  UNL     1       4.810   5.894  20.911  1.00  0.00     0.090 N
HETATM   21  C5  UNL     1       3.766   5.277  20.074  1.00  0.00     0.272 C
HETATM   22  C6  UNL     1       4.021   3.849  19.787  1.00  0.00     0.030 C
HETATM   23  C7  UNL     1       3.881   3.638  18.280  1.00  0.00     0.002 C
HETATM   24  C8  UNL     1       4.142   2.226  17.873  1.00  0.00     0.000 C
HETATM   25  C9  UNL     1       5.051   2.203  16.643  1.00  0.00     0.000 C
HETATM   26  C10 UNL     1       6.039   1.074  16.692  1.00  0.00     0.000 C
HETATM   27  C11 UNL     1       7.470   1.577  16.906  1.00  0.00     0.000 C
HETATM   28  C12 UNL     1       7.783   1.399  18.358  1.00  0.00     0.000 C
HETATM   29  C13 UNL     1       9.068   2.048  18.788  1.00  0.00     0.000 C
HETATM   30  C14 UNL     1       9.147   3.504  18.425  1.00  0.00     0.000 C
HETATM   31  C15 UNL     1       7.930   4.276  18.933  1.00  0.00     0.000 C
HETATM   32  C16 UNL     1       7.971   4.226  20.425  1.00  0.00     0.002 C
HETATM   33  C17 UNL     1       7.182   5.271  21.116  1.00  0.00     0.030 C
HETATM   34  C18 UNL     1       6.083   5.881  20.266  1.00  0.00     0.272 C
ENDBRANCH  19  20
ENDBRANCH   1  19
TORSDOF 7
ENDMDL