MODEL 3
REMARK VINA RESULT: -9.356565864      2.984      4.576
REMARK  6 active torsions:
REMARK  status: ('A' for Active; 'I' for Inactive)
REMARK       I    between atoms: C1_4  and  N3_6
REMARK       I    between atoms: N4_9  and  C4_10
REMARK    1  A    between atoms: C4_10  and  C5_12
REMARK    2  A    between atoms: C16_23  and  C17_24
REMARK       I    between atoms: C17_24  and  N5_26
REMARK    3  A    between atoms: N5_26  and  C18_28
REMARK    4  A    between atoms: C18_28  and  C19_29
REMARK    5  A    between atoms: C19_29  and  C20_30
REMARK    6  A    between atoms: C20_30  and  C21_31
ROOT
HETATM    1  N1  UNL     1       8.961   8.901  22.149  1.00  0.00    -0.374 N
ATOM      2  H11 UNL     1       8.829   9.329  21.233  1.00  0.00     0.158 HD
ATOM      3  H12 UNL     1       9.649   9.290  22.794  1.00  0.00     0.158 HD
HETATM    4  C1  UNL     1       8.268   7.882  22.484  1.00  0.00     0.184 C
HETATM    5  N2  UNL     1       8.452   7.290  23.749  1.00  0.00    -0.064 NA
HETATM    6  N3  UNL     1       7.320   7.345  21.594  1.00  0.00    -0.339 N
HETATM    7  C2  UNL     1       7.460   7.631  20.178  1.00  0.00     0.146 C
HETATM    8  C3  UNL     1       7.329   6.347  19.363  1.00  0.00     0.145 C
HETATM    9  N4  UNL     1       6.525   5.378  20.032  1.00  0.00    -0.347 N
HETATM   10  C4  UNL     1       6.601   3.982  19.903  1.00  0.00     0.228 C
HETATM   11  O1  UNL     1       5.751   3.331  20.630  1.00  0.00    -0.273 OA
HETATM   12  C15 UNL     1       5.507   5.958  20.938  1.00  0.00     0.161 C
HETATM   13  C16 UNL     1       6.259   6.521  22.118  1.00  0.00     0.197 C
ENDROOT
BRANCH  10  14
HETATM   14  C5  UNL     1       7.494   3.171  19.078  1.00  0.00     0.042 C
HETATM   15  C6  UNL     1       6.857   3.094  17.678  1.00  0.00     0.024 C
HETATM   16  C7  UNL     1       7.624   2.250  16.726  1.00  0.00    -0.013 C
HETATM   17  C8  UNL     1       7.724   0.843  17.258  1.00  0.00     0.009 C
HETATM   18  C12 UNL     1       9.003   2.846  16.532  1.00  0.00     0.009 C
HETATM   19  C9  UNL     1       8.449   0.934  18.583  1.00  0.00    -0.013 C
HETATM   20  C10 UNL     1       9.809   1.523  18.417  1.00  0.00     0.009 C
HETATM   21  C14 UNL     1       7.593   1.738  19.529  1.00  0.00     0.024 C
HETATM   22  C11 UNL     1       9.639   2.920  17.880  1.00  0.00    -0.013 C
HETATM   23  C13 UNL     1       8.854   3.765  18.859  1.00  0.00     0.024 C
ENDBRANCH  10  14
BRANCH  13  24
HETATM   24  C17 UNL     1       5.320   7.217  23.005  1.00  0.00     0.242 C
HETATM   25  O2  UNL     1       4.454   7.973  22.441  1.00  0.00    -0.271 OA
HETATM   26  N5  UNL     1       5.263   7.147  24.401  1.00  0.00    -0.359 N
ATOM     27  H5  UNL     1       5.941   6.551  24.876  1.00  0.00     0.162 HD
BRANCH  26  28
HETATM   28  C18 UNL     1       4.310   7.860  25.211  1.00  0.00     0.122 C
BRANCH  28  29
HETATM   29  C19 UNL     1       4.706   9.263  25.547  1.00  0.00     0.020 C
BRANCH  29  30
HETATM   30  C20 UNL     1       3.514  10.169  25.754  1.00  0.00     0.006 C
BRANCH  30  31
HETATM   31  C21 UNL     1       2.412   9.718  24.819  1.00  0.00    -0.014 C
HETATM   32  C22 UNL     1       2.215  10.543  23.589  1.00  0.00     0.005 C
HETATM   33  C23 UNL     1       0.721  10.517  23.845  1.00  0.00     0.001 C
HETATM   34  C24 UNL     1       1.038  10.205  25.295  1.00  0.00     0.005 C
ENDBRANCH  30  31
ENDBRANCH  29  30
ENDBRANCH  28  29
ENDBRANCH  26  28
ENDBRANCH  13  24
TORSDOF 6
ENDMDL