MODEL 2
REMARK VINA RESULT: -8.872116205      0.935      1.466
REMARK  6 active torsions:
REMARK  status: ('A' for Active; 'I' for Inactive)
REMARK    1  A    between atoms: C2_2  and  C3_3
REMARK    2  A    between atoms: C10_11  and  N2_12
REMARK    3  A    between atoms: N3_15  and  C13_16
REMARK    4  A    between atoms: C13_16  and  C14_17
REMARK    5  A    between atoms: C14_17  and  N4_18
REMARK       I    between atoms: N4_18  and  C15_20
REMARK       I    between atoms: C15_20  and  N6_24
REMARK    6  A    between atoms: N6_24  and  C16_26
ROOT
HETATM    1  N2  UNL     1       6.771   9.013  20.581  1.00  0.00    -0.328 N
HETATM    2  C11 UNL     1       7.621   9.426  19.483  1.00  0.00     0.148 C
HETATM    3  C12 UNL     1       6.633   9.704  18.350  1.00  0.00     0.147 C
HETATM    4  N3  UNL     1       5.671   8.621  18.559  1.00  0.00    -0.331 N
HETATM    5  C22 UNL     1       5.619   8.452  19.972  1.00  0.00     0.321 C
HETATM    6  O1  UNL     1       4.664   7.880  20.541  1.00  0.00    -0.247 OA
ENDROOT
BRANCH   4   7
HETATM    7  C13 UNL     1       5.004   7.960  17.504  1.00  0.00     0.147 C
BRANCH   7   8
HETATM    8  C14 UNL     1       5.614   6.739  16.960  1.00  0.00     0.158 C
BRANCH   8   9
HETATM    9  N4  UNL     1       5.167   5.531  17.628  1.00  0.00    -0.225 N
HETATM   10  C15 UNL     1       5.746   5.035  18.810  1.00  0.00     0.667 C
HETATM   11  N5  UNL     1       5.023   4.807  19.830  1.00  0.00    -0.235 N
HETATM   12  N6  UNL     1       7.128   4.790  18.856  1.00  0.00    -0.222 N
ATOM     13  H52 UNL     1       4.019   4.985  19.797  1.00  0.00     0.174 HD
ATOM     14  H51 UNL     1       5.442   4.447  20.688  1.00  0.00     0.174 HD
ATOM     15  H6  UNL     1       7.674   5.298  19.553  1.00  0.00     0.178 HD
ATOM     16  H4  UNL     1       4.390   5.014  17.218  1.00  0.00     0.177 HD
BRANCH  12  17
HETATM   17  C16 UNL     1       7.831   3.877  17.997  1.00  0.00     0.099 C
HETATM   18  C17 UNL     1       7.101   2.578  17.796  1.00  0.00     0.026 C
HETATM   19  C18 UNL     1       7.459   1.557  18.842  1.00  0.00     0.002 C
HETATM   20  C19 UNL     1       8.919   1.260  18.926  1.00  0.00     0.000 C
HETATM   21  C20 UNL     1       9.677   2.236  18.066  1.00  0.00     0.002 C
HETATM   22  C21 UNL     1       9.239   3.639  18.490  1.00  0.00     0.026 C
ENDBRANCH  12  17
ENDBRANCH   8   9
ENDBRANCH   7   8
ENDBRANCH   4   7
BRANCH   1  23
HETATM   23  C10 UNL     1       7.070   9.160  21.983  1.00  0.00     0.092 C
HETATM   24  C9  UNL     1       7.106   7.865  22.725  1.00  0.00     0.053 C
HETATM   25  C8  UNL     1       8.513   7.507  23.152  1.00  0.00     0.239 C
HETATM   26  N1  UNL     1       8.975   8.437  24.148  1.00  0.00    -0.067 N
HETATM   27  C5  UNL     1       8.402   8.145  25.441  1.00  0.00     0.238 C
HETATM   28  C6  UNL     1      10.430   8.381  24.302  1.00  0.00     0.238 C
HETATM   29  C24 UNL     1       8.669   9.781  23.706  1.00  0.00     0.239 C
HETATM   30  C4  UNL     1       9.294   7.206  26.254  1.00  0.00     0.032 C
HETATM   31  C3  UNL     1      10.431   8.056  26.771  1.00  0.00    -0.012 C
HETATM   32  C7  UNL     1      10.874   8.940  25.638  1.00  0.00     0.032 C
HETATM   33  C23 UNL     1       8.406   9.856  22.217  1.00  0.00     0.053 C
BRANCH  31  34
HETATM   34  C2  UNL     1      11.565   7.238  27.339  1.00  0.00     0.000 C
HETATM   35  C1  UNL     1      12.911   7.667  26.830  1.00  0.00     0.005 C
ENDBRANCH  31  34
ENDBRANCH   1  23
TORSDOF 6
ENDMDL