MODEL 3
REMARK VINA RESULT: -8.487850895      1.754      2.719
REMARK  6 active torsions:
REMARK  status: ('A' for Active; 'I' for Inactive)
REMARK       I    between atoms: N1_3  and  C3_5
REMARK       I    between atoms: C3_5  and  N3_10
REMARK    1  A    between atoms: N2_6  and  C4_8
REMARK    2  A    between atoms: N3_10  and  C6_12
REMARK    3  A    between atoms: C6_12  and  C7_13
REMARK       I    between atoms: C7_13  and  N4_15
REMARK    4  A    between atoms: N4_15  and  C8_17
REMARK    5  A    between atoms: C8_17  and  C9_18
REMARK    6  A    between atoms: C8_17  and  C19_28
ROOT
HETATM    1  C1  UNL     1       4.618   9.550  20.886  1.00  0.00     0.037 C
HETATM    2  C2  UNL     1       5.186   9.166  21.878  1.00  0.00     0.015 C
HETATM    3  N1  UNL     1       5.864   8.733  23.021  1.00  0.00    -0.150 N
ATOM      4  H1  UNL     1       6.379   9.425  23.566  1.00  0.00     0.195 HD
HETATM    5  C3  UNL     1       5.876   7.384  23.468  1.00  0.00     0.681 C
HETATM    6  N2  UNL     1       4.814   6.878  23.959  1.00  0.00    -0.226 N
ATOM      7  H2  UNL     1       4.871   5.907  24.266  1.00  0.00     0.177 HD
HETATM    8  N3  UNL     1       7.081   6.653  23.350  1.00  0.00    -0.217 N
ATOM      9  H3  UNL     1       7.517   6.279  24.192  1.00  0.00     0.178 HD
ENDROOT
BRANCH   6  10
HETATM   10  C4  UNL     1       3.552   7.530  24.124  1.00  0.00     0.133 C
HETATM   11  C5  UNL     1       3.091   7.599  25.563  1.00  0.00     0.027 C
ENDBRANCH   6  10
BRANCH   8  12
HETATM   12  C6  UNL     1       7.715   6.419  22.068  1.00  0.00     0.240 C
BRANCH  12  13
HETATM   13  C7  UNL     1       6.795   5.668  21.168  1.00  0.00     0.236 C
HETATM   14  O1  UNL     1       5.939   6.304  20.546  1.00  0.00    -0.272 OA
HETATM   15  N4  UNL     1       6.950   4.281  21.072  1.00  0.00    -0.353 N
ATOM     16  H4  UNL     1       7.692   3.857  21.629  1.00  0.00     0.163 HD
BRANCH  15  17
HETATM   17  C8  UNL     1       6.144   3.384  20.247  1.00  0.00     0.102 C
BRANCH  17  18
HETATM   18  C9  UNL     1       7.020   2.751  19.247  1.00  0.00    -0.018 C
HETATM   19  C10 UNL     1       7.804   1.560  19.700  1.00  0.00     0.016 C
HETATM   20  C11 UNL     1       8.924   1.222  18.731  1.00  0.00    -0.013 C
HETATM   21  C12 UNL     1       9.819   2.360  18.395  1.00  0.00     0.009 C
HETATM   22  C16 UNL     1       8.222   0.774  17.446  1.00  0.00     0.009 C
HETATM   23  C13 UNL     1       8.963   3.448  17.780  1.00  0.00    -0.013 C
HETATM   24  C14 UNL     1       8.245   3.027  16.547  1.00  0.00     0.009 C
HETATM   25  C18 UNL     1       8.000   3.872  18.843  1.00  0.00     0.016 C
HETATM   26  C15 UNL     1       7.345   1.882  16.947  1.00  0.00    -0.013 C
HETATM   27  C17 UNL     1       6.328   2.356  17.960  1.00  0.00     0.016 C
ENDBRANCH  17  18
BRANCH  17  28
HETATM   28  C19 UNL     1       5.293   2.628  21.124  1.00  0.00    -0.011 C
HETATM   29  C20 UNL     1       5.830   1.904  22.320  1.00  0.00     0.013 C
HETATM   30  C21 UNL     1       4.510   1.349  22.897  1.00  0.00     0.006 C
HETATM   31  C22 UNL     1       3.568   1.885  21.888  1.00  0.00    -0.005 C
HETATM   32  C23 UNL     1       4.326   1.584  20.585  1.00  0.00     0.017 C
HETATM   33  C24 UNL     1       4.056   3.316  21.652  1.00  0.00    -0.034 C
HETATM   34  C25 UNL     1       4.124   4.051  22.927  1.00  0.00     0.016 C
HETATM   35  C26 UNL     1       3.179   3.999  20.632  1.00  0.00     0.016 C
ENDBRANCH  17  28
ENDBRANCH  15  17
ENDBRANCH  12  13
ENDBRANCH   8  12
TORSDOF 6
ENDMDL