MODEL 5
REMARK VINA RESULT: -7.217511761      2.185      5.055
REMARK  9 active torsions:
REMARK  status: ('A' for Active; 'I' for Inactive)
REMARK    1  A    between atoms: C2_2  and  C4_4
REMARK    2  A    between atoms: C4_4  and  C5_5
REMARK    3  A    between atoms: N2_9  and  C7_11
REMARK    4  A    between atoms: C13_17  and  C14_18
REMARK    5  A    between atoms: C14_18  and  C15_19
REMARK    6  A    between atoms: C15_19  and  C16_20
REMARK    7  A    between atoms: C17_21  and  C18_22
REMARK    8  A    between atoms: C18_22  and  N3_23
REMARK    9  A    between atoms: C22_27  and  O1_28
ROOT
HETATM    1  C5  UNL     1       7.167   4.309  20.678  1.00  0.00     0.175 C
HETATM    2  N1  UNL     1       7.898   5.299  21.450  1.00  0.00    -0.365 N
ATOM      3  H1  UNL     1       8.916   5.300  21.395  1.00  0.00     0.161 HD
HETATM    4  C6  UNL     1       7.263   6.275  22.284  1.00  0.00     0.097 C
HETATM    5  N2  UNL     1       7.847   6.694  23.297  1.00  0.00    -0.369 N
ATOM      6  H2  UNL     1       8.766   6.271  23.425  1.00  0.00     0.161 HD
HETATM    7  C13 UNL     1       5.911   6.694  21.832  1.00  0.00     0.152 C
HETATM    8  N4  UNL     1       5.123   5.541  21.440  1.00  0.00    -0.348 N
ATOM      9  H4  UNL     1       4.152   5.452  21.738  1.00  0.00     0.163 HD
HETATM   10  C25 UNL     1       5.721   4.544  20.638  1.00  0.00     0.241 C
HETATM   11  O2  UNL     1       4.976   3.862  19.889  1.00  0.00    -0.271 OA
ENDROOT
BRANCH   7  12
HETATM   12  C14 UNL     1       5.981   7.574  20.576  1.00  0.00     0.045 C
BRANCH  12  13
HETATM   13  C15 UNL     1       6.019   9.004  21.073  1.00  0.00     0.096 C
BRANCH  13  14
HETATM   14  C16 UNL     1       4.650   9.316  21.537  1.00  0.00    -0.105 C
HETATM   15  C17 UNL     1       3.543   9.588  21.918  1.00  0.00    -0.079 C
BRANCH  15  16
HETATM   16  C18 UNL     1       2.184   9.951  22.383  1.00  0.00     0.330 C
BRANCH  16  17
HETATM   17  N3  UNL     1       1.665   8.778  23.056  1.00  0.00    -0.061 N
HETATM   18  C19 UNL     1       1.311   7.783  22.040  1.00  0.00     0.273 C
HETATM   19  C20 UNL     1       2.708   8.218  23.862  1.00  0.00     0.240 C
HETATM   20  C21 UNL     1       2.465   8.309  25.337  1.00  0.00     0.059 C
HETATM   21  C22 UNL     1       1.843   9.597  25.769  1.00  0.00     0.121 C
HETATM   22  C23 UNL     1       0.689  10.034  24.924  1.00  0.00     0.059 C
HETATM   23  C24 UNL     1       0.466   9.059  23.799  1.00  0.00     0.240 C
BRANCH  21  24
HETATM   24  O1  UNL     1       2.799  10.619  25.931  1.00  0.00    -0.395 OA
ATOM     25  H1  UNL     1       2.613  11.373  25.383  1.00  0.00     0.210 HD
ENDBRANCH  21  24
ENDBRANCH  16  17
ENDBRANCH  15  16
ENDBRANCH  13  14
ENDBRANCH  12  13
ENDBRANCH   7  12
BRANCH   5  26
HETATM   26  C7  UNL     1       7.527   7.623  24.313  1.00  0.00     0.028 C
HETATM   27  C8  UNL     1       6.134   7.428  24.889  1.00  0.00     0.038 C
HETATM   28  C9  UNL     1       8.513   7.496  25.502  1.00  0.00     0.030 C
HETATM   29  C10 UNL     1       9.701   8.334  25.091  1.00  0.00     0.002 C
HETATM   30  C11 UNL     1       9.251   9.199  23.938  1.00  0.00     0.002 C
HETATM   31  C12 UNL     1       7.732   9.065  23.956  1.00  0.00     0.030 C
ENDBRANCH   5  26
BRANCH   1  32
HETATM   32  C4  UNL     1       7.855   4.205  19.361  1.00  0.00     0.038 C
BRANCH  32  33
HETATM   33  C2  UNL     1       8.731   3.028  19.142  1.00  0.00    -0.020 C
HETATM   34  C1  UNL     1       9.260   2.937  17.720  1.00  0.00     0.009 C
HETATM   35  C3  UNL     1       7.824   1.786  19.300  1.00  0.00     0.009 C
ENDBRANCH  32  33
ENDBRANCH   1  32
TORSDOF 9
ENDMDL