MODEL 5
REMARK VINA RESULT: -4.042646584      8.232      9.716
REMARK  2 active torsions:
REMARK  status: ('A' for Active; 'I' for Inactive)
REMARK    1  A    between atoms: C2_2  and  C3_3
REMARK    2  A    between atoms: C4_4  and  C5_5
ROOT
HETATM    1  C5  UNL     1       4.127  59.257  59.315  1.00  0.00     0.004 C
HETATM    2  C6  UNL     1       3.722  60.038  58.365  1.00  0.00    -0.070 C
HETATM    3  C7  UNL     1       4.668  60.435  57.259  1.00  0.00     0.044 C
HETATM    4  C8  UNL     1       4.291  61.880  56.942  1.00  0.00     0.028 C
HETATM    5  C9  UNL     1       3.802  62.594  58.181  1.00  0.00     0.011 C
HETATM    6  C10 UNL     1       2.381  62.125  58.449  1.00  0.00     0.015 C
HETATM    7  C11 UNL     1       2.368  60.628  58.219  1.00  0.00     0.053 C
HETATM    8  C12 UNL     1       1.903  60.307  56.822  1.00  0.00     0.069 C
HETATM    9  N1  UNL     1       2.198  61.209  55.827  1.00  0.00    -0.381 N
ATOM     10  H1  UNL     1       1.523  61.325  55.070  1.00  0.00     0.164 HD
HETATM   11  C13 UNL     1       3.352  61.966  55.790  1.00  0.00     0.065 C
ENDROOT
BRANCH   1  12
HETATM   12  C4  UNL     1       3.338  58.793  60.439  1.00  0.00     0.000 C
HETATM   13  C3  UNL     1       2.594  57.704  60.398  1.00  0.00    -0.001 C
BRANCH  13  14
HETATM   14  C2  UNL     1       1.804  57.235  61.512  1.00  0.00    -0.010 C
HETATM   15  C1  UNL     1       1.477  57.976  62.532  1.00  0.00     0.011 C
ENDBRANCH  13  14
ENDBRANCH   1  12
TORSDOF 2
ENDMDL