MODEL 5
REMARK VINA RESULT: -6.100534321      1.159      2.702
REMARK  2 active torsions:
REMARK  status: ('A' for Active; 'I' for Inactive)
REMARK    1  A    between atoms: C3_3  and  C4_4
REMARK    2  A    between atoms: C7_10  and  C8_11
ROOT
HETATM    1  C4  UNL     1      10.105  56.672  62.948  1.00  0.00     0.213 C
HETATM    2  N1  UNL     1      10.549  56.276  61.597  1.00  0.00    -0.067 N
ATOM      3  H11 UNL     1      10.165  55.388  61.274  1.00  0.00     0.277 HD
ATOM      4  H12 UNL     1      11.529  56.000  61.543  1.00  0.00     0.277 HD
HETATM    5  C5  UNL     1      10.206  57.408  60.764  1.00  0.00     0.233 C
HETATM    6  C6  UNL     1       8.848  57.818  61.234  1.00  0.00     0.034 C
HETATM    7  C7  UNL     1       8.778  57.272  62.641  1.00  0.00     0.025 C
ENDROOT
BRANCH   7   8
HETATM    8  C8  UNL     1       8.214  58.217  63.629  1.00  0.00    -0.008 C
HETATM    9  C9  UNL     1       8.569  57.653  65.016  1.00  0.00     0.005 C
HETATM   10  C10 UNL     1       7.360  57.832  65.870  1.00  0.00     0.000 C
HETATM   11  C11 UNL     1       6.491  58.779  65.114  1.00  0.00     0.000 C
HETATM   12  C12 UNL     1       6.737  58.353  63.659  1.00  0.00     0.005 C
ENDBRANCH   7   8
BRANCH   1  13
HETATM   13  C3  UNL     1      11.136  57.583  63.454  1.00  0.00     0.002 C
HETATM   14  C2  UNL     1      12.209  57.092  64.028  1.00  0.00    -0.033 C
HETATM   15  C1  UNL     1      12.457  55.636  64.207  1.00  0.00     0.036 C
ENDBRANCH   1  13
TORSDOF 2
ENDMDL