MODEL 5
REMARK VINA RESULT: -4.158318744      1.062      1.217
REMARK  1 active torsions:
REMARK  status: ('A' for Active; 'I' for Inactive)
REMARK    1  A    between atoms: N1_2  and  C2_4
ROOT
HETATM    1  C2  UNL     1       3.665  61.263  57.626  1.00  0.00     0.026 C
HETATM    2  C3  UNL     1       5.080  60.895  58.085  1.00  0.00     0.035 C
HETATM    3  C4  UNL     1       5.097  59.472  58.563  1.00  0.00    -0.011 C
HETATM    4  C5  UNL     1       4.732  58.614  57.350  1.00  0.00     0.009 C
HETATM    5  C6  UNL     1       3.302  58.907  56.954  1.00  0.00    -0.011 C
HETATM    6  C7  UNL     1       2.335  58.735  58.084  1.00  0.00     0.014 C
HETATM    7  C8  UNL     1       2.756  59.629  59.228  1.00  0.00    -0.041 C
HETATM    8  C9  UNL     1       1.712  59.457  60.319  1.00  0.00     0.015 C
HETATM    9  C10 UNL     1       4.124  59.192  59.668  1.00  0.00     0.014 C
HETATM   10  C11 UNL     1       2.794  61.081  58.851  1.00  0.00     0.039 C
HETATM   11  C12 UNL     1       3.217  60.366  56.516  1.00  0.00     0.035 C
ENDROOT
BRANCH   1  12
HETATM   12  N1  UNL     1       3.735  62.613  57.163  1.00  0.00    -0.417 N
HETATM   13  C1  UNL     1       3.342  63.602  58.117  1.00  0.00     0.140 C
ATOM     14  H1  UNL     1       4.044  62.853  56.220  1.00  0.00     0.153 HD
ENDBRANCH   1  12
TORSDOF 1
ENDMDL