MODEL 4
REMARK VINA RESULT: -4.559367397      1.004      2.534
REMARK  1 active torsions:
REMARK  status: ('A' for Active; 'I' for Inactive)
REMARK    1  A    between atoms: C10_10  and  C11_11
ROOT
HETATM    1  C1  UNL     1       3.680  58.090  57.298  1.00  0.00     0.009 C
HETATM    2  C2  UNL     1       2.873  59.146  56.564  1.00  0.00    -0.013 C
HETATM    3  C3  UNL     1       3.736  60.143  55.895  1.00  0.00     0.009 C
HETATM    4  C4  UNL     1       4.853  60.710  56.689  1.00  0.00    -0.013 C
HETATM    5  C5  UNL     1       5.568  59.606  57.430  1.00  0.00     0.009 C
HETATM    6  C6  UNL     1       4.563  58.882  58.270  1.00  0.00    -0.013 C
HETATM    7  C7  UNL     1       3.772  59.740  59.183  1.00  0.00     0.010 C
HETATM    8  C8  UNL     1       2.656  60.507  58.564  1.00  0.00    -0.008 C
HETATM    9  C9  UNL     1       1.895  59.710  57.556  1.00  0.00     0.010 C
HETATM   10  C10 UNL     1       3.065  61.841  57.992  1.00  0.00     0.022 C
HETATM   11  C13 UNL     1       4.516  61.830  57.596  1.00  0.00     0.011 C
ENDROOT
BRANCH  10  12
HETATM   12  C11 UNL     1       2.719  62.976  58.893  1.00  0.00     0.215 A
HETATM   13  C12 UNL     1       2.855  64.368  58.567  1.00  0.00     0.266 A
HETATM   14  N1  UNL     1       1.477  63.774  58.551  1.00  0.00    -0.067 N
ATOM     15  H12 UNL     1       0.706  63.701  57.887  1.00  0.00     0.277 HD
ATOM     16  H11 UNL     1       0.576  63.972  58.987  1.00  0.00     0.277 HD
ENDBRANCH  10  12
TORSDOF 1
ENDMDL