MODEL 2
REMARK VINA RESULT: -4.210076415      1.260      2.485
REMARK  1 active torsions:
REMARK  status: ('A' for Active; 'I' for Inactive)
REMARK    1  A    between atoms: N1_2  and  C2_4
ROOT
HETATM    1  C2  UNL     1       2.754  60.603  58.561  1.00  0.00     0.029 C
HETATM    2  C3  UNL     1       3.608  59.631  59.343  1.00  0.00     0.035 C
HETATM    3  C4  UNL     1       4.805  59.224  58.512  1.00  0.00    -0.012 C
HETATM    4  C5  UNL     1       4.267  58.468  57.320  1.00  0.00     0.009 C
HETATM    5  C6  UNL     1       3.396  59.403  56.528  1.00  0.00    -0.012 C
HETATM    6  C7  UNL     1       4.226  60.587  56.059  1.00  0.00     0.010 C
HETATM    7  C8  UNL     1       4.729  61.325  57.257  1.00  0.00    -0.008 C
HETATM    8  C9  UNL     1       5.629  60.378  58.045  1.00  0.00     0.010 C
HETATM    9  C10 UNL     1       3.642  61.762  58.208  1.00  0.00     0.013 C
HETATM   10  C11 UNL     1       2.900  62.977  57.718  1.00  0.00     0.012 C
HETATM   11  C12 UNL     1       2.239  59.963  57.296  1.00  0.00     0.035 C
ENDROOT
BRANCH   1  12
HETATM   12  N1  UNL     1       1.687  61.064  59.415  1.00  0.00    -0.416 N
HETATM   13  C1  UNL     1       1.482  60.326  60.614  1.00  0.00     0.140 C
ATOM     14  H1  UNL     1       1.114  61.873  59.174  1.00  0.00     0.153 HD
ENDBRANCH   1  12
TORSDOF 1
ENDMDL