MODEL 2
REMARK VINA RESULT: -5.256144320      0.636      1.101
REMARK  3 active torsions:
REMARK  status: ('A' for Active; 'I' for Inactive)
REMARK    1  A    between atoms: C2_2  and  C4_4
REMARK    2  A    between atoms: C4_4  and  N1_5
REMARK    3  A    between atoms: C4_4  and  C5_9
ROOT
HETATM    1  C5  UNL     1       9.796  56.817  63.378  1.00  0.00     0.021 C
HETATM    2  C6  UNL     1      10.595  56.432  62.101  1.00  0.00     0.012 C
HETATM    3  C7  UNL     1      11.975  56.580  62.617  1.00  0.00    -0.006 C
HETATM    4  C8  UNL     1      11.896  57.884  63.423  1.00  0.00     0.011 C
HETATM    5  C9  UNL     1      10.933  57.076  64.278  1.00  0.00     0.000 C
HETATM    6  C10 UNL     1      11.889  55.901  63.961  1.00  0.00    -0.040 C
HETATM    7  C11 UNL     1      11.255  54.558  63.998  1.00  0.00     0.015 C
HETATM    8  C12 UNL     1      13.203  56.000  64.683  1.00  0.00     0.015 C
ENDROOT
BRANCH   1   9
HETATM    9  C4  UNL     1       8.904  57.983  63.056  1.00  0.00     0.191 C
BRANCH   9  10
HETATM   10  C2  UNL     1       7.584  57.933  63.727  1.00  0.00     0.008 C
HETATM   11  C1  UNL     1       6.688  58.982  63.033  1.00  0.00     0.011 C
HETATM   12  C3  UNL     1       7.565  58.305  65.183  1.00  0.00     0.011 C
ENDBRANCH   9  10
BRANCH   9  13
HETATM   13  N1  UNL     1       8.703  57.993  61.604  1.00  0.00    -0.074 N
ATOM     14  H13 UNL     1       8.987  57.116  61.167  1.00  0.00     0.274 HD
ATOM     15  H12 UNL     1       7.715  57.967  61.349  1.00  0.00     0.274 HD
ATOM     16  H11 UNL     1       9.185  58.800  61.207  1.00  0.00     0.274 HD
ENDBRANCH   9  13
ENDBRANCH   1   9
TORSDOF 3
ENDMDL