MODEL 2
REMARK VINA RESULT: -5.572574326      1.290      2.104
REMARK  2 active torsions:
REMARK  status: ('A' for Active; 'I' for Inactive)
REMARK    1  A    between atoms: C2_2  and  C3_3
REMARK    2  A    between atoms: C2_2  and  C7_9
ROOT
HETATM    1  C7  UNL     1       9.807  57.823  63.778  1.00  0.00     0.199 C
HETATM    2  N2  UNL     1      10.021  56.995  64.951  1.00  0.00    -0.066 N
ATOM      3  H21 UNL     1       9.268  56.325  65.104  1.00  0.00     0.278 HD
ATOM      4  H22 UNL     1       9.921  57.514  65.824  1.00  0.00     0.278 HD
HETATM    5  C8  UNL     1      11.310  56.366  64.820  1.00  0.00     0.186 C
HETATM    6  C9  UNL     1      11.154  55.194  63.884  1.00  0.00     0.033 C
HETATM    7  C10 UNL     1      10.732  55.892  62.596  1.00  0.00     0.009 C
HETATM    8  C11 UNL     1      10.889  57.377  62.857  1.00  0.00     0.019 C
HETATM    9  C12 UNL     1      12.049  57.329  63.873  1.00  0.00     0.039 C
ENDROOT
BRANCH   1  10
HETATM   10  C2  UNL     1       8.427  57.732  63.231  1.00  0.00     0.058 C
HETATM   11  C1  UNL     1       8.276  58.819  62.178  1.00  0.00     0.018 C
BRANCH  10  12
HETATM   12  C3  UNL     1       7.480  58.011  64.374  1.00  0.00    -0.012 C
HETATM   13  N1  UNL     1       7.770  58.016  65.606  1.00  0.00    -0.396 N
HETATM   14  C4  UNL     1       6.628  58.321  66.426  1.00  0.00     0.119 C
ATOM     15  H1  UNL     1       8.702  57.827  65.974  1.00  0.00     0.159 HD
HETATM   16  C5  UNL     1       5.461  57.917  65.517  1.00  0.00     0.025 C
HETATM   17  C6  UNL     1       6.046  58.329  64.184  1.00  0.00     0.054 C
ENDBRANCH  10  12
ENDBRANCH   1  10
TORSDOF 2
ENDMDL