MODEL 4
REMARK VINA RESULT: -5.523760575      2.456      4.913
REMARK  2 active torsions:
REMARK  status: ('A' for Active; 'I' for Inactive)
REMARK    1  A    between atoms: N1_2  and  C2_5
REMARK    2  A    between atoms: C2_5  and  C3_6
ROOT
HETATM    1  C3  UNL     1      11.225  56.688  62.567  1.00  0.00    -0.012 A
HETATM    2  C4  UNL     1      10.719  57.330  61.330  1.00  0.00     0.012 C
HETATM    3  C5  UNL     1       9.246  57.437  61.211  1.00  0.00     0.006 C
HETATM    4  C6  UNL     1       8.510  57.650  62.485  1.00  0.00    -0.010 C
HETATM    5  C7  UNL     1       7.471  58.775  62.378  1.00  0.00     0.005 C
HETATM    6  C8  UNL     1       6.587  58.650  63.580  1.00  0.00     0.000 C
HETATM    7  C9  UNL     1       7.287  58.637  64.879  1.00  0.00     0.000 C
HETATM    8  C10 UNL     1       8.619  58.007  64.917  1.00  0.00     0.005 C
HETATM    9  C11 UNL     1       9.392  58.027  63.644  1.00  0.00    -0.006 C
HETATM   10  C12 UNL     1      10.573  57.097  63.804  1.00  0.00     0.001 A
HETATM   11  C13 UNL     1      10.346  55.708  63.327  1.00  0.00     0.017 A
ENDROOT
BRANCH   1  12
HETATM   12  C2  UNL     1      12.681  56.306  62.575  1.00  0.00     0.241 C
BRANCH  12  13
HETATM   13  N1  UNL     1      13.028  55.415  63.642  1.00  0.00    -0.078 N
HETATM   14  C1  UNL     1      13.402  56.232  64.788  1.00  0.00     0.267 C
ATOM     15  H12 UNL     1      13.748  54.742  63.380  1.00  0.00     0.276 HD
ATOM     16  H11 UNL     1      12.291  54.744  63.856  1.00  0.00     0.276 HD
ENDBRANCH  12  13
ENDBRANCH   1  12
TORSDOF 2
ENDMDL