MODEL 4
REMARK VINA RESULT: -4.149422653      0.888      2.736
REMARK  1 active torsions:
REMARK  status: ('A' for Active; 'I' for Inactive)
REMARK    1  A    between atoms: N1_2  and  C2_4
ROOT
HETATM    1  C2  UNL     1       2.659  61.337  58.253  1.00  0.00     0.084 C
HETATM    2  C3  UNL     1       3.969  61.532  57.522  1.00  0.00     0.009 C
HETATM    3  C4  UNL     1       3.902  61.184  56.073  1.00  0.00     0.007 C
HETATM    4  C5  UNL     1       3.333  59.881  55.707  1.00  0.00     0.005 C
HETATM    5  C6  UNL     1       3.260  58.831  56.767  1.00  0.00    -0.014 C
HETATM    6  C7  UNL     1       4.590  58.548  57.423  1.00  0.00     0.009 C
HETATM    7  C8  UNL     1       4.889  59.445  58.583  1.00  0.00    -0.013 C
HETATM    8  C9  UNL     1       5.138  60.867  58.177  1.00  0.00     0.011 C
HETATM    9  C10 UNL     1       3.722  59.433  59.525  1.00  0.00     0.011 C
HETATM   10  C11 UNL     1       2.505  59.993  58.869  1.00  0.00     0.009 C
HETATM   11  C12 UNL     1       2.142  59.018  57.749  1.00  0.00     0.011 C
ENDROOT
BRANCH   1  12
HETATM   12  N1  UNL     1       2.383  62.463  59.061  1.00  0.00    -0.420 N
HETATM   13  C1  UNL     1       2.824  63.733  58.705  1.00  0.00     0.140 C
ATOM     14  H1  UNL     1       1.850  62.342  59.923  1.00  0.00     0.153 HD
ENDBRANCH   1  12
TORSDOF 1
ENDMDL