MODEL 2
REMARK VINA RESULT: -4.847124549      1.528      2.375
REMARK  3 active torsions:
REMARK  status: ('A' for Active; 'I' for Inactive)
REMARK    1  A    between atoms: C2_2  and  N1_3
REMARK    2  A    between atoms: C2_2  and  C3_7
REMARK    3  A    between atoms: C3_7  and  C5_9
ROOT
HETATM    1  C5  UNL     1      10.017  57.641  63.521  1.00  0.00     0.005 C
HETATM    2  C6  UNL     1      10.603  56.467  64.226  1.00  0.00    -0.000 C
HETATM    3  C7  UNL     1      10.043  55.616  63.131  1.00  0.00     0.016 C
HETATM    4  C8  UNL     1      10.587  56.808  62.411  1.00  0.00    -0.032 C
HETATM    5  C9  UNL     1      10.601  57.052  61.063  1.00  0.00     0.016 C
HETATM    6  C10 UNL     1      11.794  56.641  63.303  1.00  0.00    -0.036 C
HETATM    7  C11 UNL     1      12.644  55.438  63.076  1.00  0.00     0.016 C
HETATM    8  C12 UNL     1      12.627  57.861  63.530  1.00  0.00     0.016 C
ENDROOT
BRANCH   1   9
HETATM    9  C3  UNL     1       8.558  57.863  63.568  1.00  0.00     0.017 C
HETATM   10  C4  UNL     1       8.209  58.861  62.452  1.00  0.00     0.012 C
BRANCH   9  11
HETATM   11  C2  UNL     1       8.101  58.529  64.867  1.00  0.00     0.183 C
HETATM   12  C1  UNL     1       6.658  58.167  65.166  1.00  0.00     0.040 C
BRANCH  11  13
HETATM   13  N1  UNL     1       8.880  58.014  65.994  1.00  0.00    -0.075 N
ATOM     14  H13 UNL     1       9.525  57.267  65.738  1.00  0.00     0.274 HD
ATOM     15  H12 UNL     1       9.582  58.669  66.339  1.00  0.00     0.274 HD
ATOM     16  H11 UNL     1       8.196  57.740  66.700  1.00  0.00     0.274 HD
ENDBRANCH  11  13
ENDBRANCH   9  11
ENDBRANCH   1   9
TORSDOF 3
ENDMDL