MODEL 5
REMARK VINA RESULT: -5.831466324      2.064      3.258
REMARK  10 active torsions:
REMARK  status: ('A' for Active; 'I' for Inactive)
REMARK    1  A    between atoms: O1_2  and  N1_3
REMARK    2  A    between atoms: C2_5  and  O2_6
REMARK    3  A    between atoms: C2_5  and  C3_8
REMARK    4  A    between atoms: C3_8  and  N2_9
REMARK    5  A    between atoms: N2_9  and  C4_11
REMARK    6  A    between atoms: C4_11  and  O3_15
REMARK    7  A    between atoms: O3_15  and  C5_16
REMARK    8  A    between atoms: C6_18  and  S1_19
REMARK    9  A    between atoms: C7_22  and  C8_23
REMARK   10  A    between atoms: C8_23  and  O6_24
ROOT
HETATM    1  C4  UNL     1      42.259  60.621 173.606  1.00  0.00     0.215 C
HETATM    2  N3  UNL     1      42.070  60.752 174.888  1.00  0.00    -0.365 N
ATOM      3  H31 UNL     1      41.120  60.877 175.239  1.00  0.00     0.159 HD
ATOM      4  H32 UNL     1      42.906  60.721 175.472  1.00  0.00     0.159 HD
ENDROOT
BRANCH   1   5
HETATM    5  N2  UNL     1      43.580  60.448 173.118  1.00  0.00    -0.349 N
ATOM      6  H2  UNL     1      44.268  61.167 173.345  1.00  0.00     0.163 HD
BRANCH   5   7
HETATM    7  C3  UNL     1      44.013  59.337 172.329  1.00  0.00     0.209 C
BRANCH   7   8
HETATM    8  C2  UNL     1      43.322  58.104 172.767  1.00  0.00     0.153 C
HETATM    9  N1  UNL     1      43.810  57.361 173.695  1.00  0.00    -0.248 N
ATOM     10  H1  UNL     1      44.692  57.652 174.119  1.00  0.00     0.196 HD
BRANCH   9  11
HETATM   11  O1  UNL     1      43.235  56.213 174.153  1.00  0.00    -0.283 OA
HETATM   12  C1  UNL     1      42.355  56.261 175.239  1.00  0.00     0.237 C
ENDBRANCH   9  11
BRANCH   8  13
HETATM   13  O2  UNL     1      42.108  57.693 172.192  1.00  0.00    -0.347 OA
ATOM     14  H2  UNL     1      41.509  57.209 172.747  1.00  0.00     0.219 HD
ENDBRANCH   8  13
ENDBRANCH   7   8
ENDBRANCH   5   7
ENDBRANCH   1   5
BRANCH   1  15
HETATM   15  O3  UNL     1      41.141  60.663 172.825  1.00  0.00    -0.288 OA
BRANCH  15  16
HETATM   16  C5  UNL     1      41.016  61.335 171.619  1.00  0.00     0.304 C
HETATM   17  O4  UNL     1      41.999  62.320 171.421  1.00  0.00    -0.318 OA
HETATM   18  C6  UNL     1      41.874  62.516 170.043  1.00  0.00     0.340 C
HETATM   19  O5  UNL     1      41.853  61.263 169.523  1.00  0.00    -0.339 OA
HETATM   20  C7  UNL     1      41.051  60.524 170.375  1.00  0.00     0.204 C
BRANCH  18  21
HETATM   21  S1  UNL     1      43.197  63.561 169.398  1.00  0.00    -0.025 SA
HETATM   22  S2  UNL     1      42.600  64.321 167.504  1.00  0.00    -0.008 SA
ENDBRANCH  18  21
BRANCH  20  23
HETATM   23  C8  UNL     1      39.688  60.355 169.712  1.00  0.00     0.201 C
BRANCH  23  24
HETATM   24  O6  UNL     1      39.767  60.182 168.338  1.00  0.00    -0.398 OA
ATOM     25  H6  UNL     1      39.593  59.289 168.062  1.00  0.00     0.209 HD
ENDBRANCH  23  24
ENDBRANCH  20  23
ENDBRANCH  15  16
ENDBRANCH   1  15
TORSDOF 10
ENDMDL