MODEL 4
REMARK VINA RESULT: -7.851159703      2.574      4.325
REMARK  7 active torsions:
REMARK  status: ('A' for Active; 'I' for Inactive)
REMARK    1  A    between atoms: N1_1  and  N2_4
REMARK    2  A    between atoms: N3_6  and  N4_8
REMARK       I    between atoms: N4_8  and  C1_10
REMARK       I    between atoms: C1_10  and  N6_15
REMARK    3  A    between atoms: N5_11  and  O1_13
REMARK    4  A    between atoms: N6_15  and  N7_17
REMARK    5  A    between atoms: C2_19  and  C3_20
REMARK    6  A    between atoms: C5_22  and  N8_23
REMARK    7  A    between atoms: C7_27  and  N9_28
ROOT
HETATM    1  N4  UNL     1      41.978  65.392 167.179  1.00  0.00    -0.113 N
ATOM      2  H4  UNL     1      41.447  66.050 167.750  1.00  0.00     0.207 HD
HETATM    3  C1  UNL     1      42.844  64.424 167.802  1.00  0.00     0.732 C
HETATM    4  N5  UNL     1      43.926  64.788 168.400  1.00  0.00    -0.096 N
ATOM      5  H5  UNL     1      44.166  65.780 168.428  1.00  0.00     0.213 HD
HETATM    6  N6  UNL     1      42.527  63.052 167.770  1.00  0.00    -0.129 N
ATOM      7  H6  UNL     1      42.203  62.613 166.908  1.00  0.00     0.205 HD
ENDROOT
BRANCH   6   8
HETATM    8  N7  UNL     1      42.663  62.313 168.931  1.00  0.00    -0.297 N
HETATM    9  C2  UNL     1      41.633  62.113 169.666  1.00  0.00     0.119 C
ATOM     10  H7  UNL     1      43.570  61.932 169.198  1.00  0.00     0.186 HD
BRANCH   9  11
HETATM   11  C3  UNL     1      41.784  61.330 170.894  1.00  0.00    -0.015 A
HETATM   12  C4  UNL     1      40.728  61.112 171.726  1.00  0.00     0.049 A
HETATM   13  C5  UNL     1      40.913  60.362 172.885  1.00  0.00     0.106 A
HETATM   14  C6  UNL     1      42.155  59.846 173.188  1.00  0.00     0.072 A
HETATM   15  C7  UNL     1      43.235  60.056 172.357  1.00  0.00     0.106 A
HETATM   16  C8  UNL     1      43.031  60.794 171.226  1.00  0.00     0.049 A
BRANCH  13  17
HETATM   17  N8  UNL     1      39.799  60.145 173.741  1.00  0.00    -0.116 N
HETATM   18  O2  UNL     1      38.643  60.071 173.284  1.00  0.00    -0.532 OA
HETATM   19  O3  UNL     1      39.979  60.012 175.096  1.00  0.00    -0.532 OA
ENDBRANCH  13  17
BRANCH  15  20
HETATM   20  N9  UNL     1      44.501  59.507 172.702  1.00  0.00    -0.116 N
HETATM   21  O4  UNL     1      44.993  59.605 173.842  1.00  0.00    -0.532 OA
HETATM   22  O5  UNL     1      45.245  58.830 171.767  1.00  0.00    -0.532 OA
ENDBRANCH  15  20
ENDBRANCH   9  11
ENDBRANCH   6   8
BRANCH   1  23
HETATM   23  N3  UNL     1      41.872  65.422 165.791  1.00  0.00    -0.214 N
HETATM   24  N2  UNL     1      41.568  66.490 165.148  1.00  0.00    -0.234 N
ATOM     25  H2  UNL     1      41.500  66.476 164.131  1.00  0.00     0.209 HD
ATOM     26  H3  UNL     1      42.041  64.564 165.266  1.00  0.00     0.210 HD
BRANCH  24  27
HETATM   27  N1  UNL     1      41.332  67.659 165.848  1.00  0.00    -0.330 N
ATOM     28  H12 UNL     1      42.082  68.066 166.408  1.00  0.00     0.178 HD
ATOM     29  H11 UNL     1      40.414  68.098 165.794  1.00  0.00     0.178 HD
ENDBRANCH  24  27
ENDBRANCH   1  23
BRANCH   4  30
HETATM   30  O1  UNL     1      44.751  63.895 168.991  1.00  0.00    -0.276 OA
ATOM     31  H1  UNL     1      44.423  63.102 169.399  1.00  0.00     0.245 HD
ENDBRANCH   4  30
TORSDOF 7
ENDMDL