MODEL 2
REMARK VINA RESULT: -5.933065478      1.912      2.256
REMARK  9 active torsions:
REMARK  status: ('A' for Active; 'I' for Inactive)
REMARK    1  A    between atoms: N1_1  and  C1_5
REMARK    2  A    between atoms: C4_8  and  O1_9
REMARK    3  A    between atoms: C4_8  and  O2_11
REMARK    4  A    between atoms: C5_13  and  S1_14
REMARK    5  A    between atoms: S1_14  and  C6_15
REMARK    6  A    between atoms: C6_15  and  C7_16
REMARK    7  A    between atoms: C7_16  and  S2_17
REMARK    8  A    between atoms: S2_17  and  S3_18
REMARK    9  A    between atoms: S3_18  and  C8_19
ROOT
HETATM    1  C1  UNL     1      40.059  61.604 169.956  1.00  0.00     0.202 C
HETATM    2  C2  UNL     1      40.885  61.500 168.697  1.00  0.00     0.039 C
HETATM    3  C3  UNL     1      42.327  61.452 169.128  1.00  0.00     0.071 C
HETATM    4  C4  UNL     1      42.311  61.655 170.636  1.00  0.00     0.173 C
HETATM    5  C5  UNL     1      40.989  61.051 171.009  1.00  0.00     0.139 C
ENDROOT
BRANCH   5   6
HETATM    6  S1  UNL     1      40.439  61.532 172.656  1.00  0.00    -0.156 SA
BRANCH   6   7
HETATM    7  C6  UNL     1      39.137  60.397 173.208  1.00  0.00     0.085 C
BRANCH   7   8
HETATM    8  C7  UNL     1      39.362  60.095 174.663  1.00  0.00     0.096 C
BRANCH   8   9
HETATM    9  S2  UNL     1      41.132  59.902 175.041  1.00  0.00    -0.089 SA
BRANCH   9  10
HETATM   10  S3  UNL     1      41.902  58.122 174.188  1.00  0.00    -0.019 SA
BRANCH  10  11
HETATM   11  C8  UNL     1      43.334  58.442 173.171  1.00  0.00     0.180 C
HETATM   12  N2  UNL     1      44.309  59.252 173.406  1.00  0.00    -0.264 N
HETATM   13  N3  UNL     1      45.223  59.182 172.329  1.00  0.00    -0.007 NA
ATOM     14  H2  UNL     1      44.405  59.845 174.230  1.00  0.00     0.186 HD
HETATM   15  N4  UNL     1      44.904  58.109 171.505  1.00  0.00    -0.007 NA
HETATM   16  N5  UNL     1      43.586  57.814 171.922  1.00  0.00    -0.264 N
ATOM     17  H5  UNL     1      42.919  57.240 171.406  1.00  0.00     0.186 HD
ENDBRANCH  10  11
ENDBRANCH   9  10
ENDBRANCH   8   9
ENDBRANCH   7   8
ENDBRANCH   6   7
ENDBRANCH   5   6
BRANCH   1  18
HETATM   18  N1  UNL     1      38.867  60.785 169.891  1.00  0.00    -0.074 N
ATOM     19  H13 UNL     1      39.093  59.821 169.648  1.00  0.00     0.274 HD
ATOM     20  H12 UNL     1      38.474  60.629 170.818  1.00  0.00     0.274 HD
ATOM     21  H11 UNL     1      38.172  61.173 169.254  1.00  0.00     0.274 HD
ENDBRANCH   1  18
BRANCH   4  22
HETATM   22  O1  UNL     1      42.306  63.015 170.877  1.00  0.00    -0.364 OA
ATOM     23  H1  UNL     1      41.433  63.255 171.164  1.00  0.00     0.213 HD
ENDBRANCH   4  22
BRANCH   4  24
HETATM   24  O2  UNL     1      43.386  61.005 171.236  1.00  0.00    -0.364 OA
ATOM     25  H2  UNL     1      43.127  60.152 171.561  1.00  0.00     0.213 HD
ENDBRANCH   4  24
TORSDOF 9
ENDMDL