MODEL 5
REMARK VINA RESULT: -6.160484456      5.665      8.493
REMARK  8 active torsions:
REMARK  status: ('A' for Active; 'I' for Inactive)
REMARK    1  A    between atoms: N1_1  and  N2_4
REMARK    2  A    between atoms: N2_4  and  C1_6
REMARK    3  A    between atoms: C2_10  and  O1_11
REMARK    4  A    between atoms: O1_11  and  N4_12
REMARK    5  A    between atoms: C4_15  and  O2_16
REMARK    6  A    between atoms: C7_21  and  S1_22
REMARK    7  A    between atoms: S1_22  and  C8_23
REMARK    8  A    between atoms: C8_23  and  C9_24
ROOT
HETATM    1  N4  UNL     1      41.419  60.805 174.606  1.00  0.00    -0.263 N
ATOM      2  H4  UNL     1      41.134  61.763 174.811  1.00  0.00     0.194 HD
HETATM    3  C3  UNL     1      41.543  60.514 173.367  1.00  0.00     0.096 C
HETATM    4  C4  UNL     1      41.919  59.297 172.644  1.00  0.00     0.309 C
HETATM    5  O3  UNL     1      41.376  59.378 171.370  1.00  0.00    -0.348 OA
HETATM    6  C5  UNL     1      40.815  60.611 171.179  1.00  0.00     0.163 C
HETATM    7  C6  UNL     1      41.470  61.286 169.969  1.00  0.00     0.078 C
HETATM    8  C7  UNL     1      41.942  62.576 170.572  1.00  0.00     0.186 C
HETATM    9  O4  UNL     1      42.444  62.128 171.819  1.00  0.00    -0.362 OA
HETATM   10  C10 UNL     1      41.271  61.509 172.301  1.00  0.00     0.204 C
ENDROOT
BRANCH   1  11
HETATM   11  O1  UNL     1      41.615  60.010 175.677  1.00  0.00    -0.218 OA
BRANCH  11  12
HETATM   12  C2  UNL     1      40.535  59.304 176.263  1.00  0.00     0.500 C
HETATM   13  N3  UNL     1      40.656  57.876 176.212  1.00  0.00     0.023 N
HETATM   14  C1  UNL     1      40.021  57.965 177.540  1.00  0.00     0.452 C
ATOM     15  H32 UNL     1      41.539  57.395 176.045  1.00  0.00     0.288 HD
ATOM     16  H31 UNL     1      40.282  57.310 175.450  1.00  0.00     0.288 HD
HETATM   17  O5  UNL     1      40.610  59.220 177.659  1.00  0.00    -0.286 OA
BRANCH  14  18
HETATM   18  N2  UNL     1      38.606  57.910 177.378  1.00  0.00    -0.291 N
ATOM     19  H2  UNL     1      38.174  57.755 176.467  1.00  0.00     0.184 HD
BRANCH  18  20
HETATM   20  N1  UNL     1      37.856  58.079 178.521  1.00  0.00    -0.346 N
ATOM     21  H12 UNL     1      38.303  58.223 179.426  1.00  0.00     0.176 HD
ATOM     22  H11 UNL     1      36.843  58.050 178.403  1.00  0.00     0.176 HD
ENDBRANCH  18  20
ENDBRANCH  14  18
ENDBRANCH  11  12
ENDBRANCH   1  11
BRANCH   4  23
HETATM   23  O2  UNL     1      41.484  58.117 173.220  1.00  0.00    -0.366 OA
ATOM     24  H2  UNL     1      42.172  57.565 173.573  1.00  0.00     0.213 HD
ENDBRANCH   4  23
BRANCH   8  25
HETATM   25  S1  UNL     1      43.249  63.403 169.708  1.00  0.00    -0.135 SA
BRANCH  25  26
HETATM   26  C8  UNL     1      42.789  64.639 168.531  1.00  0.00     0.108 C
BRANCH  26  27
HETATM   27  C9  UNL     1      42.233  64.159 167.228  1.00  0.00     0.232 C
HETATM   28  F1  UNL     1      41.060  63.440 167.390  1.00  0.00    -0.255 F
ENDBRANCH  26  27
ENDBRANCH  25  26
ENDBRANCH   8  25
TORSDOF 8
ENDMDL