MODEL 5
REMARK VINA RESULT: -7.880661147      2.691      8.099
REMARK  7 active torsions:
REMARK  status: ('A' for Active; 'I' for Inactive)
REMARK    1  A    between atoms: N1_1  and  C1_4
REMARK    2  A    between atoms: C2_9  and  C3_10
REMARK       I    between atoms: C3_10  and  N4_12
REMARK    3  A    between atoms: N4_12  and  N5_14
REMARK    4  A    between atoms: N5_14  and  C4_16
REMARK    5  A    between atoms: C7_19  and  N6_20
REMARK    6  A    between atoms: C9_24  and  N7_25
REMARK    7  A    between atoms: N7_25  and  O4_29
ROOT
HETATM    1  N5  UNL     1      41.875  60.454 174.675  1.00  0.00    -0.295 N
ATOM      2  H5  UNL     1      42.035  61.141 175.411  1.00  0.00     0.187 HD
ENDROOT
BRANCH   1   3
HETATM    3  N4  UNL     1      41.527  59.218 175.131  1.00  0.00    -0.262 N
HETATM    4  C3  UNL     1      40.607  59.011 176.204  1.00  0.00     0.312 C
HETATM    5  O1  UNL     1      40.127  60.042 176.734  1.00  0.00    -0.262 OA
ATOM      6  H4  UNL     1      41.943  58.402 174.683  1.00  0.00     0.190 HD
BRANCH   4   7
HETATM    7  C2  UNL     1      40.244  57.678 176.664  1.00  0.00     0.236 A
HETATM    8  N3  UNL     1      39.062  57.216 177.073  1.00  0.00    -0.272 N
HETATM    9  N2  UNL     1      39.240  55.959 177.381  1.00  0.00    -0.263 N
ATOM     10  H3  UNL     1      38.190  57.742 177.133  1.00  0.00     0.189 HD
HETATM   11  C1  UNL     1      40.510  55.590 177.180  1.00  0.00     0.238 A
ATOM     12  H2  UNL     1      38.507  55.340 177.729  1.00  0.00     0.190 HD
HETATM   13  O5  UNL     1      41.099  56.685 176.736  1.00  0.00    -0.254 OA
BRANCH  11  14
HETATM   14  N1  UNL     1      41.069  54.454 177.363  1.00  0.00    -0.364 N
ATOM     15  H12 UNL     1      41.786  54.035 176.773  1.00  0.00     0.159 HD
ATOM     16  H11 UNL     1      40.921  53.767 178.102  1.00  0.00     0.159 HD
ENDBRANCH  11  14
ENDBRANCH   4   7
ENDBRANCH   1   3
BRANCH   1  17
HETATM   17  C4  UNL     1      42.053  60.953 173.372  1.00  0.00     0.079 A
HETATM   18  C5  UNL     1      41.224  61.991 172.920  1.00  0.00     0.036 A
HETATM   19  C6  UNL     1      41.298  62.516 171.659  1.00  0.00     0.038 A
HETATM   20  C7  UNL     1      42.212  62.039 170.745  1.00  0.00     0.105 A
HETATM   21  C8  UNL     1      43.027  61.027 171.169  1.00  0.00     0.072 A
HETATM   22  C9  UNL     1      42.957  60.485 172.459  1.00  0.00     0.111 A
BRANCH  20  23
HETATM   23  N6  UNL     1      42.279  62.600 169.434  1.00  0.00    -0.116 N
HETATM   24  O2  UNL     1      42.681  63.758 169.217  1.00  0.00    -0.532 OA
HETATM   25  O3  UNL     1      41.880  61.844 168.363  1.00  0.00    -0.532 OA
ENDBRANCH  20  23
BRANCH  22  26
HETATM   26  N7  UNL     1      43.852  59.420 172.742  1.00  0.00    -0.168 N
HETATM   27  N8  UNL     1      43.658  58.299 172.208  1.00  0.00    -0.319 N
ATOM     28  H82 UNL     1      42.892  58.139 171.554  1.00  0.00     0.179 HD
ATOM     29  H81 UNL     1      44.302  57.535 172.412  1.00  0.00     0.179 HD
BRANCH  26  30
HETATM   30  O4  UNL     1      44.873  59.634 173.614  1.00  0.00    -0.268 OA
ATOM     31  H4  UNL     1      44.671  59.915 174.499  1.00  0.00     0.247 HD
ENDBRANCH  26  30
ENDBRANCH  22  26
ENDBRANCH   1  17
TORSDOF 7
ENDMDL