MODEL 5
REMARK VINA RESULT: -7.237613886      4.124      5.787
REMARK  7 active torsions:
REMARK  status: ('A' for Active; 'I' for Inactive)
REMARK    1  A    between atoms: N1_2  and  C1_4
REMARK    2  A    between atoms: C4_7  and  N2_8
REMARK    3  A    between atoms: N2_8  and  C5_10
REMARK    4  A    between atoms: C6_12  and  C7_13
REMARK    5  A    between atoms: C7_13  and  O4_14
REMARK    6  A    between atoms: C8_19  and  O5_20
REMARK    7  A    between atoms: C10_23  and  N4_24
ROOT
HETATM    1  N2  UNL     1      39.033  61.127 172.180  1.00  0.00    -0.360 N
ATOM      2  H2  UNL     1      38.855  61.982 172.706  1.00  0.00     0.162 HD
ENDROOT
BRANCH   1   3
HETATM    3  C4  UNL     1      40.336  60.596 172.282  1.00  0.00     0.032 A
HETATM    4  C3  UNL     1      41.402  61.368 171.898  1.00  0.00     0.032 A
HETATM    5  C2  UNL     1      42.683  60.929 171.965  1.00  0.00     0.041 A
HETATM    6  C1  UNL     1      42.988  59.630 172.442  1.00  0.00     0.136 A
HETATM    7  C10 UNL     1      41.950  58.845 172.829  1.00  0.00     0.138 A
HETATM    8  C9  UNL     1      40.634  59.342 172.743  1.00  0.00     0.067 A
BRANCH   6   9
HETATM    9  N1  UNL     1      44.374  59.299 172.505  1.00  0.00    -0.113 N
HETATM   10  O1  UNL     1      44.988  59.556 173.607  1.00  0.00    -0.532 OA
HETATM   11  O2  UNL     1      45.087  58.740 171.519  1.00  0.00    -0.532 OA
ENDBRANCH   6   9
BRANCH   7  12
HETATM   12  N4  UNL     1      42.081  57.557 173.362  1.00  0.00    -0.113 N
HETATM   13  O6  UNL     1      42.255  56.608 172.501  1.00  0.00    -0.532 OA
HETATM   14  O7  UNL     1      42.047  57.108 174.624  1.00  0.00    -0.532 OA
ENDBRANCH   7  12
ENDBRANCH   1   3
BRANCH   1  15
HETATM   15  C5  UNL     1      37.946  60.618 171.440  1.00  0.00     0.280 C
HETATM   16  O3  UNL     1      37.936  59.237 171.243  1.00  0.00    -0.328 OA
HETATM   17  C6  UNL     1      36.811  59.070 170.442  1.00  0.00     0.349 C
HETATM   18  N3  UNL     1      36.672  60.251 169.608  1.00  0.00    -0.016 N
HETATM   19  C8  UNL     1      37.837  61.076 170.003  1.00  0.00     0.371 C
ATOM     20  H32 UNL     1      36.604  60.061 168.608  1.00  0.00     0.283 HD
ATOM     21  H31 UNL     1      35.771  60.722 169.684  1.00  0.00     0.283 HD
BRANCH  17  22
HETATM   22  C7  UNL     1      35.564  58.868 171.284  1.00  0.00     0.225 C
BRANCH  22  23
HETATM   23  O4  UNL     1      35.491  57.570 171.762  1.00  0.00    -0.397 OA
ATOM     24  H4  UNL     1      35.630  57.544 172.701  1.00  0.00     0.209 HD
ENDBRANCH  22  23
ENDBRANCH  17  22
BRANCH  19  25
HETATM   25  O5  UNL     1      38.872  60.643 169.199  1.00  0.00    -0.366 OA
ATOM     26  H5  UNL     1      39.479  61.330 168.949  1.00  0.00     0.212 HD
ENDBRANCH  19  25
ENDBRANCH   1  15
TORSDOF 7
ENDMDL