MODEL 2
REMARK VINA RESULT: -8.334377710      3.257      5.666
REMARK  6 active torsions:
REMARK  status: ('A' for Active; 'I' for Inactive)
REMARK    1  A    between atoms: C2_3  and  C3_4
REMARK    2  A    between atoms: N2_5  and  N3_7
REMARK    3  A    between atoms: N3_7  and  C4_9
REMARK    4  A    between atoms: C6_19  and  C7_20
REMARK    5  A    between atoms: C10_26  and  N9_27
REMARK    6  A    between atoms: N9_27  and  N10_29
ROOT
HETATM    1  N1  UNL     1      41.957  57.167 172.710  1.00  0.00    -0.191 NA
HETATM    2  C1  UNL     1      42.124  58.319 172.576  1.00  0.00     0.101 C
HETATM    3  C2  UNL     1      42.354  59.716 172.432  1.00  0.00     0.062 C
HETATM    4  C6  UNL     1      41.660  60.600 173.096  1.00  0.00     0.037 C
ENDROOT
BRANCH   3   5
HETATM    5  C3  UNL     1      43.411  60.181 171.507  1.00  0.00     0.130 C
HETATM    6  N2  UNL     1      43.239  60.752 170.409  1.00  0.00    -0.296 N
ATOM      7  H2  UNL     1      44.113  60.987 169.937  1.00  0.00     0.186 HD
BRANCH   6   8
HETATM    8  N3  UNL     1      42.137  61.126 169.711  1.00  0.00    -0.131 N
ATOM      9  H3  UNL     1      41.283  60.572 169.773  1.00  0.00     0.205 HD
BRANCH   8  10
HETATM   10  C4  UNL     1      42.170  62.289 168.894  1.00  0.00     0.713 A
HETATM   11  N4  UNL     1      41.226  62.499 168.051  1.00  0.00    -0.116 N
HETATM   12  N5  UNL     1      41.218  63.643 167.216  1.00  0.00    -0.228 N
ATOM     13  H4  UNL     1      40.464  61.825 167.980  1.00  0.00     0.207 HD
HETATM   14  N6  UNL     1      42.264  64.552 167.324  1.00  0.00    -0.281 N
ATOM     15  H5  UNL     1      40.460  63.797 166.551  1.00  0.00     0.209 HD
HETATM   16  C5  UNL     1      43.305  64.311 168.259  1.00  0.00     0.216 A
ATOM     17  H6  UNL     1      42.284  65.386 166.736  1.00  0.00     0.189 HD
HETATM   18  N7  UNL     1      43.230  63.242 168.979  1.00  0.00    -0.184 N
ATOM     19  H7  UNL     1      43.976  63.067 169.652  1.00  0.00     0.185 HD
ENDBRANCH   8  10
ENDBRANCH   6   8
ENDBRANCH   3   5
BRANCH   4  20
HETATM   20  C7  UNL     1      40.592  60.309 174.038  1.00  0.00    -0.017 A
HETATM   21  C8  UNL     1      39.278  60.358 173.631  1.00  0.00     0.102 A
HETATM   22  N8  UNL     1      38.327  60.057 174.544  1.00  0.00    -0.331 N
HETATM   23  C9  UNL     1      38.619  59.718 175.815  1.00  0.00     0.273 A
ATOM     24  H8  UNL     1      37.349  60.087 174.258  1.00  0.00     0.168 HD
HETATM   25  O1  UNL     1      37.703  59.437 176.658  1.00  0.00    -0.266 OA
HETATM   26  C10 UNL     1      39.914  59.658 176.263  1.00  0.00     0.118 A
HETATM   27  C11 UNL     1      40.906  59.957 175.362  1.00  0.00     0.049 A
BRANCH  26  28
HETATM   28  N9  UNL     1      40.209  59.297 177.626  1.00  0.00    -0.281 N
ATOM     29  H9  UNL     1      40.541  58.358 177.849  1.00  0.00     0.188 HD
BRANCH  28  30
HETATM   30  N10 UNL     1      40.040  60.231 178.628  1.00  0.00    -0.249 N
HETATM   31  N11 UNL     1      40.821  60.199 179.616  1.00  0.00    -0.331 N
ATOM     32 2H11 UNL     1      41.556  59.493 179.660  1.00  0.00     0.178 HD
ATOM     33 1H11 UNL     1      40.696  60.890 180.357  1.00  0.00     0.178 HD
ATOM     34  H10 UNL     1      39.300  60.930 178.570  1.00  0.00     0.207 HD
ENDBRANCH  28  30
ENDBRANCH  26  28
ENDBRANCH   4  20
TORSDOF 6
ENDMDL