MODEL 5
REMARK VINA RESULT: -6.359032536      2.636      6.182
REMARK  8 active torsions:
REMARK  status: ('A' for Active; 'I' for Inactive)
REMARK    1  A    between atoms: O1_2  and  C2_3
REMARK    2  A    between atoms: C2_3  and  C3_5
REMARK    3  A    between atoms: C4_6  and  O3_7
REMARK    4  A    between atoms: C4_6  and  C10_21
REMARK    5  A    between atoms: O3_7  and  C5_8
REMARK    6  A    between atoms: C7_15  and  C8_16
REMARK    7  A    between atoms: C8_16  and  O5_18
REMARK    8  A    between atoms: C10_21  and  O7_22
ROOT
HETATM    1  C5  UNL     1      42.278  62.183 171.414  1.00  0.00     0.378 C
HETATM    2  N1  UNL     1      40.931  61.731 171.129  1.00  0.00    -0.329 N
ATOM      3  H1  UNL     1      40.095  61.878 171.694  1.00  0.00     0.165 HD
HETATM    4  C6  UNL     1      41.022  61.040 169.892  1.00  0.00     0.114 C
HETATM    5  N2  UNL     1      40.196  60.174 169.449  1.00  0.00    -0.386 N
ATOM      6  H21 UNL     1      40.262  59.677 168.561  1.00  0.00     0.157 HD
ATOM      7  H22 UNL     1      39.341  59.819 169.878  1.00  0.00     0.157 HD
HETATM    8  C7  UNL     1      42.266  61.557 169.266  1.00  0.00     0.292 C
HETATM    9  O6  UNL     1      43.061  61.820 170.344  1.00  0.00    -0.321 OA
ENDROOT
BRANCH   1  10
HETATM   10  O3  UNL     1      42.724  61.502 172.549  1.00  0.00    -0.303 OA
BRANCH  10  11
HETATM   11  C4  UNL     1      41.940  60.558 173.242  1.00  0.00     0.096 C
HETATM   12  C3  UNL     1      40.982  60.977 174.000  1.00  0.00     0.118 C
BRANCH  12  13
HETATM   13  C2  UNL     1      40.049  60.235 174.804  1.00  0.00     0.284 C
HETATM   14  O2  UNL     1      38.878  59.915 174.447  1.00  0.00    -0.260 OA
BRANCH  13  15
HETATM   15  O1  UNL     1      40.432  59.813 176.098  1.00  0.00    -0.323 OA
HETATM   16  C1  UNL     1      40.402  58.429 176.359  1.00  0.00     0.213 C
ENDBRANCH  13  15
ENDBRANCH  12  13
BRANCH  11  17
HETATM   17  C10 UNL     1      42.320  59.163 173.013  1.00  0.00     0.247 C
HETATM   18  S1  UNL     1      44.058  59.028 172.460  1.00  0.00    -0.056 SA
BRANCH  17  19
HETATM   19  O7  UNL     1      41.577  58.639 171.914  1.00  0.00    -0.378 OA
ATOM     20  H7  UNL     1      42.015  57.868 171.572  1.00  0.00     0.211 HD
ENDBRANCH  17  19
ENDBRANCH  11  17
ENDBRANCH  10  11
ENDBRANCH   1  10
BRANCH   8  21
HETATM   21  C8  UNL     1      41.933  62.824 168.545  1.00  0.00     0.295 C
HETATM   22  O4  UNL     1      41.074  62.825 167.624  1.00  0.00    -0.262 OA
BRANCH  21  23
HETATM   23  O5  UNL     1      42.539  64.028 168.851  1.00  0.00    -0.324 OA
HETATM   24  C9  UNL     1      43.841  64.368 168.405  1.00  0.00     0.213 C
ENDBRANCH  21  23
ENDBRANCH   8  21
TORSDOF 8
ENDMDL