MODEL 1
REMARK VINA RESULT: -6.281612569      0.000      0.000
REMARK  10 active torsions:
REMARK  status: ('A' for Active; 'I' for Inactive)
REMARK    1  A    between atoms: N1_1  and  C1_5
REMARK    2  A    between atoms: C1_5  and  O1_6
REMARK    3  A    between atoms: O1_6  and  C2_7
REMARK       I    between atoms: C2_7  and  N2_9
REMARK    4  A    between atoms: N2_9  and  N3_10
REMARK    5  A    between atoms: N2_9  and  C3_14
REMARK    6  A    between atoms: N3_10  and  O3_12
REMARK    7  A    between atoms: C4_16  and  C5_17
REMARK    8  A    between atoms: C5_17  and  S1_18
REMARK    9  A    between atoms: C6_20  and  O5_21
REMARK   10  A    between atoms: C7_23  and  O6_24
ROOT
HETATM    1  C2  UNL     1      42.354  58.494 173.682  1.00  0.00     0.387 C
HETATM    2  O2  UNL     1      42.577  57.277 173.972  1.00  0.00    -0.236 OA
HETATM    3  N2  UNL     1      43.078  59.152 172.654  1.00  0.00    -0.184 N
ENDROOT
BRANCH   3   4
HETATM    4  N3  UNL     1      44.047  58.432 171.965  1.00  0.00    -0.201 N
ATOM      5  H3  UNL     1      43.762  57.561 171.518  1.00  0.00     0.216 HD
BRANCH   4   6
HETATM    6  O3  UNL     1      45.234  58.777 171.854  1.00  0.00    -0.274 OA
ATOM      7  H3  UNL     1      45.735  59.215 172.533  1.00  0.00     0.246 HD
ENDBRANCH   4   6
ENDBRANCH   3   4
BRANCH   3   8
HETATM    8  C3  UNL     1      42.789  60.502 172.372  1.00  0.00     0.283 C
HETATM    9  O4  UNL     1      43.561  61.047 171.326  1.00  0.00    -0.353 OA
HETATM   10  C4  UNL     1      43.047  62.344 171.210  1.00  0.00     0.165 C
HETATM   11  C6  UNL     1      41.565  62.220 171.443  1.00  0.00     0.181 C
HETATM   12  C7  UNL     1      41.414  60.761 171.818  1.00  0.00     0.200 C
BRANCH  10  13
HETATM   13  C5  UNL     1      43.316  62.933 169.858  1.00  0.00     0.121 C
BRANCH  13  14
HETATM   14  S1  UNL     1      41.996  62.861 168.690  1.00  0.00    -0.083 SA
HETATM   15  S2  UNL     1      41.990  64.170 167.111  1.00  0.00    -0.013 SA
ENDBRANCH  13  14
ENDBRANCH  10  13
BRANCH  11  16
HETATM   16  O5  UNL     1      41.226  62.983 172.548  1.00  0.00    -0.390 OA
ATOM     17  H5  UNL     1      40.312  63.232 172.476  1.00  0.00     0.210 HD
ENDBRANCH  11  16
BRANCH  12  18
HETATM   18  O6  UNL     1      41.283  59.992 170.662  1.00  0.00    -0.388 OA
ATOM     19  H6  UNL     1      40.993  60.573 169.969  1.00  0.00     0.210 HD
ENDBRANCH  12  18
ENDBRANCH   3   8
BRANCH   1  20
HETATM   20  O1  UNL     1      41.373  59.123 174.425  1.00  0.00    -0.275 OA
BRANCH  20  21
HETATM   21  C1  UNL     1      40.816  58.565 175.595  1.00  0.00     0.409 C
BRANCH  21  22
HETATM   22  N1  UNL     1      40.472  59.706 176.458  1.00  0.00    -0.058 N
ATOM     23  H13 UNL     1      41.237  60.370 176.580  1.00  0.00     0.276 HD
ATOM     24  H12 UNL     1      39.813  60.357 176.030  1.00  0.00     0.276 HD
ATOM     25  H11 UNL     1      40.138  59.301 177.332  1.00  0.00     0.276 HD
ENDBRANCH  21  22
ENDBRANCH  20  21
ENDBRANCH   1  20
TORSDOF 10
ENDMDL