MODEL 1
REMARK VINA RESULT: -8.046790158      0.000      0.000
REMARK  7 active torsions:
REMARK  status: ('A' for Active; 'I' for Inactive)
REMARK    1  A    between atoms: C4_5  and  N2_6
REMARK    2  A    between atoms: N3_8  and  N4_10
REMARK    3  A    between atoms: C5_12  and  C6_13
REMARK    4  A    between atoms: C5_12  and  C7_22
REMARK    5  A    between atoms: C6_13  and  N6_17
REMARK    6  A    between atoms: N6_17  and  N7_19
REMARK    7  A    between atoms: C8_27  and  N9_28
ROOT
HETATM    1  N1  UNL     1      40.989  65.188 165.580  1.00  0.00    -0.190 NA
HETATM    2  C1  UNL     1      41.612  64.803 166.485  1.00  0.00     0.118 C
HETATM    3  C2  UNL     1      42.373  64.306 167.596  1.00  0.00     0.133 A
HETATM    4  C3  UNL     1      41.914  63.268 168.404  1.00  0.00     0.092 A
HETATM    5  C4  UNL     1      42.649  62.798 169.466  1.00  0.00     0.139 A
HETATM    6  N8  UNL     1      43.843  63.357 169.729  1.00  0.00    -0.175 N
ATOM      7  H8  UNL     1      44.406  63.024 170.512  1.00  0.00     0.186 HD
HETATM    8  C8  UNL     1      44.291  64.366 168.945  1.00  0.00     0.678 A
HETATM    9  N10 UNL     1      43.575  64.836 167.897  1.00  0.00    -0.182 N
ATOM     10  H10 UNL     1      43.949  65.597 167.331  1.00  0.00     0.185 HD
ENDROOT
BRANCH   5  11
HETATM   11  N2  UNL     1      42.095  61.735 170.232  1.00  0.00    -0.270 N
HETATM   12  N3  UNL     1      42.817  60.965 170.955  1.00  0.00    -0.240 N
ATOM     13  H3  UNL     1      43.828  61.096 171.003  1.00  0.00     0.208 HD
ATOM     14  H2  UNL     1      41.087  61.581 170.203  1.00  0.00     0.190 HD
BRANCH  12  15
HETATM   15  N4  UNL     1      42.206  59.960 171.665  1.00  0.00    -0.277 N
HETATM   16  C5  UNL     1      42.831  59.232 172.537  1.00  0.00     0.171 C
ATOM     17  H4  UNL     1      41.217  59.778 171.499  1.00  0.00     0.189 HD
BRANCH  16  18
HETATM   18  C6  UNL     1      42.139  58.170 173.271  1.00  0.00     0.154 C
HETATM   19  N5  UNL     1      41.192  58.508 174.065  1.00  0.00    -0.382 N
ATOM     20  H52 UNL     1      40.930  59.487 174.180  1.00  0.00     0.157 HD
ATOM     21  H51 UNL     1      40.710  57.769 174.576  1.00  0.00     0.157 HD
BRANCH  18  22
HETATM   22  N6  UNL     1      42.503  56.809 173.111  1.00  0.00    -0.224 N
ATOM     23  H6  UNL     1      42.280  56.343 172.232  1.00  0.00     0.195 HD
BRANCH  22  24
HETATM   24  N7  UNL     1      43.153  56.084 174.103  1.00  0.00    -0.037 N
HETATM   25  O1  UNL     1      44.299  55.656 173.868  1.00  0.00    -0.516 OA
HETATM   26  O2  UNL     1      42.514  55.866 175.298  1.00  0.00    -0.516 OA
ENDBRANCH  22  24
ENDBRANCH  18  22
ENDBRANCH  16  18
BRANCH  16  27
HETATM   27  C7  UNL     1      44.239  59.447 172.813  1.00  0.00     0.232 C
HETATM   28  O3  UNL     1      44.597  60.106 173.809  1.00  0.00    -0.643 OA
HETATM   29  O4  UNL     1      45.187  58.918 171.963  1.00  0.00    -0.643 OA
ENDBRANCH  16  27
ENDBRANCH  12  15
ENDBRANCH   5  11
BRANCH   8  30
HETATM   30  N9  UNL     1      45.453  64.856 169.262  1.00  0.00    -0.234 N
ATOM     31  H92 UNL     1      46.173  64.293 169.715  1.00  0.00     0.174 HD
ATOM     32  H91 UNL     1      45.600  65.839 169.029  1.00  0.00     0.174 HD
ENDBRANCH   8  30
TORSDOF 7
ENDMDL