MODEL 2
REMARK VINA RESULT: -5.267901917      0.057      1.398
REMARK  2 active torsions:
REMARK  status: ('A' for Active; 'I' for Inactive)
REMARK    1  A    between atoms: N1_1  and  N2_4
REMARK       I    between atoms: N2_4  and  C1_5
REMARK       I    between atoms: C1_5  and  N3_6
REMARK       I    between atoms: C1_5  and  N4_10
REMARK    2  A    between atoms: N4_10  and  C2_12
ROOT
HETATM    1  N2  UNL     1      20.242  -1.367   6.948  1.00  0.00    -0.093 NA
HETATM    2  C1  UNL     1      21.330  -1.745   6.079  1.00  0.00     0.410 C
HETATM    3  N3  UNL     1      22.343  -2.351   6.924  1.00  0.00    -0.042 N
ATOM      4  H31 UNL     1      23.113  -2.618   6.310  1.00  0.00     0.278 HD
ATOM      5  H32 UNL     1      21.989  -3.124   7.486  1.00  0.00     0.278 HD
ATOM      6  H33 UNL     1      22.634  -1.753   7.697  1.00  0.00     0.278 HD
HETATM    7  N4  UNL     1      21.837  -0.683   5.292  1.00  0.00    -0.181 N
ATOM      8  H4  UNL     1      21.939   0.199   5.795  1.00  0.00     0.181 HD
ENDROOT
BRANCH   7   9
HETATM    9  C2  UNL     1      22.184  -0.630   4.087  1.00  0.00     0.680 A
HETATM   10  N5  UNL     1      21.697   0.314   3.253  1.00  0.00    -0.202 N
HETATM   11  C3  UNL     1      22.033   0.411   1.976  1.00  0.00     0.107 A
ATOM     12  H5  UNL     1      21.032   0.991   3.628  1.00  0.00     0.183 HD
HETATM   13  C4  UNL     1      22.921  -0.473   1.429  1.00  0.00     0.035 A
HETATM   14  C5  UNL     1      23.437  -1.452   2.262  1.00  0.00     0.107 A
HETATM   15  N6  UNL     1      23.051  -1.498   3.563  1.00  0.00    -0.202 N
ATOM     16  H6  UNL     1      23.440  -2.225   4.164  1.00  0.00     0.183 HD
ENDBRANCH   7   9
BRANCH   1  17
HETATM   17  N1  UNL     1      19.172  -0.791   6.308  1.00  0.00    -0.345 N
ATOM     18  H12 UNL     1      19.242  -0.442   5.353  1.00  0.00     0.172 HD
ATOM     19  H11 UNL     1      18.319  -0.744   6.864  1.00  0.00     0.172 HD
ENDBRANCH   1  17
TORSDOF 2
ENDMDL