MODEL 1
REMARK VINA RESULT: -5.080117848      0.000      0.000
REMARK  4 active torsions:
REMARK  status: ('A' for Active; 'I' for Inactive)
REMARK    1  A    between atoms: C4_8  and  C5_9
REMARK    2  A    between atoms: C5_9  and  C6_10
REMARK    3  A    between atoms: C5_9  and  N4_14
REMARK    4  A    between atoms: N4_14  and  N5_15
ROOT
HETATM    1  C5  UNL     1      21.321  -1.424   7.142  1.00  0.00     0.161 C
ENDROOT
BRANCH   1   2
HETATM    2  C4  UNL     1      21.362  -2.213   8.426  1.00  0.00     0.130 C
HETATM    3  C2  UNL     1      20.550  -1.601   9.520  1.00  0.00     0.103 C
HETATM    4  C1  UNL     1      21.383  -0.742  10.462  1.00  0.00     0.034 C
HETATM    5  N1  UNL     1      20.083  -2.764  10.244  1.00  0.00    -0.380 N
HETATM    6  C3  UNL     1      20.099  -3.831   9.305  1.00  0.00     0.172 C
ATOM      7  H1  UNL     1      19.802  -2.808  11.223  1.00  0.00     0.160 HD
HETATM    8  N2  UNL     1      20.811  -3.531   8.289  1.00  0.00    -0.378 N
ATOM      9  H2  UNL     1      20.967  -4.145   7.489  1.00  0.00     0.160 HD
ENDBRANCH   1   2
BRANCH   1  10
HETATM   10  C6  UNL     1      22.292  -1.935   6.141  1.00  0.00     0.078 C
HETATM   11  N3  UNL     1      23.540  -1.648   6.162  1.00  0.00    -0.410 N
ATOM     12  H32 UNL     1      23.867  -1.037   6.910  1.00  0.00     0.155 HD
ATOM     13  H31 UNL     1      24.207  -1.999   5.475  1.00  0.00     0.155 HD
ENDBRANCH   1  10
BRANCH   1  14
HETATM   14  N4  UNL     1      19.956  -1.507   6.626  1.00  0.00    -0.136 NA
BRANCH  14  15
HETATM   15  N5  UNL     1      19.570  -0.330   6.021  1.00  0.00    -0.348 N
ATOM     16  H52 UNL     1      20.147   0.511   6.010  1.00  0.00     0.172 HD
ATOM     17  H51 UNL     1      18.647  -0.412   5.594  1.00  0.00     0.172 HD
ENDBRANCH  14  15
ENDBRANCH   1  14
TORSDOF 4
ENDMDL