MODEL 5
REMARK VINA RESULT: -4.666514111      1.064      1.352
REMARK  3 active torsions:
REMARK  status: ('A' for Active; 'I' for Inactive)
REMARK    1  A    between atoms: C2_2  and  N1_4
REMARK    2  A    between atoms: N1_4  and  N2_5
REMARK    3  A    between atoms: N2_5  and  C4_7
ROOT
HETATM    1  C4  UNL     1      21.520  -2.442   7.626  1.00  0.00     0.323 C
HETATM    2  C5  UNL     1      20.262  -1.625   7.549  1.00  0.00     0.289 C
HETATM    3  N3  UNL     1      19.662  -1.988   8.844  1.00  0.00    -0.048 N
ATOM      4  H31 UNL     1      19.248  -2.918   8.899  1.00  0.00     0.279 HD
ATOM      5  H32 UNL     1      18.799  -1.501   9.088  1.00  0.00     0.279 HD
HETATM    6  C6  UNL     1      20.795  -1.745   9.718  1.00  0.00     0.465 C
HETATM    7  N4  UNL     1      21.949  -2.237   8.981  1.00  0.00    -0.028 N
ATOM      8  H41 UNL     1      22.763  -1.627   9.057  1.00  0.00     0.281 HD
ATOM      9  H42 UNL     1      22.370  -3.066   9.400  1.00  0.00     0.281 HD
ENDROOT
BRANCH   1  10
HETATM   10  N2  UNL     1      22.498  -2.101   6.640  1.00  0.00    -0.308 N
ATOM     11  H2  UNL     1      23.435  -1.781   6.883  1.00  0.00     0.178 HD
BRANCH  10  12
HETATM   12  N1  UNL     1      22.077  -2.239   5.335  1.00  0.00    -0.140 NA
BRANCH  12  13
HETATM   13  C2  UNL     1      22.630  -1.098   4.589  1.00  0.00     0.091 C
HETATM   14  C1  UNL     1      21.503  -0.071   4.462  1.00  0.00     0.029 C
HETATM   15  C3  UNL     1      23.166  -1.503   3.258  1.00  0.00     0.029 C
ENDBRANCH  12  13
ENDBRANCH  10  12
ENDBRANCH   1  10
TORSDOF 3
ENDMDL