MODEL 2
REMARK VINA RESULT: -5.228843802      0.847      1.580
REMARK  4 active torsions:
REMARK  status: ('A' for Active; 'I' for Inactive)
REMARK    1  A    between atoms: C3_6  and  C4_7
REMARK    2  A    between atoms: C4_7  and  N3_8
REMARK    3  A    between atoms: C4_7  and  N4_12
REMARK    4  A    between atoms: N4_12  and  N5_13
ROOT
HETATM    1  C4  UNL     1      20.498  -2.252   8.669  1.00  0.00     0.332 C
ENDROOT
BRANCH   1   2
HETATM    2  C3  UNL     1      21.371  -1.958   7.503  1.00  0.00     0.049 A
HETATM    3  C2  UNL     1      22.689  -2.227   7.282  1.00  0.00     0.121 A
HETATM    4  N2  UNL     1      23.017  -1.749   6.051  1.00  0.00    -0.308 N
HETATM    5  N1  UNL     1      21.969  -1.189   5.483  1.00  0.00    -0.283 N
ATOM      6  H2  UNL     1      23.943  -1.815   5.629  1.00  0.00     0.186 HD
HETATM    7  C1  UNL     1      21.970  -0.578   4.166  1.00  0.00     0.179 C
HETATM    8  C5  UNL     1      20.936  -1.299   6.348  1.00  0.00     0.143 A
HETATM    9  N6  UNL     1      19.641  -0.808   6.078  1.00  0.00    -0.080 NA
ENDBRANCH   1   2
BRANCH   1  10
HETATM   10  N3  UNL     1      21.068  -3.374   9.391  1.00  0.00    -0.055 N
ATOM     11  H33 UNL     1      20.358  -3.959   9.832  1.00  0.00     0.276 HD
ATOM     12  H32 UNL     1      21.462  -4.081   8.770  1.00  0.00     0.276 HD
ATOM     13  H31 UNL     1      21.749  -3.012  10.058  1.00  0.00     0.276 HD
ENDBRANCH   1  10
BRANCH   1  14
HETATM   14  N4  UNL     1      20.418  -1.097   9.538  1.00  0.00    -0.110 NA
BRANCH  14  15
HETATM   15  N5  UNL     1      21.396  -1.066  10.503  1.00  0.00    -0.346 N
ATOM     16  H52 UNL     1      21.615  -1.875  11.084  1.00  0.00     0.172 HD
ATOM     17  H51 UNL     1      21.870  -0.165  10.574  1.00  0.00     0.172 HD
ENDBRANCH  14  15
ENDBRANCH   1  14
TORSDOF 4
ENDMDL