MODEL 5
REMARK VINA RESULT: -3.367372788      4.770      5.714
REMARK  4 active torsions:
REMARK  status: ('A' for Active; 'I' for Inactive)
REMARK    1  A    between atoms: C2_2  and  N1_3
REMARK    2  A    between atoms: C2_2  and  C3_7
REMARK    3  A    between atoms: C3_7  and  C4_9
REMARK    4  A    between atoms: C5_11  and  N2_12
ROOT
HETATM    1  C3  UNL     1      23.138  -0.307   1.750  1.00  0.00     0.122 C
HETATM    2  S1  UNL     1      24.508  -1.475   1.710  1.00  0.00    -0.087 SA
ENDROOT
BRANCH   1   3
HETATM    3  C2  UNL     1      22.324  -0.351   0.480  1.00  0.00     0.196 C
HETATM    4  C1  UNL     1      22.438  -1.733  -0.101  1.00  0.00     0.041 C
BRANCH   3   5
HETATM    5  N1  UNL     1      20.947   0.006   0.688  1.00  0.00    -0.074 N
ATOM      6  H13 UNL     1      20.697   0.855   0.182  1.00  0.00     0.274 HD
ATOM      7  H12 UNL     1      20.314  -0.644   0.221  1.00  0.00     0.274 HD
ATOM      8  H11 UNL     1      20.738   0.084   1.683  1.00  0.00     0.274 HD
ENDBRANCH   3   5
ENDBRANCH   1   3
BRANCH   1   9
HETATM    9  C4  UNL     1      22.175  -0.681   2.885  1.00  0.00     0.197 A
HETATM   10  O1  UNL     1      22.722  -0.750   4.173  1.00  0.00    -0.346 OA
HETATM   11  C5  UNL     1      21.937   0.372   3.892  1.00  0.00     0.349 A
BRANCH  11  12
HETATM   12  N2  UNL     1      20.666   0.429   4.593  1.00  0.00    -0.050 N
ATOM     13  H23 UNL     1      20.401   1.408   4.705  1.00  0.00     0.277 HD
ATOM     14  H22 UNL     1      19.935   0.092   3.966  1.00  0.00     0.277 HD
ATOM     15  H21 UNL     1      20.561  -0.040   5.493  1.00  0.00     0.277 HD
ENDBRANCH  11  12
ENDBRANCH   1   9
TORSDOF 4
ENDMDL