MODEL 5
REMARK VINA RESULT: -4.239944007      1.398      1.834
REMARK  4 active torsions:
REMARK  status: ('A' for Active; 'I' for Inactive)
REMARK    1  A    between atoms: N1_1  and  N2_4
REMARK    2  A    between atoms: C1_6  and  C2_7
REMARK    3  A    between atoms: C2_7  and  N3_8
REMARK    4  A    between atoms: C2_7  and  C3_12
ROOT
HETATM    1  C2  UNL     1      23.478  -1.060   0.494  1.00  0.00     0.229 C
ENDROOT
BRANCH   1   2
HETATM    2  C1  UNL     1      24.699  -1.878   0.641  1.00  0.00     0.112 C
HETATM    3  N2  UNL     1      24.902  -2.841  -0.164  1.00  0.00    -0.320 N
ATOM      4  H2  UNL     1      24.204  -3.013  -0.887  1.00  0.00     0.185 HD
BRANCH   3   5
HETATM    5  N1  UNL     1      26.019  -3.679  -0.120  1.00  0.00    -0.346 N
ATOM      6  H12 UNL     1      26.041  -4.378   0.622  1.00  0.00     0.176 HD
ATOM      7  H11 UNL     1      26.798  -3.631  -0.776  1.00  0.00     0.176 HD
ENDBRANCH   3   5
ENDBRANCH   1   2
BRANCH   1   8
HETATM    8  N3  UNL     1      23.847   0.253   0.066  1.00  0.00    -0.070 N
ATOM      9  H33 UNL     1      23.733   0.948   0.804  1.00  0.00     0.275 HD
ATOM     10  H32 UNL     1      24.853   0.350  -0.066  1.00  0.00     0.275 HD
ATOM     11  H31 UNL     1      23.320   0.488  -0.775  1.00  0.00     0.275 HD
ENDBRANCH   1   8
BRANCH   1  12
HETATM   12  C3  UNL     1      22.725  -1.101   1.779  1.00  0.00     0.045 C
HETATM   13  C4  UNL     1      23.467  -1.671   2.935  1.00  0.00     0.128 C
HETATM   14  N4  UNL     1      22.733  -1.127   4.062  1.00  0.00    -0.381 N
HETATM   15  C5  UNL     1      22.129  -0.035   3.747  1.00  0.00     0.089 C
ATOM     16  H4  UNL     1      22.701  -1.554   4.988  1.00  0.00     0.160 HD
HETATM   17  N5  UNL     1      21.309   0.809   4.546  1.00  0.00    -0.088 NA
HETATM   18  C6  UNL     1      22.398   0.298   2.302  1.00  0.00     0.081 C
ENDBRANCH   1  12
TORSDOF 4
ENDMDL