MODEL 4
REMARK VINA RESULT: -4.468640064      2.008      2.181
REMARK  5 active torsions:
REMARK  status: ('A' for Active; 'I' for Inactive)
REMARK    1  A    between atoms: N1_1  and  C1_5
REMARK    2  A    between atoms: C1_5  and  O1_6
REMARK    3  A    between atoms: C1_5  and  C2_8
REMARK    4  A    between atoms: C2_8  and  N2_9
REMARK    5  A    between atoms: C2_8  and  C3_13
ROOT
HETATM    1  C2  UNL     1      21.383  -2.202   6.746  1.00  0.00     0.291 C
ENDROOT
BRANCH   1   2
HETATM    2  C1  UNL     1      22.754  -1.697   6.449  1.00  0.00     0.353 C
BRANCH   2   3
HETATM    3  N1  UNL     1      22.838  -1.541   4.988  1.00  0.00    -0.051 N
ATOM      4  H13 UNL     1      22.575  -0.603   4.687  1.00  0.00     0.277 HD
ATOM      5  H12 UNL     1      23.803  -1.537   4.657  1.00  0.00     0.277 HD
ATOM      6  H11 UNL     1      22.279  -2.262   4.533  1.00  0.00     0.277 HD
ENDBRANCH   2   3
BRANCH   2   7
HETATM    7  O1  UNL     1      23.768  -2.529   6.887  1.00  0.00    -0.368 OA
ATOM      8  H1  UNL     1      24.100  -2.215   7.720  1.00  0.00     0.212 HD
ENDBRANCH   2   7
ENDBRANCH   1   2
BRANCH   1   9
HETATM    9  N2  UNL     1      20.438  -1.194   6.250  1.00  0.00    -0.065 N
ATOM     10  H23 UNL     1      19.761  -0.899   6.953  1.00  0.00     0.275 HD
ATOM     11  H22 UNL     1      20.869  -0.282   6.094  1.00  0.00     0.275 HD
ATOM     12  H21 UNL     1      20.003  -1.580   5.411  1.00  0.00     0.275 HD
ENDBRANCH   1   9
BRANCH   1  13
HETATM   13  C3  UNL     1      21.106  -2.379   8.175  1.00  0.00     0.078 A
HETATM   14  C4  UNL     1      20.401  -3.352   8.854  1.00  0.00     0.137 A
HETATM   15  N3  UNL     1      20.447  -3.050  10.159  1.00  0.00    -0.296 N
HETATM   16  N4  UNL     1      21.152  -1.928  10.316  1.00  0.00    -0.243 N
ATOM     17  H3  UNL     1      20.013  -3.589  10.908  1.00  0.00     0.187 HD
HETATM   18  N5  UNL     1      21.543  -1.531   9.123  1.00  0.00    -0.287 N
ATOM     19  H4  UNL     1      21.352  -1.462  11.200  1.00  0.00     0.208 HD
ATOM     20  H5  UNL     1      22.101  -0.697   8.943  1.00  0.00     0.188 HD
ENDBRANCH   1  13
TORSDOF 5
ENDMDL