MODEL 3
REMARK VINA RESULT: -4.746947213      1.164      2.372
REMARK  4 active torsions:
REMARK  status: ('A' for Active; 'I' for Inactive)
REMARK    1  A    between atoms: N1_1  and  C1_4
REMARK    2  A    between atoms: C1_4  and  N2_5
REMARK    3  A    between atoms: N2_5  and  N3_7
REMARK    4  A    between atoms: N3_7  and  C2_9
ROOT
HETATM    1  C2  UNL     1      21.128  -1.645   6.469  1.00  0.00     0.152 A
HETATM    2  N4  UNL     1      19.940  -1.043   6.672  1.00  0.00    -0.336 N
ATOM      3  H4  UNL     1      19.393  -1.333   7.483  1.00  0.00     0.168 HD
HETATM    4  C3  UNL     1      19.432  -0.101   5.891  1.00  0.00     0.183 A
HETATM    5  N5  UNL     1      20.139   0.300   4.806  1.00  0.00    -0.337 N
ATOM      6  H5  UNL     1      19.767   1.023   4.190  1.00  0.00     0.168 HD
HETATM    7  C4  UNL     1      21.336  -0.263   4.547  1.00  0.00     0.138 A
HETATM    8  N6  UNL     1      22.216  -0.039   3.560  1.00  0.00    -0.337 N
ATOM      9  H6  UNL     1      22.108   0.633   2.800  1.00  0.00     0.168 HD
HETATM   10  C5  UNL     1      23.272  -0.861   3.751  1.00  0.00     0.182 A
HETATM   11  N7  UNL     1      23.036  -1.569   4.833  1.00  0.00    -0.346 N
ATOM     12  H7  UNL     1      23.668  -2.273   5.214  1.00  0.00     0.167 HD
HETATM   13  C6  UNL     1      21.845  -1.239   5.371  1.00  0.00     0.123 A
ENDROOT
BRANCH   1  14
HETATM   14  N3  UNL     1      21.616  -2.639   7.356  1.00  0.00    -0.283 N
ATOM     15  H3  UNL     1      22.145  -3.404   6.938  1.00  0.00     0.188 HD
BRANCH  14  16
HETATM   16  N2  UNL     1      21.450  -2.677   8.730  1.00  0.00    -0.295 N
ATOM     17  H2  UNL     1      22.160  -2.234   9.312  1.00  0.00     0.187 HD
BRANCH  16  18
HETATM   18  C1  UNL     1      20.353  -3.297   9.374  1.00  0.00     0.190 C
BRANCH  18  19
HETATM   19  N1  UNL     1      19.405  -2.652   9.896  1.00  0.00    -0.394 N
ATOM     20  H12 UNL     1      18.805  -2.113   9.272  1.00  0.00     0.156 HD
ATOM     21  H11 UNL     1      19.218  -2.648  10.899  1.00  0.00     0.156 HD
ENDBRANCH  18  19
ENDBRANCH  16  18
ENDBRANCH  14  16
ENDBRANCH   1  14
TORSDOF 4
ENDMDL