MODEL 3
REMARK VINA RESULT: -8.933741102      4.502      9.944
REMARK  10 active torsions:
REMARK  status: ('A' for Active; 'I' for Inactive)
REMARK    1  A    between atoms: C2_3  and  C3_4
REMARK    2  A    between atoms: C3_4  and  C4_5
REMARK    3  A    between atoms: C3_4  and  C11_17
REMARK       I    between atoms: C4_5  and  N2_7
REMARK    4  A    between atoms: N2_7  and  C5_9
REMARK    5  A    between atoms: C8_12  and  O2_13
REMARK    6  A    between atoms: C11_17  and  O3_18
REMARK    7  A    between atoms: C11_17  and  N3_20
REMARK    8  A    between atoms: N3_20  and  C12_22
REMARK    9  A    between atoms: C15_25  and  O4_26
REMARK   10  A    between atoms: N4_33  and  N5_34
ROOT
HETATM    1  C3  UNL     1      14.847  52.787  24.670  1.00  0.00     0.187 C
ENDROOT
BRANCH   1   2
HETATM    2  C2  UNL     1      16.161  53.232  25.177  1.00  0.00     0.119 A
HETATM    3  C1  UNL     1      16.751  52.967  26.396  1.00  0.00     0.173 A
HETATM    4  N1  UNL     1      16.207  52.288  27.517  1.00  0.00    -0.078 NA
HETATM    5  N4  UNL     1      17.983  53.577  26.384  1.00  0.00    -0.189 N
HETATM    6  C18 UNL     1      18.100  54.169  25.208  1.00  0.00     0.392 A
HETATM    7  O5  UNL     1      17.023  53.977  24.477  1.00  0.00    -0.260 OA
HETATM    8  O6  UNL     1      19.108  54.854  24.790  1.00  0.00    -0.236 OA
BRANCH   5   9
HETATM    9  N5  UNL     1      18.898  53.517  27.449  1.00  0.00    -0.333 N
ATOM     10  H52 UNL     1      19.182  52.717  28.014  1.00  0.00     0.177 HD
ATOM     11  H51 UNL     1      19.403  54.326  27.811  1.00  0.00     0.177 HD
ENDBRANCH   5   9
ENDBRANCH   1   2
BRANCH   1  12
HETATM   12  C4  UNL     1      15.085  52.114  23.309  1.00  0.00     0.237 C
HETATM   13  O1  UNL     1      14.177  51.298  22.979  1.00  0.00    -0.272 OA
HETATM   14  N2  UNL     1      16.181  52.352  22.501  1.00  0.00    -0.326 N
ATOM     15  H2  UNL     1      16.912  52.993  22.808  1.00  0.00     0.169 HD
BRANCH  14  16
HETATM   16  C5  UNL     1      16.289  51.707  21.248  1.00  0.00     0.034 A
HETATM   17  C6  UNL     1      15.647  52.127  20.109  1.00  0.00     0.032 A
HETATM   18  C7  UNL     1      15.762  51.465  18.893  1.00  0.00     0.039 A
HETATM   19  C8  UNL     1      16.550  50.328  18.797  1.00  0.00     0.065 A
HETATM   20  C9  UNL     1      17.209  49.876  19.908  1.00  0.00     0.039 A
HETATM   21  C10 UNL     1      17.069  50.571  21.112  1.00  0.00     0.032 A
BRANCH  19  22
HETATM   22  O2  UNL     1      16.690  49.625  17.597  1.00  0.00    -0.361 OA
ATOM     23  H2  UNL     1      17.397  49.008  17.456  1.00  0.00     0.217 HD
ENDBRANCH  19  22
ENDBRANCH  14  16
ENDBRANCH   1  12
BRANCH   1  24
HETATM   24  C11 UNL     1      13.879  53.893  24.304  1.00  0.00     0.237 C
BRANCH  24  25
HETATM   25  O3  UNL     1      12.603  53.322  24.503  1.00  0.00    -0.376 OA
ATOM     26  H3  UNL     1      12.690  52.822  25.305  1.00  0.00     0.212 HD
ENDBRANCH  24  25
BRANCH  24  27
HETATM   27  N3  UNL     1      13.951  54.952  25.306  1.00  0.00    -0.363 N
ATOM     28  H3  UNL     1      13.697  54.763  26.276  1.00  0.00     0.162 HD
BRANCH  27  29
HETATM   29  C12 UNL     1      14.371  56.231  24.919  1.00  0.00     0.030 A
HETATM   30  C13 UNL     1      14.283  57.282  25.778  1.00  0.00     0.032 A
HETATM   31  C14 UNL     1      14.701  58.571  25.411  1.00  0.00     0.039 A
HETATM   32  C15 UNL     1      15.213  58.741  24.140  1.00  0.00     0.065 A
HETATM   33  C16 UNL     1      15.316  57.704  23.261  1.00  0.00     0.039 A
HETATM   34  C17 UNL     1      14.896  56.450  23.642  1.00  0.00     0.032 A
BRANCH  32  35
HETATM   35  O4  UNL     1      15.634  59.999  23.758  1.00  0.00    -0.361 OA
ATOM     36  H4  UNL     1      16.317  60.071  23.101  1.00  0.00     0.217 HD
ENDBRANCH  32  35
ENDBRANCH  27  29
ENDBRANCH  24  27
ENDBRANCH   1  24
TORSDOF 10
ENDMDL