MODEL 1
REMARK VINA RESULT: -10.318721708      0.000      0.000
REMARK  8 active torsions:
REMARK  status: ('A' for Active; 'I' for Inactive)
REMARK    1  A    between atoms: C1_4  and  N2_5
REMARK    2  A    between atoms: C1_4  and  C3_17
REMARK    3  A    between atoms: N2_5  and  N3_7
REMARK       I    between atoms: N3_7  and  C2_8
REMARK       I    between atoms: C2_8  and  N4_9
REMARK       I    between atoms: C2_8  and  N5_13
REMARK    4  A    between atoms: C4_22  and  S1_23
REMARK    5  A    between atoms: S1_23  and  C5_24
REMARK    6  A    between atoms: C5_24  and  C6_25
REMARK    7  A    between atoms: C8_28  and  C9_29
REMARK    8  A    between atoms: C12_32  and  O2_33
ROOT
HETATM    1  C3  UNL     1      15.898  52.355  15.155  1.00  0.00     0.161 A
HETATM    2  N6  UNL     1      15.334  52.147  16.381  1.00  0.00    -0.290 N
ATOM      3  H6  UNL     1      14.427  52.574  16.574  1.00  0.00     0.187 HD
HETATM    4  N7  UNL     1      15.897  51.425  17.327  1.00  0.00    -0.279 N
ATOM      5  H7  UNL     1      15.416  51.314  18.220  1.00  0.00     0.189 HD
HETATM    6  C4  UNL     1      17.099  50.826  17.146  1.00  0.00     0.162 A
HETATM    7  N9  UNL     1      17.679  51.008  15.958  1.00  0.00    -0.301 N
ATOM      8  H9  UNL     1      18.584  50.572  15.787  1.00  0.00     0.171 HD
HETATM    9  C15 UNL     1      17.115  51.754  14.960  1.00  0.00     0.279 A
HETATM   10  O3  UNL     1      17.696  51.897  13.860  1.00  0.00    -0.265 OA
ENDROOT
BRANCH   1  11
HETATM   11  C1  UNL     1      15.226  53.161  14.156  1.00  0.00     0.145 C
HETATM   12  N1  UNL     1      15.921  54.104  13.561  1.00  0.00    -0.383 N
ATOM     13  H12 UNL     1      15.447  54.672  12.858  1.00  0.00     0.157 HD
ATOM     14  H11 UNL     1      16.893  54.200  13.854  1.00  0.00     0.157 HD
BRANCH  11  15
HETATM   15  N2  UNL     1      13.886  53.029  13.752  1.00  0.00    -0.284 N
ATOM     16  H2  UNL     1      13.191  52.567  14.338  1.00  0.00     0.184 HD
BRANCH  15  17
HETATM   17  N3  UNL     1      13.553  53.575  12.484  1.00  0.00    -0.079 NA
HETATM   18  C2  UNL     1      12.129  53.822  12.410  1.00  0.00     0.490 C
HETATM   19  N4  UNL     1      11.790  54.328  11.089  1.00  0.00    -0.035 N
HETATM   20  N5  UNL     1      11.774  54.796  13.435  1.00  0.00    -0.035 N
ATOM     21  H43 UNL     1      12.337  55.153  10.841  1.00  0.00     0.278 HD
ATOM     22  H42 UNL     1      12.113  53.709  10.346  1.00  0.00     0.278 HD
ATOM     23  H41 UNL     1      10.787  54.503  11.037  1.00  0.00     0.278 HD
ATOM     24  H53 UNL     1      12.074  54.510  14.367  1.00  0.00     0.278 HD
ATOM     25  H52 UNL     1      12.324  55.653  13.368  1.00  0.00     0.278 HD
ATOM     26  H51 UNL     1      10.770  54.970  13.383  1.00  0.00     0.278 HD
ENDBRANCH  15  17
ENDBRANCH  11  15
ENDBRANCH   1  11
BRANCH   6  27
HETATM   27  S1  UNL     1      17.779  49.886  18.480  1.00  0.00    -0.086 SA
BRANCH  27  28
HETATM   28  C5  UNL     1      16.646  49.517  19.806  1.00  0.00     0.141 C
BRANCH  28  29
HETATM   29  C6  UNL     1      16.313  50.720  20.600  1.00  0.00     0.043 A
HETATM   30  C7  UNL     1      15.100  51.351  20.713  1.00  0.00     0.170 A
HETATM   31  O1  UNL     1      15.249  52.392  21.516  1.00  0.00    -0.303 OA
HETATM   32  C8  UNL     1      16.479  52.490  21.942  1.00  0.00     0.157 A
HETATM   33  N8  UNL     1      17.146  51.462  21.383  1.00  0.00    -0.337 N
ATOM     34  H8  UNL     1      18.137  51.267  21.525  1.00  0.00     0.168 HD
BRANCH  32  35
HETATM   35  C9  UNL     1      17.033  53.513  22.847  1.00  0.00     0.015 A
HETATM   36  C10 UNL     1      17.987  53.199  23.788  1.00  0.00     0.018 A
HETATM   37  C11 UNL     1      18.510  54.157  24.645  1.00  0.00     0.037 A
HETATM   38  C12 UNL     1      18.056  55.450  24.542  1.00  0.00     0.065 A
HETATM   39  C13 UNL     1      17.103  55.773  23.606  1.00  0.00     0.037 A
HETATM   40  C14 UNL     1      16.581  54.799  22.746  1.00  0.00     0.018 A
BRANCH  38  41
HETATM   41  O2  UNL     1      18.596  56.409  25.419  1.00  0.00    -0.361 OA
ATOM     42  H2  UNL     1      18.481  57.326  25.199  1.00  0.00     0.217 HD
ENDBRANCH  38  41
ENDBRANCH  32  35
ENDBRANCH  28  29
ENDBRANCH  27  28
ENDBRANCH   6  27
TORSDOF 8
ENDMDL