MODEL 2
REMARK VINA RESULT: -8.967647628      4.046      9.178
REMARK  9 active torsions:
REMARK  status: ('A' for Active; 'I' for Inactive)
REMARK    1  A    between atoms: C2_2  and  N2_4
REMARK    2  A    between atoms: N2_4  and  C3_6
REMARK    3  A    between atoms: C4_9  and  C5_10
REMARK    4  A    between atoms: C5_10  and  O2_11
REMARK    5  A    between atoms: C5_10  and  C6_13
REMARK    6  A    between atoms: C9_16  and  N3_17
REMARK    7  A    between atoms: N3_17  and  C10_19
REMARK    8  A    between atoms: C10_19  and  O3_20
REMARK    9  A    between atoms: C10_19  and  C11_22
ROOT
HETATM    1  C6  UNL     1      16.173  52.922  24.247  1.00  0.00    -0.023 A
HETATM    2  C7  UNL     1      17.189  53.248  23.376  1.00  0.00     0.012 A
HETATM    3  C8  UNL     1      17.022  53.003  22.017  1.00  0.00     0.030 A
HETATM    4  C9  UNL     1      15.878  52.448  21.514  1.00  0.00     0.030 A
HETATM    5  C14 UNL     1      14.864  52.122  22.379  1.00  0.00     0.030 A
HETATM    6  C15 UNL     1      15.030  52.366  23.736  1.00  0.00     0.012 A
ENDROOT
BRANCH   4   7
HETATM    7  N3  UNL     1      15.734  52.207  20.143  1.00  0.00    -0.359 N
ATOM      8  H3  UNL     1      15.795  52.983  19.484  1.00  0.00     0.162 HD
BRANCH   7   9
HETATM    9  C10 UNL     1      15.501  50.877  19.658  1.00  0.00     0.276 C
BRANCH   9  10
HETATM   10  O3  UNL     1      14.174  50.617  19.333  1.00  0.00    -0.371 OA
ATOM     11  H3  UNL     1      14.061  50.154  18.511  1.00  0.00     0.212 HD
ENDBRANCH   9  10
BRANCH   9  12
HETATM   12  C11 UNL     1      16.425  50.533  18.559  1.00  0.00     0.142 A
HETATM   13  N4  UNL     1      17.398  49.630  18.824  1.00  0.00    -0.292 N
HETATM   14  N5  UNL     1      18.257  49.284  17.876  1.00  0.00    -0.251 N
ATOM     15  H4  UNL     1      17.470  49.216  19.753  1.00  0.00     0.187 HD
HETATM   16  C12 UNL     1      18.121  49.858  16.667  1.00  0.00     0.341 A
ATOM     17  H5  UNL     1      18.997  48.606  18.057  1.00  0.00     0.191 HD
HETATM   18  O4  UNL     1      18.922  49.548  15.749  1.00  0.00    -0.245 OA
HETATM   19  N6  UNL     1      17.163  50.759  16.373  1.00  0.00    -0.273 N
HETATM   20  C13 UNL     1      16.285  51.119  17.325  1.00  0.00     0.278 A
ATOM     21  H6  UNL     1      17.104  51.162  15.439  1.00  0.00     0.173 HD
HETATM   22  O5  UNL     1      15.381  51.944  17.118  1.00  0.00    -0.266 OA
ENDBRANCH   9  12
ENDBRANCH   7   9
ENDBRANCH   4   7
BRANCH   1  23
HETATM   23  C5  UNL     1      16.346  53.177  25.687  1.00  0.00     0.212 C
BRANCH  23  24
HETATM   24  C4  UNL     1      15.214  54.062  26.161  1.00  0.00     0.131 A
HETATM   25  C3  UNL     1      14.971  55.364  25.901  1.00  0.00     0.133 A
HETATM   26  S1  UNL     1      13.609  55.289  26.840  1.00  0.00     0.057 SA
HETATM   27  O1  UNL     1      14.227  53.822  26.901  1.00  0.00    -0.271 OA
BRANCH  25  28
HETATM   28  N2  UNL     1      15.626  56.410  25.122  1.00  0.00    -0.336 N
ATOM     29  H2  UNL     1      16.203  57.118  25.576  1.00  0.00     0.168 HD
BRANCH  28  30
HETATM   30  C2  UNL     1      15.439  56.414  23.729  1.00  0.00     0.107 C
HETATM   31  C1  UNL     1      16.353  56.907  22.924  1.00  0.00     0.060 C
HETATM   32  N1  UNL     1      14.256  55.883  23.158  1.00  0.00    -0.084 NA
ENDBRANCH  28  30
ENDBRANCH  25  28
ENDBRANCH  23  24
BRANCH  23  33
HETATM   33  O2  UNL     1      17.568  53.861  25.868  1.00  0.00    -0.384 OA
ATOM     34  H2  UNL     1      18.262  53.367  25.447  1.00  0.00     0.211 HD
ENDBRANCH  23  33
ENDBRANCH   1  23
TORSDOF 9
ENDMDL