MODEL 1
REMARK VINA RESULT: -9.070577505      0.000      0.000
REMARK  8 active torsions:
REMARK  status: ('A' for Active; 'I' for Inactive)
REMARK    1  A    between atoms: O1_2  and  C2_3
REMARK    2  A    between atoms: C2_3  and  C3_4
REMARK    3  A    between atoms: C3_4  and  O2_5
REMARK    4  A    between atoms: O2_5  and  C4_6
REMARK    5  A    between atoms: C5_9  and  C6_10
REMARK    6  A    between atoms: C10_17  and  N3_18
REMARK    7  A    between atoms: C11_23  and  N5_24
REMARK    8  A    between atoms: C15_34  and  N9_35
ROOT
HETATM    1  C4  UNL     1      19.404  48.901  17.187  1.00  0.00     0.225 A
HETATM    2  N1  UNL     1      18.691  49.284  18.254  1.00  0.00    -0.318 N
ATOM      3  H1  UNL     1      18.948  48.917  19.171  1.00  0.00     0.169 HD
HETATM    4  C5  UNL     1      17.632  50.148  18.168  1.00  0.00     0.097 A
HETATM    5  C13 UNL     1      17.292  50.638  16.940  1.00  0.00     0.117 A
HETATM    6  C14 UNL     1      16.182  51.551  16.802  1.00  0.00     0.105 C
HETATM    7  N8  UNL     1      15.302  52.280  16.666  1.00  0.00    -0.191 NA
HETATM    8  C15 UNL     1      18.022  50.247  15.834  1.00  0.00     0.125 A
HETATM    9  N10 UNL     1      19.045  49.399  15.998  1.00  0.00    -0.307 N
ATOM     10  H10 UNL     1      19.578  49.117  15.175  1.00  0.00     0.171 HD
ENDROOT
BRANCH   4  11
HETATM   11  C6  UNL     1      16.918  50.504  19.393  1.00  0.00     0.147 A
HETATM   12  O3  UNL     1      16.929  51.598  20.054  1.00  0.00    -0.287 OA
HETATM   13  C7  UNL     1      16.159  51.582  21.128  1.00  0.00     0.165 A
HETATM   14  C8  UNL     1      16.006  52.696  22.033  1.00  0.00     0.075 A
HETATM   15  N6  UNL     1      15.623  50.353  21.119  1.00  0.00    -0.322 N
HETATM   16  C9  UNL     1      16.690  53.866  21.794  1.00  0.00     0.125 A
HETATM   17  C11 UNL     1      15.206  52.672  23.142  1.00  0.00     0.130 A
HETATM   18  N2  UNL     1      16.589  54.938  22.601  1.00  0.00    -0.201 N
HETATM   19  C10 UNL     1      15.796  54.889  23.685  1.00  0.00     0.677 A
ATOM     20  H2  UNL     1      17.115  55.786  22.390  1.00  0.00     0.183 HD
HETATM   21  N4  UNL     1      15.117  53.781  23.953  1.00  0.00    -0.176 N
ATOM     22  H4  UNL     1      14.517  53.750  24.778  1.00  0.00     0.186 HD
HETATM   23  C12 UNL     1      16.058  49.648  20.072  1.00  0.00     0.154 A
ATOM     24  H6  UNL     1      14.970  50.002  21.819  1.00  0.00     0.169 HD
HETATM   25  N7  UNL     1      15.723  48.328  19.726  1.00  0.00    -0.080 NA
BRANCH  19  26
HETATM   26  N3  UNL     1      15.713  55.950  24.459  1.00  0.00    -0.234 N
ATOM     27  H32 UNL     1      16.006  55.921  25.436  1.00  0.00     0.174 HD
ATOM     28  H31 UNL     1      15.345  56.818  24.069  1.00  0.00     0.174 HD
ENDBRANCH  19  26
BRANCH  17  29
HETATM   29  N5  UNL     1      14.535  51.664  23.462  1.00  0.00    -0.384 N
ATOM     30  H52 UNL     1      14.010  51.193  22.725  1.00  0.00     0.157 HD
ATOM     31  H51 UNL     1      14.501  51.312  24.419  1.00  0.00     0.157 HD
ENDBRANCH  17  29
ENDBRANCH   4  11
BRANCH   8  32
HETATM   32  N9  UNL     1      17.691  50.715  14.686  1.00  0.00    -0.384 N
ATOM     33  H92 UNL     1      17.469  51.699  14.537  1.00  0.00     0.157 HD
ATOM     34  H91 UNL     1      17.649  50.074  13.893  1.00  0.00     0.157 HD
ENDBRANCH   8  32
BRANCH   1  35
HETATM   35  O2  UNL     1      20.478  48.026  17.267  1.00  0.00    -0.320 OA
BRANCH  35  36
HETATM   36  C3  UNL     1      20.797  47.160  16.161  1.00  0.00     0.205 C
BRANCH  36  37
HETATM   37  C2  UNL     1      19.733  46.128  15.969  1.00  0.00     0.193 C
BRANCH  37  38
HETATM   38  O1  UNL     1      18.716  46.519  15.134  1.00  0.00    -0.394 OA
HETATM   39  C1  UNL     1      18.149  45.480  14.431  1.00  0.00     0.201 C
ENDBRANCH  37  38
ENDBRANCH  36  37
ENDBRANCH  35  36
ENDBRANCH   1  35
TORSDOF 8
ENDMDL