MODEL 4
REMARK VINA RESULT: -9.623175517      1.149      1.599
REMARK  9 active torsions:
REMARK  status: ('A' for Active; 'I' for Inactive)
REMARK    1  A    between atoms: N1_1  and  C1_4
REMARK    2  A    between atoms: C3_10  and  S1_11
REMARK    3  A    between atoms: S1_11  and  C4_12
REMARK    4  A    between atoms: C4_12  and  C5_13
REMARK    5  A    between atoms: C5_13  and  N4_14
REMARK    6  A    between atoms: C5_13  and  C6_18
REMARK       I    between atoms: C6_18  and  N5_20
REMARK    7  A    between atoms: N5_20  and  N6_22
REMARK    8  A    between atoms: C7_27  and  N8_28
REMARK    9  A    between atoms: N8_28  and  C8_30
ROOT
HETATM    1  C1  UNL     1      16.519  52.427  14.912  1.00  0.00     0.127 A
HETATM    2  N2  UNL     1      16.044  52.160  16.143  1.00  0.00    -0.327 N
ATOM      3  H2  UNL     1      15.264  52.715  16.498  1.00  0.00     0.169 HD
HETATM    4  C2  UNL     1      16.552  51.200  16.916  1.00  0.00     0.124 A
HETATM    5  N3  UNL     1      16.098  50.957  18.148  1.00  0.00    -0.322 N
ATOM      6  H3  UNL     1      15.321  51.503  18.520  1.00  0.00     0.169 HD
HETATM    7  C3  UNL     1      16.656  50.005  18.892  1.00  0.00     0.147 A
HETATM    8  N7  UNL     1      17.680  49.262  18.438  1.00  0.00    -0.322 N
ATOM      9  H7  UNL     1      18.070  48.546  19.050  1.00  0.00     0.169 HD
HETATM   10  C7  UNL     1      18.227  49.423  17.191  1.00  0.00     0.123 A
HETATM   11  C14 UNL     1      17.682  50.396  16.401  1.00  0.00     0.078 A
HETATM   12  C15 UNL     1      18.135  50.699  15.152  1.00  0.00     0.092 A
HETATM   13  N9  UNL     1      19.251  50.073  14.574  1.00  0.00    -0.099 NA
HETATM   14  C16 UNL     1      17.562  51.718  14.385  1.00  0.00     0.115 A
HETATM   15  N10 UNL     1      18.089  51.974  13.086  1.00  0.00    -0.096 NA
ENDROOT
BRANCH   7  16
HETATM   16  S1  UNL     1      16.029  49.695  20.556  1.00  0.00    -0.091 SA
BRANCH  16  17
HETATM   17  C4  UNL     1      16.287  51.220  21.501  1.00  0.00     0.125 C
BRANCH  17  18
HETATM   18  C5  UNL     1      14.962  51.862  21.875  1.00  0.00     0.285 C
BRANCH  18  19
HETATM   19  N4  UNL     1      14.166  51.904  20.658  1.00  0.00    -0.066 N
ATOM     20  H43 UNL     1      13.775  52.825  20.463  1.00  0.00     0.275 HD
ATOM     21  H42 UNL     1      14.724  51.821  19.808  1.00  0.00     0.275 HD
ATOM     22  H41 UNL     1      13.458  51.176  20.750  1.00  0.00     0.275 HD
ENDBRANCH  18  19
BRANCH  18  23
HETATM   23  C6  UNL     1      15.152  53.262  22.334  1.00  0.00     0.267 C
HETATM   24  O1  UNL     1      14.199  53.803  22.942  1.00  0.00    -0.269 OA
HETATM   25  N5  UNL     1      16.335  53.975  22.110  1.00  0.00    -0.275 N
ATOM     26  H5  UNL     1      17.109  53.532  21.614  1.00  0.00     0.189 HD
BRANCH  25  27
HETATM   27  N6  UNL     1      16.460  55.284  22.561  1.00  0.00    -0.343 N
ATOM     28  H62 UNL     1      17.268  55.832  22.265  1.00  0.00     0.176 HD
ATOM     29  H61 UNL     1      15.753  55.685  23.178  1.00  0.00     0.176 HD
ENDBRANCH  25  27
ENDBRANCH  18  23
ENDBRANCH  17  18
ENDBRANCH  16  17
ENDBRANCH   7  16
BRANCH  10  30
HETATM   30  N8  UNL     1      19.178  48.495  16.740  1.00  0.00    -0.342 N
ATOM     31  H8  UNL     1      18.846  47.727  16.158  1.00  0.00     0.167 HD
BRANCH  30  32
HETATM   32  C8  UNL     1      20.577  48.541  17.033  1.00  0.00     0.033 A
HETATM   33  C9  UNL     1      21.461  47.596  16.594  1.00  0.00     0.029 A
HETATM   34  C10 UNL     1      22.820  47.660  16.880  1.00  0.00     0.002 A
HETATM   35  C11 UNL     1      23.288  48.714  17.633  1.00  0.00     0.000 A
HETATM   36  C12 UNL     1      22.424  49.682  18.089  1.00  0.00     0.002 A
HETATM   37  C13 UNL     1      21.072  49.582  17.782  1.00  0.00     0.029 A
ENDBRANCH  30  32
ENDBRANCH  10  30
BRANCH   1  38
HETATM   38  N1  UNL     1      15.987  53.376  14.193  1.00  0.00    -0.384 N
ATOM     39  H12 UNL     1      15.882  54.301  14.609  1.00  0.00     0.157 HD
ATOM     40  H11 UNL     1      15.685  53.188  13.236  1.00  0.00     0.157 HD
ENDBRANCH   1  38
TORSDOF 9
ENDMDL