MODEL 1
REMARK VINA RESULT: -7.196458429      0.000      0.000
REMARK  8 active torsions:
REMARK  status: ('A' for Active; 'I' for Inactive)
REMARK    1  A    between atoms: C1_4  and  C2_6
REMARK    2  A    between atoms: C5_9  and  N3_10
REMARK    3  A    between atoms: N4_12  and  C6_14
REMARK    4  A    between atoms: C7_17  and  N6_18
REMARK    5  A    between atoms: C10_27  and  C11_28
REMARK    6  A    between atoms: C11_28  and  C12_30
REMARK    7  A    between atoms: C12_30  and  C13_32
REMARK    8  A    between atoms: C13_32  and  N10_33
ROOT
HETATM    1  C6  UNL     1      15.175  54.391  25.312  1.00  0.00     0.149 A
HETATM    2  N5  UNL     1      14.408  53.300  25.432  1.00  0.00    -0.175 N
ATOM      3  H5  UNL     1      13.641  53.168  24.773  1.00  0.00     0.186 HD
HETATM    4  C7  UNL     1      14.601  52.377  26.372  1.00  0.00     0.678 A
HETATM    5  N7  UNL     1      15.610  52.567  27.224  1.00  0.00    -0.185 N
ATOM      6  H7  UNL     1      15.787  51.880  27.956  1.00  0.00     0.185 HD
HETATM    7  C8  UNL     1      16.411  53.673  27.129  1.00  0.00     0.107 A
HETATM    8  S1  UNL     1      17.773  54.165  28.024  1.00  0.00    -0.055 SA
HETATM    9  C9  UNL     1      18.120  55.593  27.197  1.00  0.00     0.102 A
HETATM   10  N8  UNL     1      19.202  56.475  27.507  1.00  0.00    -0.093 NA
HETATM   11  C10 UNL     1      17.144  55.683  26.200  1.00  0.00     0.040 A
HETATM   12  C14 UNL     1      16.251  54.646  26.185  1.00  0.00     0.059 A
ENDROOT
BRANCH   1  13
HETATM   13  N4  UNL     1      14.854  55.206  24.210  1.00  0.00    -0.284 N
HETATM   14  N3  UNL     1      15.027  54.908  23.022  1.00  0.00    -0.299 N
ATOM     15  H3  UNL     1      14.739  55.615  22.344  1.00  0.00     0.187 HD
ATOM     16  H4  UNL     1      14.444  56.119  24.408  1.00  0.00     0.188 HD
BRANCH  14  17
HETATM   17  C5  UNL     1      15.569  53.724  22.473  1.00  0.00     0.048 A
HETATM   18  C4  UNL     1      14.723  52.698  22.034  1.00  0.00     0.032 A
HETATM   19  C3  UNL     1      15.212  51.529  21.489  1.00  0.00     0.017 A
HETATM   20  C2  UNL     1      16.572  51.328  21.357  1.00  0.00     0.005 A
HETATM   21  C16 UNL     1      17.423  52.324  21.783  1.00  0.00     0.017 A
HETATM   22  C15 UNL     1      16.921  53.485  22.324  1.00  0.00     0.032 A
BRANCH  20  23
HETATM   23  C1  UNL     1      17.076  50.087  20.779  1.00  0.00     0.120 C
HETATM   24  N1  UNL     1      16.740  48.954  21.285  1.00  0.00    -0.387 N
ATOM     25  H12 UNL     1      17.092  48.086  20.881  1.00  0.00     0.157 HD
ATOM     26  H11 UNL     1      16.118  48.959  22.093  1.00  0.00     0.157 HD
HETATM   27  N2  UNL     1      17.942  50.080  19.654  1.00  0.00    -0.082 NA
ENDBRANCH  20  23
ENDBRANCH  14  17
ENDBRANCH   1  13
BRANCH   4  28
HETATM   28  N6  UNL     1      13.819  51.355  26.422  1.00  0.00    -0.234 N
ATOM     29  H62 UNL     1      13.099  51.169  25.724  1.00  0.00     0.174 HD
ATOM     30  H61 UNL     1      13.914  50.691  27.190  1.00  0.00     0.174 HD
ENDBRANCH   4  28
BRANCH  11  31
HETATM   31  C11 UNL     1      17.233  56.887  25.300  1.00  0.00     0.107 C
HETATM   32  N9  UNL     1      17.511  56.553  23.917  1.00  0.00    -0.098 NA
BRANCH  31  33
HETATM   33  C12 UNL     1      16.265  57.951  25.502  1.00  0.00     0.199 C
HETATM   34  O1  UNL     1      15.622  58.008  26.531  1.00  0.00    -0.289 OA
BRANCH  33  35
HETATM   35  C13 UNL     1      16.046  58.992  24.467  1.00  0.00     0.314 C
BRANCH  35  36
HETATM   36  N10 UNL     1      15.061  58.569  23.482  1.00  0.00    -0.072 N
ATOM     37 3H10 UNL     1      15.364  57.728  22.989  1.00  0.00     0.274 HD
ATOM     38 2H10 UNL     1      14.223  58.196  23.928  1.00  0.00     0.274 HD
ATOM     39 1H10 UNL     1      14.833  59.320  22.831  1.00  0.00     0.274 HD
ENDBRANCH  35  36
ENDBRANCH  33  35
ENDBRANCH  31  33
ENDBRANCH  11  31
TORSDOF 8
ENDMDL