MODEL 3
REMARK VINA RESULT: -9.695245048      1.494      2.504
REMARK  8 active torsions:
REMARK  status: ('A' for Active; 'I' for Inactive)
REMARK    1  A    between atoms: N1_1  and  C1_4
REMARK    2  A    between atoms: C3_9  and  N4_10
REMARK       I    between atoms: N4_10  and  C4_12
REMARK    3  A    between atoms: C4_12  and  C5_14
REMARK    4  A    between atoms: C5_14  and  C6_15
REMARK       I    between atoms: C6_15  and  N5_17
REMARK    5  A    between atoms: N5_17  and  C7_19
REMARK    6  A    between atoms: C10_22  and  N6_23
REMARK    7  A    between atoms: C11_26  and  N7_27
REMARK    8  A    between atoms: C13_31  and  N8_32
ROOT
HETATM    1  N4  UNL     1      18.818  49.008  17.414  1.00  0.00    -0.321 N
ATOM      2  H4  UNL     1      18.229  48.390  17.971  1.00  0.00     0.169 HD
HETATM    3  C4  UNL     1      18.245  50.191  16.850  1.00  0.00     0.231 C
HETATM    4  O1  UNL     1      19.003  50.936  16.169  1.00  0.00    -0.273 OA
ENDROOT
BRANCH   3   5
HETATM    5  C5  UNL     1      16.829  50.480  17.083  1.00  0.00     0.206 C
BRANCH   5   6
HETATM    6  C6  UNL     1      16.470  50.473  18.515  1.00  0.00     0.231 C
HETATM    7  O2  UNL     1      16.476  49.373  19.096  1.00  0.00    -0.273 OA
HETATM    8  N5  UNL     1      16.144  51.654  19.168  1.00  0.00    -0.327 N
ATOM      9  H5  UNL     1      16.182  52.490  18.587  1.00  0.00     0.169 HD
BRANCH   8  10
HETATM   10  C7  UNL     1      15.769  51.878  20.509  1.00  0.00     0.037 A
HETATM   11  C8  UNL     1      14.631  51.321  21.014  1.00  0.00     0.032 A
HETATM   12  C9  UNL     1      14.319  51.544  22.328  1.00  0.00     0.041 A
HETATM   13  C10 UNL     1      15.153  52.338  23.163  1.00  0.00     0.136 A
HETATM   14  C11 UNL     1      16.274  52.895  22.672  1.00  0.00     0.138 A
HETATM   15  C12 UNL     1      16.591  52.663  21.328  1.00  0.00     0.068 A
BRANCH  13  16
HETATM   16  N6  UNL     1      14.731  52.472  24.497  1.00  0.00    -0.113 N
HETATM   17  O3  UNL     1      13.495  52.500  24.734  1.00  0.00    -0.532 OA
HETATM   18  O4  UNL     1      15.559  52.575  25.548  1.00  0.00    -0.532 OA
ENDBRANCH  13  16
BRANCH  14  19
HETATM   19  N7  UNL     1      17.175  53.718  23.387  1.00  0.00    -0.113 N
HETATM   20  O5  UNL     1      16.926  54.979  23.452  1.00  0.00    -0.532 OA
HETATM   21  O6  UNL     1      18.297  53.344  24.025  1.00  0.00    -0.532 OA
ENDBRANCH  14  19
ENDBRANCH   8  10
ENDBRANCH   5   6
ENDBRANCH   3   5
BRANCH   1  22
HETATM   22  C3  UNL     1      20.185  48.671  17.218  1.00  0.00     0.121 A
HETATM   23  C2  UNL     1      20.503  47.631  16.345  1.00  0.00     0.162 A
HETATM   24  N2  UNL     1      21.789  47.298  16.150  1.00  0.00    -0.177 N
HETATM   25  N3  UNL     1      19.467  46.938  15.678  1.00  0.00    -0.080 NA
HETATM   26  C1  UNL     1      22.732  47.987  16.808  1.00  0.00     0.678 A
ATOM     27  H2  UNL     1      22.042  46.539  15.517  1.00  0.00     0.185 HD
HETATM   28  N9  UNL     1      22.434  49.002  17.658  1.00  0.00    -0.175 N
HETATM   29  C13 UNL     1      21.161  49.372  17.887  1.00  0.00     0.145 A
ATOM     30  H9  UNL     1      23.190  49.494  18.132  1.00  0.00     0.186 HD
BRANCH  26  31
HETATM   31  N1  UNL     1      23.993  47.703  16.654  1.00  0.00    -0.234 N
ATOM     32  H12 UNL     1      24.653  48.473  16.759  1.00  0.00     0.174 HD
ATOM     33  H11 UNL     1      24.290  46.752  16.439  1.00  0.00     0.174 HD
ENDBRANCH  26  31
BRANCH  29  34
HETATM   34  N8  UNL     1      20.908  50.337  18.696  1.00  0.00    -0.383 N
ATOM     35  H82 UNL     1      19.947  50.646  18.837  1.00  0.00     0.157 HD
ATOM     36  H81 UNL     1      21.628  50.830  19.224  1.00  0.00     0.157 HD
ENDBRANCH  29  34
ENDBRANCH   1  22
TORSDOF 8
ENDMDL