MODEL 4
REMARK VINA RESULT: -7.356409282      2.536      5.095
REMARK  8 active torsions:
REMARK  status: ('A' for Active; 'I' for Inactive)
REMARK    1  A    between atoms: N2_3  and  N3_5
REMARK    2  A    between atoms: N3_5  and  C2_7
REMARK    3  A    between atoms: C3_8  and  C4_9
REMARK    4  A    between atoms: C4_9  and  S1_10
REMARK    5  A    between atoms: S1_10  and  C5_11
REMARK    6  A    between atoms: N7_21  and  C7_22
REMARK    7  A    between atoms: C7_22  and  C8_23
REMARK    8  A    between atoms: C10_29  and  N9_30
ROOT
HETATM    1  N1  UNL     1      12.963  50.377  20.907  1.00  0.00    -0.170 NA
HETATM    2  C1  UNL     1      13.549  50.597  19.955  1.00  0.00     0.197 C
HETATM    3  N2  UNL     1      14.280  50.843  18.858  1.00  0.00    -0.236 N
ATOM      4  H2  UNL     1      14.052  50.224  18.080  1.00  0.00     0.199 HD
ENDROOT
BRANCH   3   5
HETATM    5  N3  UNL     1      15.174  51.660  18.582  1.00  0.00    -0.289 N
ATOM      6  H3  UNL     1      15.122  52.639  18.863  1.00  0.00     0.188 HD
BRANCH   5   7
HETATM    7  C2  UNL     1      16.295  51.129  17.833  1.00  0.00     0.091 A
HETATM    8  C3  UNL     1      17.227  50.227  18.351  1.00  0.00     0.052 A
HETATM    9  N7  UNL     1      18.122  49.951  17.435  1.00  0.00    -0.322 N
HETATM   10  C9  UNL     1      17.794  50.677  16.317  1.00  0.00     0.142 A
HETATM   11  N8  UNL     1      18.342  50.816  15.114  1.00  0.00    -0.175 N
HETATM   12  C12 UNL     1      16.654  51.413  16.573  1.00  0.00     0.107 A
HETATM   13  C10 UNL     1      17.812  51.637  14.224  1.00  0.00     0.680 A
ATOM     14  H8  UNL     1      19.178  50.284  14.875  1.00  0.00     0.186 HD
HETATM   15  N10 UNL     1      16.712  52.374  14.440  1.00  0.00    -0.155 N
HETATM   16  C11 UNL     1      16.105  52.267  15.645  1.00  0.00     0.276 A
ATOM     17  H10 UNL     1      16.345  52.996  13.720  1.00  0.00     0.187 HD
HETATM   18  O3  UNL     1      15.048  52.929  15.939  1.00  0.00    -0.267 OA
BRANCH   8  19
HETATM   19  C4  UNL     1      17.100  49.716  19.754  1.00  0.00     0.141 C
BRANCH  19  20
HETATM   20  S1  UNL     1      17.703  50.906  20.907  1.00  0.00    -0.097 SA
BRANCH  20  21
HETATM   21  C5  UNL     1      16.530  51.843  21.794  1.00  0.00     0.130 A
HETATM   22  N4  UNL     1      15.415  51.516  22.401  1.00  0.00    -0.286 N
HETATM   23  N5  UNL     1      14.733  52.353  23.066  1.00  0.00    -0.279 N
ATOM     24  H4  UNL     1      15.085  50.554  22.336  1.00  0.00     0.188 HD
HETATM   25  C6  UNL     1      15.162  53.604  23.146  1.00  0.00     0.159 A
ATOM     26  H5  UNL     1      13.871  52.069  23.530  1.00  0.00     0.189 HD
HETATM   27  N6  UNL     1      14.644  54.657  23.747  1.00  0.00    -0.379 N
HETATM   28  S2  UNL     1      16.616  53.554  22.214  1.00  0.00    -0.027 SA
ATOM     29  H62 UNL     1      13.785  54.686  24.298  1.00  0.00     0.158 HD
ATOM     30  H61 UNL     1      14.974  55.620  23.809  1.00  0.00     0.158 HD
ENDBRANCH  20  21
ENDBRANCH  19  20
ENDBRANCH   8  19
BRANCH   9  31
HETATM   31  C7  UNL     1      19.139  48.918  17.344  1.00  0.00     0.243 C
BRANCH  31  32
HETATM   32  C8  UNL     1      20.471  49.551  17.738  1.00  0.00     0.191 C
HETATM   33  O1  UNL     1      21.518  49.049  17.293  1.00  0.00    -0.647 OA
HETATM   34  O2  UNL     1      20.526  50.667  18.571  1.00  0.00    -0.647 OA
ENDBRANCH  31  32
ENDBRANCH   9  31
BRANCH  13  35
HETATM   35  N9  UNL     1      18.393  51.736  13.068  1.00  0.00    -0.234 N
ATOM     36  H92 UNL     1      18.804  50.893  12.666  1.00  0.00     0.174 HD
ATOM     37  H91 UNL     1      18.410  52.652  12.620  1.00  0.00     0.174 HD
ENDBRANCH  13  35
ENDBRANCH   5   7
ENDBRANCH   3   5
TORSDOF 8
ENDMDL