MODEL 5
REMARK VINA RESULT: -7.989043661      6.834      8.538
REMARK  9 active torsions:
REMARK  status: ('A' for Active; 'I' for Inactive)
REMARK    1  A    between atoms: C1_4  and  C2_6
REMARK    2  A    between atoms: C4_8  and  C5_9
REMARK    3  A    between atoms: C9_13  and  N3_14
REMARK    4  A    between atoms: N5_19  and  C10_20
REMARK    5  A    between atoms: C10_20  and  S1_21
REMARK    6  A    between atoms: S1_21  and  C11_22
REMARK    7  A    between atoms: C11_22  and  C12_23
REMARK    8  A    between atoms: C12_23  and  O1_24
REMARK    9  A    between atoms: N6_28  and  O3_29
ROOT
HETATM    1  C5  UNL     1      18.720  50.068  15.677  1.00  0.00     0.048 A
HETATM    2  C6  UNL     1      17.784  50.398  16.600  1.00  0.00     0.065 A
HETATM    3  C7  UNL     1      16.841  51.419  16.330  1.00  0.00     0.100 A
HETATM    4  C8  UNL     1      16.855  52.093  15.135  1.00  0.00     0.113 A
HETATM    5  C9  UNL     1      17.807  51.735  14.234  1.00  0.00     0.129 A
HETATM    6  N4  UNL     1      18.700  50.749  14.521  1.00  0.00    -0.340 N
ATOM      7  H4  UNL     1      19.397  50.514  13.815  1.00  0.00     0.167 HD
HETATM    8  N5  UNL     1      15.856  53.006  15.143  1.00  0.00    -0.283 N
HETATM    9  C13 UNL     1      15.238  52.884  16.343  1.00  0.00     0.354 A
HETATM   10  O2  UNL     1      14.247  53.597  16.689  1.00  0.00    -0.244 OA
HETATM   11  N6  UNL     1      15.841  51.912  17.074  1.00  0.00    -0.170 N
ENDROOT
BRANCH   1  12
HETATM   12  C4  UNL     1      19.710  48.972  15.899  1.00  0.00     0.023 A
HETATM   13  C3  UNL     1      20.951  49.256  16.394  1.00  0.00     0.038 A
HETATM   14  C2  UNL     1      21.801  48.211  16.601  1.00  0.00     0.048 A
HETATM   15  S2  UNL     1      20.903  46.860  16.120  1.00  0.00    -0.071 SA
HETATM   16  C14 UNL     1      19.446  47.659  15.660  1.00  0.00     0.100 A
HETATM   17  N7  UNL     1      18.259  46.993  15.161  1.00  0.00    -0.093 NA
BRANCH  14  18
HETATM   18  C1  UNL     1      23.185  48.276  17.127  1.00  0.00     0.127 C
HETATM   19  N1  UNL     1      24.041  47.486  16.630  1.00  0.00    -0.387 N
ATOM     20  H12 UNL     1      24.994  47.530  16.991  1.00  0.00     0.157 HD
ATOM     21  H11 UNL     1      23.813  46.818  15.894  1.00  0.00     0.157 HD
HETATM   22  N2  UNL     1      23.499  49.190  18.133  1.00  0.00    -0.082 NA
ENDBRANCH  14  18
ENDBRANCH   1  12
BRANCH   5  23
HETATM   23  N3  UNL     1      17.856  52.344  13.086  1.00  0.00    -0.384 N
ATOM     24  H32 UNL     1      18.719  52.342  12.543  1.00  0.00     0.157 HD
ATOM     25  H31 UNL     1      17.023  52.820  12.739  1.00  0.00     0.157 HD
ENDBRANCH   5  23
BRANCH  11  26
HETATM   26  O3  UNL     1      15.505  51.501  18.329  1.00  0.00    -0.278 OA
ATOM     27  H3  UNL     1      16.116  51.299  19.027  1.00  0.00     0.245 HD
ENDBRANCH  11  26
BRANCH   8  28
HETATM   28  C10 UNL     1      15.507  53.932  14.091  1.00  0.00     0.208 C
BRANCH  28  29
HETATM   29  S1  UNL     1      14.156  53.310  13.049  1.00  0.00    -0.147 SA
BRANCH  29  30
HETATM   30  C11 UNL     1      12.630  54.099  13.599  1.00  0.00     0.101 C
BRANCH  30  31
HETATM   31  C12 UNL     1      11.640  54.252  12.446  1.00  0.00     0.174 C
BRANCH  31  32
HETATM   32  O1  UNL     1      12.040  53.470  11.383  1.00  0.00    -0.400 OA
ATOM     33  H1  UNL     1      12.952  53.645  11.182  1.00  0.00     0.209 HD
ENDBRANCH  31  32
ENDBRANCH  30  31
ENDBRANCH  29  30
ENDBRANCH  28  29
ENDBRANCH   8  28
TORSDOF 9
ENDMDL