MODEL 1
REMARK VINA RESULT: -8.497150921      0.000      0.000
REMARK  8 active torsions:
REMARK  status: ('A' for Active; 'I' for Inactive)
REMARK    1  A    between atoms: N1_1  and  C1_4
REMARK    2  A    between atoms: C2_7  and  S1_8
REMARK    3  A    between atoms: S1_8  and  C3_9
REMARK    4  A    between atoms: C3_9  and  C4_10
REMARK    5  A    between atoms: C12_22  and  C13_23
REMARK    6  A    between atoms: C13_23  and  N5_24
REMARK    7  A    between atoms: C17_31  and  C18_32
REMARK    8  A    between atoms: C18_32  and  O1_33
ROOT
HETATM    1  C1  UNL     1      16.378  49.999  21.016  1.00  0.00     0.131 A
HETATM    2  N2  UNL     1      15.904  50.928  21.862  1.00  0.00    -0.321 N
ATOM      3  H2  UNL     1      15.871  50.736  22.863  1.00  0.00     0.169 HD
HETATM    4  C2  UNL     1      15.472  52.117  21.388  1.00  0.00     0.147 A
HETATM    5  N3  UNL     1      15.498  52.410  20.086  1.00  0.00    -0.321 N
ATOM      6  H3  UNL     1      15.163  53.315  19.757  1.00  0.00     0.169 HD
HETATM    7  C10 UNL     1      15.966  51.503  19.207  1.00  0.00     0.134 A
HETATM    8  C11 UNL     1      16.415  50.281  19.657  1.00  0.00     0.117 A
HETATM    9  N4  UNL     1      16.902  49.349  18.710  1.00  0.00    -0.376 N
ATOM     10  H4  UNL     1      16.945  48.360  18.954  1.00  0.00     0.160 HD
HETATM   11  C12 UNL     1      17.338  49.779  17.410  1.00  0.00     0.126 C
HETATM   12  C17 UNL     1      16.350  50.782  16.852  1.00  0.00     0.131 C
HETATM   13  N8  UNL     1      16.009  51.774  17.825  1.00  0.00    -0.365 N
ATOM     14  H8  UNL     1      15.789  52.718  17.504  1.00  0.00     0.161 HD
ENDROOT
BRANCH   4  15
HETATM   15  S1  UNL     1      14.860  53.292  22.578  1.00  0.00    -0.089 SA
BRANCH  15  16
HETATM   16  C3  UNL     1      14.680  52.393  24.165  1.00  0.00     0.121 C
BRANCH  16  17
HETATM   17  C4  UNL     1      15.842  52.766  25.014  1.00  0.00    -0.049 A
HETATM   18  C5  UNL     1      16.998  53.325  24.467  1.00  0.00     0.008 A
HETATM   19  C6  UNL     1      18.071  53.668  25.256  1.00  0.00     0.001 A
HETATM   20  C7  UNL     1      18.059  53.477  26.616  1.00  0.00     0.000 A
HETATM   21  C8  UNL     1      16.933  52.928  27.178  1.00  0.00     0.001 A
HETATM   22  C9  UNL     1      15.844  52.580  26.380  1.00  0.00     0.008 A
ENDBRANCH  16  17
ENDBRANCH  15  16
ENDBRANCH   4  15
BRANCH   1  23
HETATM   23  N1  UNL     1      16.800  48.854  21.427  1.00  0.00    -0.383 N
ATOM     24  H12 UNL     1      16.833  48.075  20.769  1.00  0.00     0.157 HD
ATOM     25  H11 UNL     1      17.103  48.702  22.389  1.00  0.00     0.157 HD
ENDBRANCH   1  23
BRANCH  12  26
HETATM   26  C18 UNL     1      16.903  51.467  15.622  1.00  0.00     0.191 C
BRANCH  26  27
HETATM   27  O1  UNL     1      16.067  52.476  15.167  1.00  0.00    -0.399 OA
ATOM     28  H1  UNL     1      15.577  52.213  14.398  1.00  0.00     0.209 HD
ENDBRANCH  26  27
ENDBRANCH  12  26
BRANCH  11  29
HETATM   29  C13 UNL     1      18.719  50.397  17.563  1.00  0.00     0.175 C
BRANCH  29  30
HETATM   30  N5  UNL     1      19.697  49.422  17.123  1.00  0.00    -0.300 N
HETATM   31  C14 UNL     1      19.442  48.443  16.209  1.00  0.00     0.113 A
HETATM   32  C15 UNL     1      20.585  47.693  16.019  1.00  0.00     0.065 A
HETATM   33  C16 UNL     1      21.537  48.249  16.847  1.00  0.00     0.132 A
HETATM   34  N6  UNL     1      22.865  47.794  16.971  1.00  0.00    -0.081 NA
HETATM   35  N7  UNL     1      20.964  49.300  17.504  1.00  0.00    -0.286 N
ATOM     36  H7  UNL     1      21.435  49.899  18.182  1.00  0.00     0.188 HD
ENDBRANCH  29  30
ENDBRANCH  11  29
TORSDOF 8
ENDMDL