MODEL 5
REMARK VINA RESULT: -7.316094072      2.030      2.957
REMARK  13 active torsions:
REMARK  status: ('A' for Active; 'I' for Inactive)
REMARK    1  A    between atoms: C4_9  and  C5_10
REMARK    2  A    between atoms: C5_10  and  O2_12
REMARK    3  A    between atoms: O2_12  and  C6_13
REMARK    4  A    between atoms: C6_13  and  C7_14
REMARK    5  A    between atoms: C7_14  and  C8_15
REMARK    6  A    between atoms: C8_15  and  C9_16
REMARK    7  A    between atoms: C9_16  and  C10_17
REMARK    8  A    between atoms: C10_17  and  S1_18
REMARK    9  A    between atoms: S1_18  and  C11_19
REMARK   10  A    between atoms: C11_19  and  O3_20
REMARK   11  A    between atoms: N3_22  and  O4_24
REMARK   12  A    between atoms: C12_26  and  O5_27
REMARK   13  A    between atoms: C13_32  and  N5_33
ROOT
HETATM    1  N1  UNL     1      16.838  53.493  26.664  1.00  0.00    -0.380 N
ATOM      2  H11 UNL     1      16.425  53.641  27.585  1.00  0.00     0.158 HD
ATOM      3  H12 UNL     1      17.683  52.945  26.828  1.00  0.00     0.158 HD
HETATM    4  C1  UNL     1      16.424  53.885  25.537  1.00  0.00     0.137 C
HETATM    5  N2  UNL     1      16.994  53.682  24.265  1.00  0.00    -0.336 N
ATOM      6  H2  UNL     1      17.986  53.496  24.119  1.00  0.00     0.164 HD
HETATM    7  C2  UNL     1      16.048  53.760  23.205  1.00  0.00     0.240 C
HETATM    8  C3  UNL     1      16.737  53.826  21.884  1.00  0.00     0.084 C
HETATM    9  C4  UNL     1      16.535  52.462  21.222  1.00  0.00     0.146 C
HETATM   10  C12 UNL     1      15.245  52.026  21.860  1.00  0.00     0.335 C
HETATM   11  N4  UNL     1      15.153  52.617  23.158  1.00  0.00    -0.019 N
ATOM     12  H41 UNL     1      14.195  52.858  23.412  1.00  0.00     0.283 HD
ATOM     13  H42 UNL     1      15.330  51.948  23.908  1.00  0.00     0.283 HD
HETATM   14  C13 UNL     1      15.169  54.993  23.422  1.00  0.00     0.308 C
HETATM   15  S2  UNL     1      14.948  54.842  25.250  1.00  0.00    -0.057 SA
ENDROOT
BRANCH   9  16
HETATM   16  C5  UNL     1      16.408  52.686  19.771  1.00  0.00     0.267 C
HETATM   17  O1  UNL     1      15.708  53.647  19.367  1.00  0.00    -0.265 OA
BRANCH  16  18
HETATM   18  O2  UNL     1      17.023  51.890  18.822  1.00  0.00    -0.321 OA
BRANCH  18  19
HETATM   19  C6  UNL     1      17.608  50.642  19.031  1.00  0.00     0.178 C
BRANCH  19  20
HETATM   20  C7  UNL     1      18.832  50.355  18.228  1.00  0.00     0.027 C
BRANCH  20  21
HETATM   21  C8  UNL     1      18.868  51.060  16.910  1.00  0.00     0.003 C
BRANCH  21  22
HETATM   22  C9  UNL     1      18.071  50.306  15.848  1.00  0.00     0.011 C
BRANCH  22  23
HETATM   23  C10 UNL     1      17.945  51.160  14.602  1.00  0.00     0.083 C
BRANCH  23  24
HETATM   24  S1  UNL     1      17.809  52.924  15.034  1.00  0.00    -0.085 SA
BRANCH  24  25
HETATM   25  C11 UNL     1      16.158  53.328  15.531  1.00  0.00     0.199 C
HETATM   26  N3  UNL     1      15.528  54.271  14.932  1.00  0.00    -0.242 N
ATOM     27  H3  UNL     1      14.578  54.482  15.241  1.00  0.00     0.197 HD
BRANCH  25  28
HETATM   28  O3  UNL     1      15.564  52.625  16.560  1.00  0.00    -0.340 OA
ATOM     29  H3  UNL     1      15.037  53.087  17.202  1.00  0.00     0.220 HD
ENDBRANCH  25  28
BRANCH  26  30
HETATM   30  O4  UNL     1      16.043  55.008  13.913  1.00  0.00    -0.287 OA
ATOM     31  H4  UNL     1      16.505  54.641  13.169  1.00  0.00     0.244 HD
ENDBRANCH  26  30
ENDBRANCH  24  25
ENDBRANCH  23  24
ENDBRANCH  22  23
ENDBRANCH  21  22
ENDBRANCH  20  21
ENDBRANCH  19  20
ENDBRANCH  18  19
ENDBRANCH  16  18
ENDBRANCH   9  16
BRANCH  10  32
HETATM   32  O5  UNL     1      14.128  52.243  21.072  1.00  0.00    -0.369 OA
ATOM     33  H5  UNL     1      14.046  51.638  20.344  1.00  0.00     0.212 HD
ENDBRANCH  10  32
BRANCH  14  34
HETATM   34  N5  UNL     1      15.877  56.209  23.177  1.00  0.00    -0.062 N
ATOM     35  H53 UNL     1      15.535  56.962  23.774  1.00  0.00     0.275 HD
ATOM     36  H52 UNL     1      16.837  56.153  23.520  1.00  0.00     0.275 HD
ATOM     37  H51 UNL     1      15.851  56.476  22.193  1.00  0.00     0.275 HD
ENDBRANCH  14  34
TORSDOF 13
ENDMDL