MODEL 4
REMARK VINA RESULT: -8.356323861      2.930      7.110
REMARK  9 active torsions:
REMARK  status: ('A' for Active; 'I' for Inactive)
REMARK    1  A    between atoms: C3_10  and  S1_11
REMARK    2  A    between atoms: S1_11  and  C4_12
REMARK    3  A    between atoms: C4_12  and  C5_13
REMARK    4  A    between atoms: C7_18  and  N6_19
REMARK    5  A    between atoms: C10_28  and  S2_29
REMARK    6  A    between atoms: S2_29  and  C11_30
REMARK    7  A    between atoms: C11_30  and  C12_31
REMARK    8  A    between atoms: C12_31  and  C13_32
REMARK    9  A    between atoms: C13_32  and  O3_33
ROOT
HETATM    1  N1  UNL     1      14.246  56.060  17.025  1.00  0.00    -0.234 N
ATOM      2  H11 UNL     1      13.661  56.458  17.760  1.00  0.00     0.174 HD
ATOM      3  H12 UNL     1      14.314  56.528  16.121  1.00  0.00     0.174 HD
HETATM    4  C1  UNL     1      14.950  55.005  17.258  1.00  0.00     0.678 A
HETATM    5  N2  UNL     1      15.735  54.471  16.271  1.00  0.00    -0.174 N
ATOM      6  H2  UNL     1      15.804  54.941  15.369  1.00  0.00     0.186 HD
HETATM    7  C2  UNL     1      16.409  53.345  16.481  1.00  0.00     0.160 A
HETATM    8  N3  UNL     1      17.243  52.530  15.750  1.00  0.00    -0.314 N
ATOM      9  H3  UNL     1      17.537  52.693  14.787  1.00  0.00     0.170 HD
HETATM   10  C3  UNL     1      17.613  51.468  16.524  1.00  0.00     0.189 A
HETATM   11  O2  UNL     1      17.039  51.623  17.670  1.00  0.00    -0.281 OA
HETATM   12  C9  UNL     1      16.320  52.709  17.686  1.00  0.00     0.157 A
HETATM   13  C10 UNL     1      15.519  53.262  18.705  1.00  0.00     0.124 A
HETATM   14  N8  UNL     1      14.862  54.395  18.435  1.00  0.00    -0.183 N
ATOM     15  H8  UNL     1      14.272  54.806  19.158  1.00  0.00     0.185 HD
ENDROOT
BRANCH  10  16
HETATM   16  S1  UNL     1      18.709  50.153  15.949  1.00  0.00    -0.081 SA
BRANCH  16  17
HETATM   17  C4  UNL     1      19.295  49.411  17.569  1.00  0.00     0.130 C
BRANCH  17  18
HETATM   18  C5  UNL     1      20.752  49.348  17.547  1.00  0.00     0.062 A
HETATM   19  C6  UNL     1      21.331  48.194  16.990  1.00  0.00     0.144 A
HETATM   20  N4  UNL     1      20.480  47.299  16.312  1.00  0.00    -0.081 NA
HETATM   21  N5  UNL     1      22.673  48.035  17.051  1.00  0.00    -0.178 N
HETATM   22  C7  UNL     1      23.474  48.917  17.610  1.00  0.00     0.680 A
ATOM     23  H5  UNL     1      23.083  47.193  16.646  1.00  0.00     0.185 HD
HETATM   24  N7  UNL     1      22.921  50.022  18.145  1.00  0.00    -0.156 N
HETATM   25  C8  UNL     1      21.598  50.245  18.121  1.00  0.00     0.270 A
ATOM     26  H7  UNL     1      23.529  50.713  18.585  1.00  0.00     0.187 HD
HETATM   27  O1  UNL     1      21.106  51.303  18.630  1.00  0.00    -0.267 OA
BRANCH  22  28
HETATM   28  N6  UNL     1      24.767  48.809  17.619  1.00  0.00    -0.234 N
ATOM     29  H62 UNL     1      25.217  48.318  16.847  1.00  0.00     0.174 HD
ATOM     30  H61 UNL     1      25.356  49.147  18.380  1.00  0.00     0.174 HD
ENDBRANCH  22  28
ENDBRANCH  17  18
ENDBRANCH  16  17
ENDBRANCH  10  16
BRANCH  13  31
HETATM   31  S2  UNL     1      15.488  52.395  20.259  1.00  0.00    -0.109 SA
BRANCH  31  32
HETATM   32  C11 UNL     1      17.142  52.243  20.939  1.00  0.00     0.083 C
BRANCH  32  33
HETATM   33  C12 UNL     1      17.819  50.931  20.808  1.00  0.00     0.036 C
BRANCH  33  34
HETATM   34  C13 UNL     1      16.690  49.875  20.767  1.00  0.00     0.165 C
BRANCH  34  35
HETATM   35  O3  UNL     1      16.633  49.223  19.548  1.00  0.00    -0.401 OA
ATOM     36  H3  UNL     1      16.314  48.332  19.635  1.00  0.00     0.209 HD
ENDBRANCH  34  35
ENDBRANCH  33  34
ENDBRANCH  32  33
ENDBRANCH  31  32
ENDBRANCH  13  31
TORSDOF 9
ENDMDL