MODEL 4
REMARK VINA RESULT: -8.311359155      1.840      2.977
REMARK  10 active torsions:
REMARK  status: ('A' for Active; 'I' for Inactive)
REMARK    1  A    between atoms: C2_3  and  C3_4
REMARK    2  A    between atoms: C3_4  and  N2_5
REMARK    3  A    between atoms: C3_4  and  N3_8
REMARK    4  A    between atoms: N3_8  and  C4_10
REMARK    5  A    between atoms: C4_10  and  C5_11
REMARK    6  A    between atoms: C5_11  and  C6_12
REMARK    7  A    between atoms: C8_14  and  N4_15
REMARK    8  A    between atoms: N4_15  and  C9_17
REMARK    9  A    between atoms: C9_17  and  O1_18
REMARK   10  A    between atoms: C9_17  and  C10_20
REMARK       I    between atoms: C10_20  and  N5_22
ROOT
HETATM    1  N1  UNL     1      13.286  51.457  24.957  1.00  0.00    -0.197 NA
HETATM    2  C1  UNL     1      13.949  52.215  25.568  1.00  0.00     0.066 C
HETATM    3  C2  UNL     1      14.783  53.130  26.333  1.00  0.00     0.199 C
ENDROOT
BRANCH   3   4
HETATM    4  C3  UNL     1      14.112  54.443  26.413  1.00  0.00     0.083 C
BRANCH   4   5
HETATM    5  N2  UNL     1      12.829  54.440  26.575  1.00  0.00    -0.388 N
ATOM      6  H22 UNL     1      12.205  54.372  25.771  1.00  0.00     0.157 HD
ATOM      7  H21 UNL     1      12.481  54.511  27.532  1.00  0.00     0.157 HD
ENDBRANCH   4   5
BRANCH   4   8
HETATM    8  N3  UNL     1      14.814  55.647  26.327  1.00  0.00    -0.379 N
ATOM      9  H3  UNL     1      14.746  56.301  27.107  1.00  0.00     0.160 HD
BRANCH   8  10
HETATM   10  C4  UNL     1      15.623  56.015  25.208  1.00  0.00     0.126 C
BRANCH  10  11
HETATM   11  C5  UNL     1      14.843  55.929  23.901  1.00  0.00     0.066 C
BRANCH  11  12
HETATM   12  C6  UNL     1      15.445  54.788  23.114  1.00  0.00    -0.014 A
HETATM   13  C7  UNL     1      14.901  54.076  22.112  1.00  0.00     0.044 A
HETATM   14  C8  UNL     1      15.635  53.091  21.547  1.00  0.00     0.037 A
HETATM   15  C14 UNL     1      16.884  52.907  22.056  1.00  0.00     0.079 A
HETATM   16  S1  UNL     1      16.993  54.106  23.298  1.00  0.00    -0.104 SA
BRANCH  14  17
HETATM   17  N4  UNL     1      15.146  52.296  20.468  1.00  0.00    -0.356 N
ATOM     18  H4  UNL     1      14.675  51.418  20.689  1.00  0.00     0.162 HD
BRANCH  17  19
HETATM   19  C9  UNL     1      15.282  52.666  19.090  1.00  0.00     0.314 C
BRANCH  19  20
HETATM   20  O1  UNL     1      15.367  54.076  19.038  1.00  0.00    -0.368 OA
ATOM     21  H1  UNL     1      14.812  54.368  18.325  1.00  0.00     0.212 HD
ENDBRANCH  19  20
BRANCH  19  22
HETATM   22  C10 UNL     1      16.395  52.051  18.356  1.00  0.00     0.293 C
HETATM   23  O2  UNL     1      17.080  51.152  18.959  1.00  0.00    -0.266 OA
HETATM   24  N5  UNL     1      16.779  52.368  17.036  1.00  0.00    -0.198 N
HETATM   25  N6  UNL     1      17.794  51.792  16.370  1.00  0.00    -0.273 N
HETATM   26  C13 UNL     1      16.252  53.284  16.194  1.00  0.00     0.178 A
HETATM   27  C11 UNL     1      17.917  52.315  15.149  1.00  0.00     0.146 A
ATOM     28  H6  UNL     1      18.389  51.054  16.747  1.00  0.00     0.189 HD
HETATM   29  N7  UNL     1      18.793  51.997  14.237  1.00  0.00    -0.382 N
HETATM   30  C12 UNL     1      16.956  53.273  14.989  1.00  0.00     0.141 A
ATOM     31  H72 UNL     1      19.510  51.283  14.357  1.00  0.00     0.157 HD
ATOM     32  H71 UNL     1      18.887  52.398  13.304  1.00  0.00     0.157 HD
HETATM   33  N8  UNL     1      16.428  54.184  14.166  1.00  0.00    -0.279 N
HETATM   34  N9  UNL     1      15.434  54.752  14.813  1.00  0.00    -0.240 N
ATOM     35  H8  UNL     1      16.736  54.397  13.217  1.00  0.00     0.189 HD
HETATM   36  N10 UNL     1      15.319  54.234  16.005  1.00  0.00    -0.267 N
ATOM     37  H9  UNL     1      14.840  55.491  14.438  1.00  0.00     0.208 HD
ATOM     38  H10 UNL     1      14.620  54.510  16.695  1.00  0.00     0.190 HD
ENDBRANCH  19  22
ENDBRANCH  17  19
ENDBRANCH  14  17
ENDBRANCH  11  12
ENDBRANCH  10  11
ENDBRANCH   8  10
ENDBRANCH   4   8
ENDBRANCH   3   4
TORSDOF 10
ENDMDL