MODEL 3
REMARK VINA RESULT: -8.260731142      1.734      2.273
REMARK  9 active torsions:
REMARK  status: ('A' for Active; 'I' for Inactive)
REMARK       I    between atoms: C1_4  and  N2_5
REMARK       I    between atoms: C1_4  and  N4_10
REMARK    1  A    between atoms: N2_5  and  N3_7
REMARK    2  A    between atoms: N4_10  and  C2_12
REMARK    3  A    between atoms: C2_12  and  C3_13
REMARK    4  A    between atoms: C3_13  and  C4_14
REMARK    5  A    between atoms: C4_14  and  N5_15
REMARK    6  A    between atoms: N5_15  and  C5_17
REMARK    7  A    between atoms: N7_20  and  N8_21
REMARK    8  A    between atoms: C7_24  and  S1_25
REMARK    9  A    between atoms: S1_25  and  C8_26
ROOT
HETATM    1  C5  UNL     1      16.166  52.072  19.095  1.00  0.00     0.110 A
HETATM    2  C6  UNL     1      16.209  52.569  17.811  1.00  0.00     0.169 A
HETATM    3  N6  UNL     1      15.465  53.761  17.523  1.00  0.00    -0.078 NA
HETATM    4  N7  UNL     1      16.937  51.932  16.881  1.00  0.00    -0.224 N
HETATM    5  C7  UNL     1      17.643  50.810  17.135  1.00  0.00     0.173 A
HETATM    6  N10 UNL     1      17.613  50.309  18.380  1.00  0.00    -0.324 N
ATOM      7  H10 UNL     1      18.139  49.462  18.596  1.00  0.00     0.169 HD
HETATM    8  C14 UNL     1      16.897  50.914  19.348  1.00  0.00     0.132 A
HETATM    9  S2  UNL     1      16.869  50.300  20.848  1.00  0.00    -0.058 SA
ENDROOT
BRANCH   1  10
HETATM   10  N5  UNL     1      15.432  52.678  20.146  1.00  0.00    -0.385 N
ATOM     11  H5  UNL     1      14.603  52.191  20.487  1.00  0.00     0.159 HD
BRANCH  10  12
HETATM   12  C4  UNL     1      15.772  53.928  20.766  1.00  0.00     0.121 C
BRANCH  12  13
HETATM   13  C3  UNL     1      16.421  53.717  22.130  1.00  0.00     0.040 C
BRANCH  13  14
HETATM   14  C2  UNL     1      15.451  53.022  23.068  1.00  0.00     0.139 C
BRANCH  14  15
HETATM   15  N4  UNL     1      15.329  53.837  24.260  1.00  0.00    -0.225 N
HETATM   16  C1  UNL     1      15.240  53.234  25.543  1.00  0.00     0.685 C
HETATM   17  N1  UNL     1      14.205  52.499  25.797  1.00  0.00    -0.234 N
HETATM   18  N2  UNL     1      16.268  53.456  26.483  1.00  0.00    -0.139 N
ATOM     19  H12 UNL     1      14.141  52.066  26.718  1.00  0.00     0.174 HD
ATOM     20  H11 UNL     1      13.462  52.339  25.118  1.00  0.00     0.174 HD
ATOM     21  H2  UNL     1      16.947  54.206  26.353  1.00  0.00     0.205 HD
ATOM     22  H4  UNL     1      15.308  54.853  24.177  1.00  0.00     0.177 HD
BRANCH  18  23
HETATM   23  N3  UNL     1      16.326  52.607  27.605  1.00  0.00    -0.331 N
ATOM     24  H32 UNL     1      16.981  51.826  27.624  1.00  0.00     0.177 HD
ATOM     25  H31 UNL     1      15.696  52.805  28.382  1.00  0.00     0.177 HD
ENDBRANCH  18  23
ENDBRANCH  14  15
ENDBRANCH  13  14
ENDBRANCH  12  13
ENDBRANCH  10  12
ENDBRANCH   1  10
BRANCH   4  26
HETATM   26  N8  UNL     1      16.965  52.446  15.603  1.00  0.00    -0.335 N
ATOM     27  H82 UNL     1      17.467  53.320  15.444  1.00  0.00     0.177 HD
ATOM     28  H81 UNL     1      16.485  51.935  14.862  1.00  0.00     0.177 HD
ENDBRANCH   4  26
BRANCH   5  29
HETATM   29  S1  UNL     1      18.576  50.058  15.816  1.00  0.00    -0.052 SA
BRANCH  29  30
HETATM   30  C8  UNL     1      20.027  49.225  16.394  1.00  0.00     0.010 A
HETATM   31  C9  UNL     1      20.212  47.861  16.268  1.00  0.00     0.019 A
HETATM   32  C10 UNL     1      21.392  47.337  16.760  1.00  0.00     0.003 A
HETATM   33  C11 UNL     1      22.355  48.120  17.355  1.00  0.00     0.026 A
HETATM   34  C12 UNL     1      22.177  49.489  17.484  1.00  0.00     0.047 A
HETATM   35  N9  UNL     1      23.169  50.310  18.095  1.00  0.00    -0.102 NA
HETATM   36  C13 UNL     1      21.002  50.003  16.993  1.00  0.00     0.045 A
ENDBRANCH  29  30
ENDBRANCH   5  29
TORSDOF 9
ENDMDL