MODEL 5
REMARK VINA RESULT: -8.129112903      2.153      2.967
REMARK  10 active torsions:
REMARK  status: ('A' for Active; 'I' for Inactive)
REMARK    1  A    between atoms: N1_1  and  C1_4
REMARK    2  A    between atoms: C1_4  and  N2_5
REMARK    3  A    between atoms: C1_4  and  C8_24
REMARK    4  A    between atoms: N2_5  and  C2_7
REMARK    5  A    between atoms: C2_7  and  C3_8
REMARK    6  A    between atoms: C3_8  and  N3_9
REMARK    7  A    between atoms: N3_9  and  C4_11
REMARK    8  A    between atoms: C5_12  and  O1_13
REMARK    9  A    between atoms: C10_26  and  N6_27
REMARK   10  A    between atoms: C13_33  and  N8_34
ROOT
HETATM    1  N2  UNL     1      16.112  52.218  18.712  1.00  0.00    -0.374 N
ATOM      2  H2  UNL     1      16.238  51.347  19.228  1.00  0.00     0.161 HD
ENDROOT
BRANCH   1   3
HETATM    3  C1  UNL     1      15.722  53.438  19.429  1.00  0.00     0.107 C
BRANCH   3   4
HETATM    4  N1  UNL     1      15.194  54.290  18.740  1.00  0.00    -0.385 N
ATOM      5  H12 UNL     1      15.566  55.200  18.468  1.00  0.00     0.157 HD
ATOM      6  H11 UNL     1      14.282  54.032  18.363  1.00  0.00     0.157 HD
ENDBRANCH   3   4
BRANCH   3   7
HETATM    7  C8  UNL     1      16.057  53.508  20.846  1.00  0.00     0.043 A
HETATM    8  C9  UNL     1      15.737  54.737  21.487  1.00  0.00     0.056 A
HETATM    9  C10 UNL     1      16.168  55.042  22.751  1.00  0.00     0.128 A
HETATM   10  C11 UNL     1      16.947  54.165  23.485  1.00  0.00     0.081 A
HETATM   11  N7  UNL     1      17.382  54.526  24.790  1.00  0.00    -0.100 NA
HETATM   12  C12 UNL     1      17.256  52.985  22.888  1.00  0.00     0.066 A
HETATM   13  C13 UNL     1      16.808  52.660  21.578  1.00  0.00     0.118 A
BRANCH   9  14
HETATM   14  N6  UNL     1      15.838  56.279  23.376  1.00  0.00    -0.114 N
HETATM   15  O4  UNL     1      16.569  57.252  23.192  1.00  0.00    -0.532 OA
HETATM   16  O5  UNL     1      14.734  56.391  24.168  1.00  0.00    -0.532 OA
ENDBRANCH   9  14
BRANCH  13  17
HETATM   17  N8  UNL     1      17.135  51.355  21.122  1.00  0.00    -0.115 N
HETATM   18  O6  UNL     1      18.203  51.127  20.543  1.00  0.00    -0.532 OA
HETATM   19  O7  UNL     1      16.240  50.296  21.154  1.00  0.00    -0.532 OA
ENDBRANCH  13  17
ENDBRANCH   3   7
ENDBRANCH   1   3
BRANCH   1  20
HETATM   20  C2  UNL     1      16.314  52.236  17.307  1.00  0.00     0.141 C
BRANCH  20  21
HETATM   21  C3  UNL     1      17.682  51.831  16.884  1.00  0.00     0.139 C
BRANCH  21  22
HETATM   22  N3  UNL     1      18.167  50.688  17.640  1.00  0.00    -0.381 N
ATOM     23  H3  UNL     1      17.597  50.348  18.415  1.00  0.00     0.160 HD
BRANCH  22  24
HETATM   24  C4  UNL     1      19.387  50.017  17.364  1.00  0.00     0.131 A
HETATM   25  C5  UNL     1      19.447  49.106  16.345  1.00  0.00     0.218 A
HETATM   26  O2  UNL     1      20.574  48.462  16.031  1.00  0.00    -0.235 OA
HETATM   27  C6  UNL     1      21.657  48.702  16.709  1.00  0.00     0.373 A
HETATM   28  O3  UNL     1      22.691  48.068  16.369  1.00  0.00    -0.238 OA
HETATM   29  N4  UNL     1      21.645  49.579  17.707  1.00  0.00    -0.286 N
HETATM   30  C7  UNL     1      20.544  50.265  18.079  1.00  0.00     0.135 A
ATOM     31  H4  UNL     1      22.512  49.743  18.218  1.00  0.00     0.172 HD
HETATM   32  N5  UNL     1      20.571  51.086  19.029  1.00  0.00    -0.383 N
ATOM     33  H52 UNL     1      19.739  51.604  19.310  1.00  0.00     0.157 HD
ATOM     34  H51 UNL     1      21.425  51.269  19.556  1.00  0.00     0.157 HD
BRANCH  25  35
HETATM   35  O1  UNL     1      18.344  48.790  15.576  1.00  0.00    -0.339 OA
ATOM     36  H1  UNL     1      18.377  48.132  14.892  1.00  0.00     0.220 HD
ENDBRANCH  25  35
ENDBRANCH  22  24
ENDBRANCH  21  22
ENDBRANCH  20  21
ENDBRANCH   1  20
TORSDOF 10
ENDMDL