MODEL 2
REMARK VINA RESULT: -7.787296605      2.462      7.696
REMARK  9 active torsions:
REMARK  status: ('A' for Active; 'I' for Inactive)
REMARK    1  A    between atoms: C2_3  and  C3_4
REMARK    2  A    between atoms: C3_4  and  O1_5
REMARK    3  A    between atoms: C3_4  and  N2_7
REMARK    4  A    between atoms: N2_7  and  C4_9
REMARK    5  A    between atoms: N3_13  and  C8_14
REMARK    6  A    between atoms: C12_18  and  C13_19
REMARK    7  A    between atoms: C13_19  and  N4_20
REMARK    8  A    between atoms: C13_19  and  C14_24
REMARK    9  A    between atoms: C14_24  and  C15_25
ROOT
HETATM    1  N1  UNL     1      18.099  51.290  14.472  1.00  0.00    -0.100 NA
HETATM    2  C1  UNL     1      17.477  51.729  15.681  1.00  0.00     0.085 A
HETATM    3  C2  UNL     1      17.642  51.057  16.871  1.00  0.00     0.031 A
HETATM    4  C7  UNL     1      17.032  51.492  18.040  1.00  0.00     0.108 A
HETATM    5  N3  UNL     1      16.251  52.601  18.041  1.00  0.00    -0.318 N
HETATM    6  C16 UNL     1      16.073  53.276  16.898  1.00  0.00     0.131 A
HETATM    7  S1  UNL     1      15.126  54.603  16.930  1.00  0.00    -0.058 SA
HETATM    8  C17 UNL     1      16.677  52.857  15.708  1.00  0.00     0.109 A
HETATM    9  N5  UNL     1      16.451  53.612  14.532  1.00  0.00    -0.097 NA
ENDROOT
BRANCH   5  10
HETATM   10  C8  UNL     1      15.641  53.032  19.251  1.00  0.00     0.228 C
HETATM   11  C9  UNL     1      14.582  52.045  19.712  1.00  0.00     0.054 C
HETATM   12  C10 UNL     1      15.004  51.261  20.928  1.00  0.00     0.007 C
HETATM   13  C11 UNL     1      15.450  52.161  22.073  1.00  0.00     0.034 C
HETATM   14  C12 UNL     1      15.719  53.529  21.433  1.00  0.00     0.155 C
HETATM   15  O4  UNL     1      16.490  53.379  20.273  1.00  0.00    -0.359 OA
BRANCH  14  16
HETATM   16  C13 UNL     1      16.322  54.479  22.406  1.00  0.00     0.222 C
BRANCH  16  17
HETATM   17  N4  UNL     1      15.325  55.256  23.125  1.00  0.00    -0.072 N
ATOM     18  H43 UNL     1      14.808  55.865  22.491  1.00  0.00     0.274 HD
ATOM     19  H42 UNL     1      14.560  54.662  23.445  1.00  0.00     0.274 HD
ATOM     20  H41 UNL     1      15.723  55.788  23.900  1.00  0.00     0.274 HD
ENDBRANCH  16  17
BRANCH  16  21
HETATM   21  C14 UNL     1      17.315  53.820  23.310  1.00  0.00     0.148 C
BRANCH  21  22
HETATM   22  C15 UNL     1      17.161  54.251  24.707  1.00  0.00     0.174 C
HETATM   23  O2  UNL     1      16.506  53.459  25.468  1.00  0.00    -0.648 OA
HETATM   24  O3  UNL     1      17.660  55.425  25.255  1.00  0.00    -0.648 OA
ENDBRANCH  21  22
ENDBRANCH  16  21
ENDBRANCH  14  16
ENDBRANCH   5  10
BRANCH   3  25
HETATM   25  C3  UNL     1      18.515  49.830  16.854  1.00  0.00     0.251 C
BRANCH  25  26
HETATM   26  O1  UNL     1      18.189  49.117  15.704  1.00  0.00    -0.373 OA
ATOM     27  H1  UNL     1      18.520  49.616  14.967  1.00  0.00     0.212 HD
ENDBRANCH  25  26
BRANCH  25  28
HETATM   28  N2  UNL     1      19.886  50.215  16.802  1.00  0.00    -0.389 N
ATOM     29  H2  UNL     1      20.285  50.695  15.994  1.00  0.00     0.156 HD
BRANCH  28  30
HETATM   30  C4  UNL     1      20.665  49.888  17.948  1.00  0.00     0.079 A
HETATM   31  C5  UNL     1      22.168  50.046  17.708  1.00  0.00     0.027 A
HETATM   32  C6  UNL     1      21.439  50.823  18.759  1.00  0.00     0.027 A
ENDBRANCH  28  30
ENDBRANCH  25  28
ENDBRANCH   3  25
TORSDOF 9
ENDMDL