MODEL 5
REMARK VINA RESULT: -9.024806678      1.956      2.889
REMARK  9 active torsions:
REMARK  status: ('A' for Active; 'I' for Inactive)
REMARK    1  A    between atoms: N1_1  and  C1_4
REMARK    2  A    between atoms: C3_9  and  C4_10
REMARK    3  A    between atoms: C4_10  and  N4_11
REMARK    4  A    between atoms: C4_10  and  C5_15
REMARK       I    between atoms: C5_15  and  N5_17
REMARK    5  A    between atoms: N5_17  and  C6_19
REMARK    6  A    between atoms: C6_19  and  C7_20
REMARK    7  A    between atoms: C7_20  and  C8_21
REMARK    8  A    between atoms: C8_21  and  N6_22
REMARK    9  A    between atoms: N6_22  and  C9_24
ROOT
HETATM    1  C5  UNL     1      17.825  50.336  19.343  1.00  0.00     0.253 C
HETATM    2  O1  UNL     1      16.813  49.617  19.358  1.00  0.00    -0.271 OA
HETATM    3  N5  UNL     1      18.018  51.382  20.255  1.00  0.00    -0.359 N
ATOM      4  H5  UNL     1      18.900  51.883  20.139  1.00  0.00     0.162 HD
ENDROOT
BRANCH   3   5
HETATM    5  C6  UNL     1      17.207  51.864  21.306  1.00  0.00     0.124 C
BRANCH   5   6
HETATM    6  C7  UNL     1      15.996  52.648  21.038  1.00  0.00     0.039 C
BRANCH   6   7
HETATM    7  C8  UNL     1      16.078  54.110  21.241  1.00  0.00     0.121 C
BRANCH   7   8
HETATM    8  N6  UNL     1      15.192  54.449  22.365  1.00  0.00    -0.390 N
ATOM      9  H6  UNL     1      14.385  55.048  22.192  1.00  0.00     0.159 HD
BRANCH   8  10
HETATM   10  C9  UNL     1      15.418  53.982  23.655  1.00  0.00     0.031 A
HETATM   11  C10 UNL     1      14.530  53.188  24.364  1.00  0.00     0.058 A
HETATM   12  C11 UNL     1      14.735  52.700  25.612  1.00  0.00     0.078 A
HETATM   13  N7  UNL     1      13.728  51.899  26.206  1.00  0.00    -0.100 NA
HETATM   14  C12 UNL     1      15.940  52.999  26.280  1.00  0.00     0.091 A
HETATM   15  N8  UNL     1      16.280  52.603  27.480  1.00  0.00    -0.291 N
HETATM   16  C13 UNL     1      16.846  53.782  25.612  1.00  0.00     0.055 A
HETATM   17  N9  UNL     1      17.422  52.950  27.981  1.00  0.00    -0.269 N
ATOM     18  H8  UNL     1      15.644  52.019  28.021  1.00  0.00     0.187 HD
HETATM   19  S1  UNL     1      18.108  53.884  26.758  1.00  0.00     0.004 SA
ATOM     20  H9  UNL     1      17.813  52.715  28.894  1.00  0.00     0.195 HD
HETATM   21  C14 UNL     1      16.592  54.269  24.316  1.00  0.00     0.052 A
ENDBRANCH   8  10
ENDBRANCH   7   8
ENDBRANCH   6   7
ENDBRANCH   5   6
ENDBRANCH   3   5
BRANCH   1  22
HETATM   22  C4  UNL     1      18.832  50.049  18.307  1.00  0.00     0.318 C
BRANCH  22  23
HETATM   23  C3  UNL     1      18.693  50.943  17.112  1.00  0.00     0.067 A
HETATM   24  C2  UNL     1      19.499  51.299  16.090  1.00  0.00     0.134 A
HETATM   25  N2  UNL     1      19.044  52.140  15.188  1.00  0.00    -0.325 N
HETATM   26  N3  UNL     1      20.854  50.757  15.984  1.00  0.00    -0.081 NA
HETATM   27  C1  UNL     1      17.808  52.606  15.319  1.00  0.00     0.143 A
ATOM     28  H2  UNL     1      19.629  52.429  14.404  1.00  0.00     0.169 HD
HETATM   29  S2  UNL     1      17.259  51.850  16.743  1.00  0.00    -0.053 SA
BRANCH  27  30
HETATM   30  N1  UNL     1      17.171  53.446  14.534  1.00  0.00    -0.380 N
ATOM     31  H12 UNL     1      17.517  54.300  14.097  1.00  0.00     0.158 HD
ATOM     32  H11 UNL     1      16.204  53.398  14.216  1.00  0.00     0.158 HD
ENDBRANCH  27  30
ENDBRANCH  22  23
BRANCH  22  33
HETATM   33  N4  UNL     1      20.190  50.302  18.863  1.00  0.00    -0.062 N
ATOM     34  H43 UNL     1      20.465  49.629  19.579  1.00  0.00     0.275 HD
ATOM     35  H42 UNL     1      20.942  50.101  18.204  1.00  0.00     0.275 HD
ATOM     36  H41 UNL     1      20.190  51.267  19.194  1.00  0.00     0.275 HD
ENDBRANCH  22  33
ENDBRANCH   1  22
TORSDOF 9
ENDMDL