MODEL 2
REMARK VINA RESULT: -8.732418162      1.249      1.406
REMARK  8 active torsions:
REMARK  status: ('A' for Active; 'I' for Inactive)
REMARK    1  A    between atoms: C2_7  and  O1_8
REMARK    2  A    between atoms: O1_8  and  C3_9
REMARK    3  A    between atoms: C3_9  and  C4_10
REMARK    4  A    between atoms: C4_10  and  C5_11
REMARK    5  A    between atoms: C5_11  and  S1_12
REMARK    6  A    between atoms: S1_12  and  C6_13
REMARK    7  A    between atoms: C6_13  and  C7_14
REMARK    8  A    between atoms: C10_21  and  N6_22
ROOT
HETATM    1  S1  UNL     1      14.738  52.546  20.873  1.00  0.00    -0.164 SA
ENDROOT
BRANCH   1   2
HETATM    2  C5  UNL     1      15.781  53.057  19.532  1.00  0.00     0.076 C
BRANCH   2   3
HETATM    3  C4  UNL     1      16.358  51.986  18.700  1.00  0.00     0.037 C
BRANCH   3   4
HETATM    4  C3  UNL     1      17.231  50.967  19.316  1.00  0.00     0.179 C
BRANCH   4   5
HETATM    5  O1  UNL     1      18.600  51.234  19.347  1.00  0.00    -0.322 OA
BRANCH   5   6
HETATM    6  C2  UNL     1      19.500  50.487  18.612  1.00  0.00     0.226 A
HETATM    7  N2  UNL     1      19.172  49.500  17.765  1.00  0.00    -0.307 N
HETATM    8  C1  UNL     1      20.064  48.788  17.063  1.00  0.00     0.130 A
ATOM      9  H2  UNL     1      18.183  49.279  17.648  1.00  0.00     0.171 HD
HETATM   10  N1  UNL     1      19.646  47.845  16.262  1.00  0.00    -0.384 N
HETATM   11  C15 UNL     1      21.420  49.046  17.183  1.00  0.00     0.131 A
ATOM     12  H12 UNL     1      18.648  47.655  16.174  1.00  0.00     0.157 HD
ATOM     13  H11 UNL     1      20.325  47.303  15.728  1.00  0.00     0.157 HD
HETATM   14  C14 UNL     1      21.780  50.059  18.049  1.00  0.00     0.147 A
HETATM   15  N10 UNL     1      22.367  48.291  16.438  1.00  0.00    -0.095 NA
HETATM   16  N8  UNL     1      20.845  50.737  18.726  1.00  0.00    -0.309 N
HETATM   17  N9  UNL     1      23.163  50.321  18.170  1.00  0.00    -0.080 NA
ATOM     18  H8  UNL     1      21.148  51.478  19.359  1.00  0.00     0.170 HD
ENDBRANCH   5   6
ENDBRANCH   4   5
ENDBRANCH   3   4
ENDBRANCH   2   3
ENDBRANCH   1   2
BRANCH   1  19
HETATM   19  C6  UNL     1      15.635  52.312  22.410  1.00  0.00     0.119 C
BRANCH  19  20
HETATM   20  C7  UNL     1      15.292  53.339  23.411  1.00  0.00     0.037 A
HETATM   21  C8  UNL     1      14.386  53.074  24.404  1.00  0.00     0.142 A
HETATM   22  N3  UNL     1      13.754  51.816  24.482  1.00  0.00    -0.081 NA
HETATM   23  N4  UNL     1      14.086  54.031  25.328  1.00  0.00    -0.178 N
HETATM   24  C9  UNL     1      14.688  55.231  25.253  1.00  0.00     0.683 A
ATOM     25  H4  UNL     1      13.413  53.838  26.069  1.00  0.00     0.185 HD
HETATM   26  N5  UNL     1      15.586  55.521  24.283  1.00  0.00    -0.168 N
HETATM   27  N7  UNL     1      14.381  56.232  26.221  1.00  0.00    -0.226 N
HETATM   28  C10 UNL     1      15.890  54.573  23.359  1.00  0.00     0.127 A
HETATM   29  C11 UNL     1      16.159  56.827  24.299  1.00  0.00     0.151 C
HETATM   30  C12 UNL     1      15.029  57.835  24.531  1.00  0.00     0.041 C
HETATM   31  C13 UNL     1      14.439  57.648  25.914  1.00  0.00     0.139 C
ATOM     32  H7  UNL     1      14.112  55.942  27.161  1.00  0.00     0.177 HD
BRANCH  28  33
HETATM   33  N6  UNL     1      16.721  54.792  22.435  1.00  0.00    -0.384 N
ATOM     34  H62 UNL     1      17.131  54.031  21.894  1.00  0.00     0.157 HD
ATOM     35  H61 UNL     1      16.976  55.760  22.239  1.00  0.00     0.157 HD
ENDBRANCH  28  33
ENDBRANCH  19  20
ENDBRANCH   1  19
TORSDOF 8
ENDMDL