MODEL 4
REMARK VINA RESULT: -8.434684134      1.941      2.209
REMARK  10 active torsions:
REMARK  status: ('A' for Active; 'I' for Inactive)
REMARK    1  A    between atoms: N1_1  and  C1_4
REMARK    2  A    between atoms: C4_9  and  N3_10
REMARK    3  A    between atoms: N3_10  and  C5_12
REMARK    4  A    between atoms: C5_12  and  C6_13
REMARK    5  A    between atoms: C6_13  and  N4_14
REMARK    6  A    between atoms: N4_14  and  C7_16
REMARK    7  A    between atoms: N10_29  and  C11_30
REMARK    8  A    between atoms: C11_30  and  C12_31
REMARK    9  A    between atoms: C12_31  and  C13_32
REMARK   10  A    between atoms: C13_32  and  N11_33
ROOT
HETATM    1  C7  UNL     1      16.275  52.358  18.309  1.00  0.00     0.136 A
HETATM    2  N5  UNL     1      15.947  52.965  17.154  1.00  0.00    -0.315 N
ATOM      3  H5  UNL     1      15.225  53.686  17.158  1.00  0.00     0.170 HD
HETATM    4  C8  UNL     1      16.554  52.639  15.983  1.00  0.00     0.195 A
HETATM    5  N6  UNL     1      16.210  53.277  14.763  1.00  0.00    -0.063 NA
HETATM    6  N7  UNL     1      17.509  51.693  15.934  1.00  0.00    -0.313 N
ATOM      7  H7  UNL     1      17.952  51.462  15.045  1.00  0.00     0.170 HD
HETATM    8  C9  UNL     1      17.877  51.057  17.047  1.00  0.00     0.158 A
HETATM    9  C10 UNL     1      17.255  51.389  18.258  1.00  0.00     0.139 A
HETATM   10  N8  UNL     1      17.847  50.578  19.167  1.00  0.00    -0.279 N
ATOM     11  H8  UNL     1      17.636  50.549  20.164  1.00  0.00     0.189 HD
HETATM   12  N9  UNL     1      18.743  49.829  18.547  1.00  0.00    -0.238 N
ATOM     13  H9  UNL     1      19.329  49.133  19.009  1.00  0.00     0.208 HD
HETATM   14  N10 UNL     1      18.784  50.096  17.263  1.00  0.00    -0.260 N
ENDROOT
BRANCH   1  15
HETATM   15  N4  UNL     1      15.731  52.630  19.445  1.00  0.00    -0.373 N
ATOM     16  H4  UNL     1      16.011  53.486  19.925  1.00  0.00     0.161 HD
BRANCH  15  17
HETATM   17  C6  UNL     1      14.742  51.781  20.071  1.00  0.00     0.141 C
BRANCH  17  18
HETATM   18  C5  UNL     1      15.169  51.593  21.508  1.00  0.00     0.139 C
BRANCH  18  19
HETATM   19  N3  UNL     1      16.182  52.500  21.951  1.00  0.00    -0.388 N
ATOM     20  H3  UNL     1      17.143  52.349  21.643  1.00  0.00     0.159 HD
BRANCH  19  21
HETATM   21  C4  UNL     1      15.902  53.614  22.811  1.00  0.00     0.030 A
HETATM   22  C3  UNL     1      15.135  53.454  23.905  1.00  0.00     0.060 A
HETATM   23  C2  UNL     1      14.842  54.508  24.795  1.00  0.00     0.053 A
HETATM   24  N2  UNL     1      14.105  54.447  25.886  1.00  0.00    -0.336 N
HETATM   25  C16 UNL     1      15.390  55.714  24.471  1.00  0.00     0.035 A
HETATM   26  C1  UNL     1      13.940  55.554  26.603  1.00  0.00     0.143 A
ATOM     27  H2  UNL     1      13.672  53.570  26.174  1.00  0.00     0.168 HD
HETATM   28  S1  UNL     1      14.834  56.717  25.735  1.00  0.00    -0.052 SA
HETATM   29  C15 UNL     1      16.190  55.887  23.328  1.00  0.00     0.023 A
HETATM   30  C14 UNL     1      16.463  54.841  22.475  1.00  0.00     0.030 A
BRANCH  26  31
HETATM   31  N1  UNL     1      13.244  55.688  27.714  1.00  0.00    -0.380 N
ATOM     32  H12 UNL     1      12.784  54.976  28.282  1.00  0.00     0.158 HD
ATOM     33  H11 UNL     1      13.041  56.553  28.214  1.00  0.00     0.158 HD
ENDBRANCH  26  31
ENDBRANCH  19  21
ENDBRANCH  18  19
ENDBRANCH  17  18
ENDBRANCH  15  17
ENDBRANCH   1  15
BRANCH  14  34
HETATM   34  C11 UNL     1      19.635  49.485  16.260  1.00  0.00     0.154 C
BRANCH  34  35
HETATM   35  C12 UNL     1      20.443  48.376  16.908  1.00  0.00     0.049 C
BRANCH  35  36
HETATM   36  C13 UNL     1      21.861  48.883  17.068  1.00  0.00     0.231 C
BRANCH  36  37
HETATM   37  N11 UNL     1      22.827  47.815  17.122  1.00  0.00    -0.079 N
ATOM     38 3H11 UNL     1      22.389  46.914  16.934  1.00  0.00     0.274 HD
ATOM     39 2H11 UNL     1      23.465  47.858  16.328  1.00  0.00     0.274 HD
ATOM     40 1H11 UNL     1      23.341  47.796  18.004  1.00  0.00     0.274 HD
ENDBRANCH  36  37
ENDBRANCH  35  36
ENDBRANCH  34  35
ENDBRANCH  14  34
TORSDOF 10
ENDMDL