MODEL 2
REMARK VINA RESULT: -8.129777788      1.799      2.850
REMARK  8 active torsions:
REMARK  status: ('A' for Active; 'I' for Inactive)
REMARK    1  A    between atoms: N2_3  and  N3_5
REMARK    2  A    between atoms: N3_5  and  C2_7
REMARK    3  A    between atoms: C3_10  and  N5_11
REMARK    4  A    between atoms: C4_15  and  S2_16
REMARK    5  A    between atoms: S2_16  and  C5_17
REMARK    6  A    between atoms: C5_17  and  C6_18
REMARK       I    between atoms: C6_18  and  N6_20
REMARK       I    between atoms: N6_20  and  C7_22
REMARK       I    between atoms: C7_22  and  N8_26
REMARK    7  A    between atoms: N8_26  and  C8_28
REMARK    8  A    between atoms: C8_28  and  C9_29
ROOT
HETATM    1  N1  UNL     1      20.118  47.011  17.108  1.00  0.00    -0.170 NA
HETATM    2  C1  UNL     1      20.730  47.938  16.818  1.00  0.00     0.197 C
HETATM    3  N2  UNL     1      21.501  49.072  16.471  1.00  0.00    -0.235 N
ATOM      4  H2  UNL     1      22.297  48.966  15.843  1.00  0.00     0.199 HD
ENDROOT
BRANCH   3   5
HETATM    5  N3  UNL     1      21.191  50.326  16.975  1.00  0.00    -0.275 N
ATOM      6  H3  UNL     1      21.806  50.801  17.636  1.00  0.00     0.189 HD
BRANCH   5   7
HETATM    7  C2  UNL     1      19.955  50.933  16.521  1.00  0.00     0.146 A
HETATM    8  N4  UNL     1      19.821  51.470  15.344  1.00  0.00    -0.320 N
HETATM    9  C3  UNL     1      18.648  52.008  15.008  1.00  0.00     0.145 A
ATOM     10  H4  UNL     1      20.601  51.480  14.687  1.00  0.00     0.169 HD
HETATM   11  S1  UNL     1      17.700  51.749  16.401  1.00  0.00    -0.043 SA
HETATM   12  C4  UNL     1      18.869  50.954  17.356  1.00  0.00     0.090 A
BRANCH   9  13
HETATM   13  N5  UNL     1      18.329  52.591  13.873  1.00  0.00    -0.380 N
ATOM     14  H52 UNL     1      18.278  53.583  13.644  1.00  0.00     0.158 HD
ATOM     15  H51 UNL     1      18.069  52.142  12.995  1.00  0.00     0.158 HD
ENDBRANCH   9  13
BRANCH  12  16
HETATM   16  S2  UNL     1      18.749  50.308  19.018  1.00  0.00    -0.109 SA
BRANCH  16  17
HETATM   17  C5  UNL     1      17.032  50.156  19.548  1.00  0.00     0.183 C
BRANCH  17  18
HETATM   18  C6  UNL     1      16.436  51.376  20.076  1.00  0.00     0.245 C
HETATM   19  O1  UNL     1      16.316  51.456  21.346  1.00  0.00    -0.272 OA
HETATM   20  N6  UNL     1      15.973  52.491  19.335  1.00  0.00    -0.160 N
HETATM   21  C7  UNL     1      15.405  53.638  19.926  1.00  0.00     0.674 C
ATOM     22  H6  UNL     1      16.056  52.463  18.319  1.00  0.00     0.187 HD
HETATM   23  N7  UNL     1      15.000  54.625  19.216  1.00  0.00    -0.235 N
HETATM   24  N8  UNL     1      15.251  53.761  21.356  1.00  0.00    -0.222 N
ATOM     25  H72 UNL     1      15.109  54.539  18.205  1.00  0.00     0.174 HD
ATOM     26  H71 UNL     1      14.588  55.455  19.643  1.00  0.00     0.174 HD
ATOM     27  H8  UNL     1      14.495  53.295  21.859  1.00  0.00     0.178 HD
BRANCH  24  28
HETATM   28  C8  UNL     1      16.213  54.567  22.025  1.00  0.00     0.184 C
BRANCH  28  29
HETATM   29  C9  UNL     1      16.367  54.158  23.450  1.00  0.00     0.001 A
HETATM   30  C10 UNL     1      17.437  54.197  24.297  1.00  0.00     0.017 A
HETATM   31  C11 UNL     1      17.260  53.750  25.545  1.00  0.00     0.008 A
HETATM   32  C12 UNL     1      16.016  53.284  25.881  1.00  0.00     0.050 A
HETATM   33  S3  UNL     1      15.135  53.489  24.433  1.00  0.00    -0.105 SA
ENDBRANCH  28  29
ENDBRANCH  24  28
ENDBRANCH  17  18
ENDBRANCH  16  17
ENDBRANCH  12  16
ENDBRANCH   5   7
ENDBRANCH   3   5
TORSDOF 8
ENDMDL