MODEL 4
REMARK VINA RESULT: -7.542318699      1.599      7.669
REMARK  7 active torsions:
REMARK  status: ('A' for Active; 'I' for Inactive)
REMARK    1  A    between atoms: N1_2  and  C2_4
REMARK    2  A    between atoms: C5_8  and  N3_9
REMARK    3  A    between atoms: N3_9  and  N4_11
REMARK    4  A    between atoms: N4_11  and  C6_13
REMARK    5  A    between atoms: C8_15  and  C9_16
REMARK    6  A    between atoms: C10_19  and  N5_20
REMARK    7  A    between atoms: C12_27  and  N8_28
ROOT
HETATM    1  N3  UNL     1      18.492  48.911  17.476  1.00  0.00    -0.283 N
ATOM      2  H3  UNL     1      17.962  48.849  18.346  1.00  0.00     0.188 HD
ENDROOT
BRANCH   1   3
HETATM    3  C5  UNL     1      19.900  48.635  17.423  1.00  0.00     0.159 A
HETATM    4  N2  UNL     1      20.734  49.538  17.973  1.00  0.00    -0.342 N
HETATM    5  C3  UNL     1      22.084  49.362  17.980  1.00  0.00     0.125 A
HETATM    6  C4  UNL     1      20.165  50.732  18.578  1.00  0.00     0.157 C
HETATM    7  C2  UNL     1      22.681  48.247  17.424  1.00  0.00     0.097 A
HETATM    8  C13 UNL     1      21.842  47.319  16.860  1.00  0.00     0.236 A
HETATM    9  C12 UNL     1      20.470  47.527  16.867  1.00  0.00     0.200 A
HETATM   10  O5  UNL     1      22.355  46.295  16.345  1.00  0.00    -0.283 OA
BRANCH   7  11
HETATM   11  N1  UNL     1      24.086  48.094  17.449  1.00  0.00    -0.390 N
HETATM   12  C1  UNL     1      24.967  48.906  18.238  1.00  0.00     0.146 C
ATOM     13  H1  UNL     1      24.498  47.362  16.871  1.00  0.00     0.159 HD
ENDBRANCH   7  11
BRANCH   9  14
HETATM   14  N8  UNL     1      19.650  46.550  16.260  1.00  0.00    -0.107 N
HETATM   15  O3  UNL     1      19.641  45.357  16.691  1.00  0.00    -0.531 OA
HETATM   16  O4  UNL     1      18.825  46.838  15.208  1.00  0.00    -0.531 OA
ENDBRANCH   9  14
ENDBRANCH   1   3
BRANCH   1  17
HETATM   17  N4  UNL     1      17.899  49.265  16.279  1.00  0.00    -0.296 N
ATOM     18  H4  UNL     1      17.964  48.559  15.546  1.00  0.00     0.187 HD
BRANCH  17  19
HETATM   19  C6  UNL     1      17.223  50.433  15.905  1.00  0.00     0.090 A
HETATM   20  C7  UNL     1      16.415  51.124  16.815  1.00  0.00     0.056 A
HETATM   21  C8  UNL     1      15.728  52.290  16.479  1.00  0.00     0.086 A
HETATM   22  C10 UNL     1      15.826  52.812  15.212  1.00  0.00     0.117 A
HETATM   23  N6  UNL     1      16.621  52.124  14.336  1.00  0.00    -0.329 N
HETATM   24  C11 UNL     1      17.283  50.998  14.661  1.00  0.00     0.146 A
ATOM     25  H6  UNL     1      16.716  52.484  13.386  1.00  0.00     0.168 HD
HETATM   26  N7  UNL     1      18.070  50.395  13.627  1.00  0.00    -0.080 NA
BRANCH  21  27
HETATM   27  C9  UNL     1      14.919  52.925  17.508  1.00  0.00     0.213 C
HETATM   28  O1  UNL     1      14.321  53.994  17.396  1.00  0.00    -0.644 OA
HETATM   29  O2  UNL     1      14.790  52.283  18.750  1.00  0.00    -0.644 OA
ENDBRANCH  21  27
BRANCH  22  30
HETATM   30  N5  UNL     1      15.246  53.871  14.794  1.00  0.00    -0.385 N
ATOM     31  H52 UNL     1      14.819  53.851  13.868  1.00  0.00     0.157 HD
ATOM     32  H51 UNL     1      15.169  54.750  15.306  1.00  0.00     0.157 HD
ENDBRANCH  22  30
ENDBRANCH  17  19
ENDBRANCH   1  17
TORSDOF 7
ENDMDL