MODEL 3
REMARK VINA RESULT: -7.640143008      3.761      7.742
REMARK  8 active torsions:
REMARK  status: ('A' for Active; 'I' for Inactive)
REMARK    1  A    between atoms: N1_1  and  C1_4
REMARK    2  A    between atoms: C4_14  and  S1_15
REMARK    3  A    between atoms: S1_15  and  C5_16
REMARK    4  A    between atoms: C5_16  and  C6_17
REMARK    5  A    between atoms: C6_17  and  C7_18
REMARK    6  A    between atoms: C7_18  and  N5_19
REMARK    7  A    between atoms: N6_23  and  N7_24
REMARK       I    between atoms: N7_24  and  C8_26
REMARK    8  A    between atoms: C8_26  and  C9_28
ROOT
HETATM    1  C1  UNL     1      17.664  51.735  13.719  1.00  0.00     0.679 A
HETATM    2  N2  UNL     1      16.745  52.621  14.111  1.00  0.00    -0.175 N
ATOM      3  H2  UNL     1      16.420  53.364  13.494  1.00  0.00     0.186 HD
HETATM    4  C2  UNL     1      16.275  52.483  15.349  1.00  0.00     0.145 A
HETATM    5  N3  UNL     1      15.372  53.310  15.810  1.00  0.00    -0.383 N
ATOM      6  H31 UNL     1      15.012  53.205  16.758  1.00  0.00     0.157 HD
ATOM      7  H32 UNL     1      15.052  54.052  15.188  1.00  0.00     0.157 HD
HETATM    8  C3  UNL     1      16.710  51.477  16.194  1.00  0.00     0.126 A
HETATM    9  N4  UNL     1      16.401  51.166  17.460  1.00  0.00    -0.329 N
ATOM     10  H4  UNL     1      15.726  51.663  18.041  1.00  0.00     0.168 HD
HETATM   11  C4  UNL     1      17.108  50.115  17.837  1.00  0.00     0.168 A
HETATM   12  N6  UNL     1      17.915  49.709  16.789  1.00  0.00    -0.211 N
HETATM   13  C12 UNL     1      17.658  50.569  15.776  1.00  0.00     0.175 A
HETATM   14  N10 UNL     1      18.113  50.730  14.531  1.00  0.00    -0.172 N
ATOM     15  H10 UNL     1      18.818  50.085  14.176  1.00  0.00     0.186 HD
ENDROOT
BRANCH  12  16
HETATM   16  N7  UNL     1      18.787  48.681  16.899  1.00  0.00    -0.254 N
HETATM   17  C8  UNL     1      19.115  47.582  16.128  1.00  0.00     0.289 C
HETATM   18  O1  UNL     1      18.636  47.215  15.044  1.00  0.00    -0.264 OA
ATOM     19  H7  UNL     1      19.334  48.728  17.759  1.00  0.00     0.191 HD
BRANCH  17  20
HETATM   20  C9  UNL     1      20.217  46.694  16.682  1.00  0.00     0.128 A
HETATM   21  C10 UNL     1      20.059  45.394  17.082  1.00  0.00     0.092 A
HETATM   22  C11 UNL     1      21.309  44.946  17.523  1.00  0.00     0.182 A
HETATM   23  N8  UNL     1      21.603  43.654  18.026  1.00  0.00    -0.072 NA
HETATM   24  O2  UNL     1      22.131  45.962  17.372  1.00  0.00    -0.222 OA
HETATM   25  N9  UNL     1      21.493  47.005  16.875  1.00  0.00    -0.254 N
ATOM     26  H9  UNL     1      21.915  47.910  16.669  1.00  0.00     0.195 HD
ENDBRANCH  17  20
ENDBRANCH  12  16
BRANCH  11  27
HETATM   27  S1  UNL     1      17.032  49.332  19.435  1.00  0.00    -0.092 SA
BRANCH  27  28
HETATM   28  C5  UNL     1      15.693  50.044  20.400  1.00  0.00     0.084 C
BRANCH  28  29
HETATM   29  C6  UNL     1      16.094  51.368  21.028  1.00  0.00     0.038 C
BRANCH  29  30
HETATM   30  C7  UNL     1      14.979  51.786  21.962  1.00  0.00     0.230 C
BRANCH  30  31
HETATM   31  N5  UNL     1      15.277  53.107  22.469  1.00  0.00    -0.079 N
ATOM     32  H53 UNL     1      15.032  53.845  21.809  1.00  0.00     0.274 HD
ATOM     33  H52 UNL     1      14.654  53.386  23.227  1.00  0.00     0.274 HD
ATOM     34  H51 UNL     1      16.260  53.135  22.741  1.00  0.00     0.274 HD
ENDBRANCH  30  31
ENDBRANCH  29  30
ENDBRANCH  28  29
ENDBRANCH  27  28
ENDBRANCH  11  27
BRANCH   1  35
HETATM   35  N1  UNL     1      18.181  51.787  12.529  1.00  0.00    -0.234 N
ATOM     36  H12 UNL     1      18.504  50.903  12.136  1.00  0.00     0.174 HD
ATOM     37  H11 UNL     1      18.256  52.671  12.026  1.00  0.00     0.174 HD
ENDBRANCH   1  35
TORSDOF 8
ENDMDL