MODEL 2
REMARK VINA RESULT: -8.414529032      1.017      1.017
REMARK  7 active torsions:
REMARK  status: ('A' for Active; 'I' for Inactive)
REMARK    1  A    between atoms: S1_2  and  C2_3
REMARK    2  A    between atoms: C4_10  and  N3_11
REMARK       I    between atoms: N3_11  and  C5_13
REMARK    3  A    between atoms: C7_16  and  N4_17
REMARK    4  A    between atoms: N4_17  and  N5_19
REMARK    5  A    between atoms: N5_19  and  C8_21
REMARK    6  A    between atoms: C9_26  and  N8_27
REMARK    7  A    between atoms: N8_27  and  N9_29
ROOT
HETATM    1  C2  UNL     1      15.973  52.075  15.517  1.00  0.00     0.147 A
HETATM    2  N1  UNL     1      17.026  52.027  14.705  1.00  0.00    -0.321 N
ATOM      3  H1  UNL     1      17.056  52.619  13.875  1.00  0.00     0.169 HD
HETATM    4  C3  UNL     1      18.042  51.209  14.975  1.00  0.00     0.132 A
HETATM    5  N2  UNL     1      19.085  51.155  14.180  1.00  0.00    -0.383 N
ATOM      6  H21 UNL     1      19.862  50.529  14.386  1.00  0.00     0.157 HD
ATOM      7  H22 UNL     1      19.111  51.747  13.350  1.00  0.00     0.157 HD
HETATM    8  C4  UNL     1      18.006  50.398  16.112  1.00  0.00     0.124 A
HETATM    9  C7  UNL     1      16.941  50.435  16.945  1.00  0.00     0.153 A
HETATM   10  N11 UNL     1      15.929  51.300  16.608  1.00  0.00    -0.320 N
ATOM     11  H11 UNL     1      15.110  51.355  17.215  1.00  0.00     0.169 HD
ENDROOT
BRANCH   9  12
HETATM   12  N4  UNL     1      16.815  49.661  18.086  1.00  0.00    -0.269 N
ATOM     13  H4  UNL     1      16.458  48.720  17.924  1.00  0.00     0.189 HD
BRANCH  12  14
HETATM   14  N5  UNL     1      17.090  49.950  19.406  1.00  0.00    -0.129 N
ATOM     15  H5  UNL     1      17.935  49.566  19.826  1.00  0.00     0.205 HD
BRANCH  14  16
HETATM   16  C8  UNL     1      16.228  50.776  20.212  1.00  0.00     0.726 A
HETATM   17  N6  UNL     1      15.001  51.235  19.919  1.00  0.00    -0.116 N
HETATM   18  N7  UNL     1      14.536  51.965  20.926  1.00  0.00    -0.116 N
ATOM     19  H6  UNL     1      14.499  51.049  19.050  1.00  0.00     0.206 HD
HETATM   20  C9  UNL     1      15.460  51.982  21.874  1.00  0.00     0.731 A
ATOM     21  H7  UNL     1      13.629  52.431  20.962  1.00  0.00     0.206 HD
HETATM   22  N10 UNL     1      16.514  51.245  21.436  1.00  0.00    -0.017 N
ATOM     23  H10 UNL     1      17.378  51.077  21.951  1.00  0.00     0.203 HD
BRANCH  20  24
HETATM   24  N8  UNL     1      15.454  52.564  23.036  1.00  0.00    -0.070 N
ATOM     25  H8  UNL     1      16.318  52.583  23.578  1.00  0.00     0.212 HD
BRANCH  24  26
HETATM   26  N9  UNL     1      14.319  53.159  23.570  1.00  0.00    -0.024 N
HETATM   27  O2  UNL     1      13.847  54.237  23.109  1.00  0.00    -0.516 OA
HETATM   28  O3  UNL     1      13.675  52.572  24.635  1.00  0.00    -0.516 OA
ENDBRANCH  24  26
ENDBRANCH  20  24
ENDBRANCH  14  16
ENDBRANCH  12  14
ENDBRANCH   9  12
BRANCH   8  29
HETATM   29  N3  UNL     1      19.108  49.553  16.347  1.00  0.00    -0.321 N
HETATM   30  C5  UNL     1      19.214  48.225  15.917  1.00  0.00     0.218 C
HETATM   31  C6  UNL     1      20.417  47.432  16.219  1.00  0.00     0.117 C
HETATM   32  O1  UNL     1      18.280  47.705  15.270  1.00  0.00    -0.274 OA
ATOM     33  H3  UNL     1      19.892  49.940  16.874  1.00  0.00     0.169 HD
ENDBRANCH   8  29
BRANCH   1  34
HETATM   34  S1  UNL     1      14.627  53.181  15.130  1.00  0.00    -0.098 SA
HETATM   35  C1  UNL     1      14.507  53.494  13.363  1.00  0.00     0.099 C
ENDBRANCH   1  34
TORSDOF 7
ENDMDL