MODEL 5
REMARK VINA RESULT: -7.008805087      1.703      5.197
REMARK  8 active torsions:
REMARK  status: ('A' for Active; 'I' for Inactive)
REMARK       I    between atoms: N1_1  and  C1_4
REMARK       I    between atoms: C1_4  and  N3_6
REMARK    1  A    between atoms: N3_6  and  N4_8
REMARK    2  A    between atoms: N4_8  and  C2_9
REMARK    3  A    between atoms: C4_15  and  N7_16
REMARK    4  A    between atoms: C6_21  and  N8_22
REMARK    5  A    between atoms: N8_22  and  C7_24
REMARK    6  A    between atoms: C7_24  and  C8_25
REMARK    7  A    between atoms: C8_25  and  N9_26
REMARK    8  A    between atoms: C9_30  and  C10_31
ROOT
HETATM    1  C2  UNL     1      18.838  49.735  17.848  1.00  0.00     0.224 A
HETATM    2  N5  UNL     1      18.472  50.011  19.113  1.00  0.00    -0.313 N
ATOM      3  H5  UNL     1      19.153  49.809  19.846  1.00  0.00     0.170 HD
HETATM    4  C3  UNL     1      17.274  50.536  19.505  1.00  0.00     0.129 A
HETATM    5  N6  UNL     1      16.881  50.820  20.739  1.00  0.00    -0.317 N
ATOM      6  H6  UNL     1      17.506  50.647  21.525  1.00  0.00     0.169 HD
HETATM    7  C4  UNL     1      15.693  51.323  20.947  1.00  0.00     0.218 A
HETATM    8  S1  UNL     1      15.051  51.424  19.367  1.00  0.00    -0.042 SA
HETATM    9  C5  UNL     1      16.382  50.797  18.502  1.00  0.00     0.080 A
HETATM   10  C6  UNL     1      16.702  50.531  17.158  1.00  0.00     0.071 A
HETATM   11  C9  UNL     1      17.924  50.000  16.804  1.00  0.00     0.129 A
ENDROOT
BRANCH   1  12
HETATM   12  N4  UNL     1      19.973  49.260  17.670  1.00  0.00    -0.303 NA
BRANCH  12  13
HETATM   13  N3  UNL     1      21.122  48.790  17.497  1.00  0.00    -0.205 N
HETATM   14  C1  UNL     1      21.393  47.582  16.764  1.00  0.00     0.211 C
HETATM   15  N1  UNL     1      22.165  46.662  17.207  1.00  0.00    -0.372 N
HETATM   16  N2  UNL     1      20.775  47.424  15.505  1.00  0.00    -0.062 NA
ATOM     17  H12 UNL     1      22.357  45.806  16.687  1.00  0.00     0.158 HD
ATOM     18  H11 UNL     1      22.612  46.776  18.117  1.00  0.00     0.158 HD
ATOM     19  H3  UNL     1      21.912  49.293  17.901  1.00  0.00     0.204 HD
ENDBRANCH  12  13
ENDBRANCH   1  12
BRANCH  11  20
HETATM   20  C10 UNL     1      18.322  49.708  15.461  1.00  0.00     0.216 C
HETATM   21  O3  UNL     1      19.121  50.407  14.815  1.00  0.00    -0.644 OA
HETATM   22  O4  UNL     1      17.820  48.600  14.793  1.00  0.00    -0.644 OA
ENDBRANCH  11  20
BRANCH  10  23
HETATM   23  N8  UNL     1      15.695  50.848  16.229  1.00  0.00    -0.386 N
ATOM     24  H8  UNL     1      14.833  50.305  16.259  1.00  0.00     0.159 HD
BRANCH  23  25
HETATM   25  C7  UNL     1      15.801  51.893  15.232  1.00  0.00     0.147 C
BRANCH  25  26
HETATM   26  C8  UNL     1      16.029  53.254  15.934  1.00  0.00     0.249 C
BRANCH  26  27
HETATM   27  N9  UNL     1      14.809  54.014  15.983  1.00  0.00    -0.078 N
ATOM     28  H93 UNL     1      14.699  54.603  15.158  1.00  0.00     0.274 HD
ATOM     29  H92 UNL     1      13.989  53.421  15.859  1.00  0.00     0.274 HD
ATOM     30  H91 UNL     1      14.755  54.557  16.844  1.00  0.00     0.274 HD
ENDBRANCH  26  27
ENDBRANCH  25  26
ENDBRANCH  23  25
ENDBRANCH  10  23
BRANCH   7  31
HETATM   31  N7  UNL     1      15.106  51.687  22.205  1.00  0.00    -0.090 N
HETATM   32  O1  UNL     1      14.118  51.058  22.588  1.00  0.00    -0.530 OA
HETATM   33  O2  UNL     1      15.640  52.692  22.925  1.00  0.00    -0.530 OA
ENDBRANCH   7  31
TORSDOF 8
ENDMDL