MODEL 2
REMARK VINA RESULT: -8.978125232      1.087      1.153
REMARK  8 active torsions:
REMARK  status: ('A' for Active; 'I' for Inactive)
REMARK    1  A    between atoms: C3_4  and  N2_5
REMARK    2  A    between atoms: C4_10  and  C5_11
REMARK       I    between atoms: C5_11  and  N4_13
REMARK    3  A    between atoms: N4_13  and  N5_15
REMARK    4  A    between atoms: N5_15  and  C6_17
REMARK    5  A    between atoms: C8_19  and  N6_20
REMARK    6  A    between atoms: N6_20  and  C9_22
REMARK    7  A    between atoms: C9_22  and  C10_26
REMARK    8  A    between atoms: C12_30  and  N8_31
ROOT
HETATM    1  C6  UNL     1      15.827  50.967  19.689  1.00  0.00     0.123 A
HETATM    2  C7  UNL     1      16.816  50.034  19.493  1.00  0.00     0.079 A
HETATM    3  C8  UNL     1      17.374  49.830  18.239  1.00  0.00     0.041 A
HETATM    4  C11 UNL     1      16.898  50.596  17.209  1.00  0.00     0.077 A
HETATM    5  C12 UNL     1      15.892  51.543  17.406  1.00  0.00     0.102 A
HETATM    6  N9  UNL     1      15.400  51.685  18.646  1.00  0.00    -0.328 N
ATOM      7  H9  UNL     1      14.665  52.375  18.801  1.00  0.00     0.169 HD
ENDROOT
BRANCH   1   8
HETATM    8  N5  UNL     1      15.313  51.108  21.004  1.00  0.00    -0.282 N
ATOM      9  H5  UNL     1      14.790  50.351  21.446  1.00  0.00     0.188 HD
BRANCH   8  10
HETATM   10  N4  UNL     1      15.541  52.308  21.678  1.00  0.00    -0.262 N
HETATM   11  C5  UNL     1      14.891  52.504  22.934  1.00  0.00     0.304 C
HETATM   12  O3  UNL     1      14.156  51.594  23.356  1.00  0.00    -0.263 OA
ATOM     13  H4  UNL     1      16.153  53.023  21.286  1.00  0.00     0.190 HD
BRANCH  11  14
HETATM   14  C4  UNL     1      15.119  53.749  23.650  1.00  0.00     0.179 A
HETATM   15  N1  UNL     1      15.700  53.942  24.832  1.00  0.00    -0.339 N
HETATM   16  C1  UNL     1      16.267  52.965  25.744  1.00  0.00     0.157 C
HETATM   17  C2  UNL     1      15.715  55.285  25.147  1.00  0.00     0.147 A
HETATM   18  C3  UNL     1      15.117  55.927  24.110  1.00  0.00     0.191 A
HETATM   19  N3  UNL     1      14.764  54.996  23.220  1.00  0.00    -0.318 N
ATOM     20  H3  UNL     1      14.293  55.190  22.336  1.00  0.00     0.169 HD
BRANCH  18  21
HETATM   21  N2  UNL     1      14.877  57.333  23.933  1.00  0.00    -0.096 N
HETATM   22  O1  UNL     1      14.148  57.932  24.733  1.00  0.00    -0.530 OA
HETATM   23  O2  UNL     1      15.489  57.931  22.860  1.00  0.00    -0.530 OA
ENDBRANCH  18  21
ENDBRANCH  11  14
ENDBRANCH   8  10
ENDBRANCH   1   8
BRANCH   3  24
HETATM   24  N6  UNL     1      18.398  48.858  18.052  1.00  0.00    -0.337 N
ATOM     25  H6  UNL     1      18.241  47.895  18.350  1.00  0.00     0.167 HD
BRANCH  24  26
HETATM   26  C9  UNL     1      19.631  49.215  17.458  1.00  0.00     0.177 C
HETATM   27  N7  UNL     1      19.852  48.894  16.245  1.00  0.00    -0.380 N
ATOM     28  H72 UNL     1      19.139  48.388  15.720  1.00  0.00     0.158 HD
ATOM     29  H71 UNL     1      20.742  49.151  15.816  1.00  0.00     0.158 HD
BRANCH  26  30
HETATM   30  C10 UNL     1      20.647  49.937  18.206  1.00  0.00     0.244 C
HETATM   31  O4  UNL     1      20.366  50.867  18.983  1.00  0.00    -0.642 OA
HETATM   32  O5  UNL     1      21.998  49.602  18.072  1.00  0.00    -0.642 OA
ENDBRANCH  26  30
ENDBRANCH  24  26
ENDBRANCH   3  24
BRANCH   5  33
HETATM   33  N8  UNL     1      15.463  52.247  16.425  1.00  0.00    -0.385 N
ATOM     34  H82 UNL     1      14.498  52.575  16.380  1.00  0.00     0.157 HD
ATOM     35  H81 UNL     1      16.087  52.498  15.657  1.00  0.00     0.157 HD
ENDBRANCH   5  33
TORSDOF 8
ENDMDL