MODEL 3
REMARK VINA RESULT: -8.339415833      1.441      1.649
REMARK  10 active torsions:
REMARK  status: ('A' for Active; 'I' for Inactive)
REMARK    1  A    between atoms: N1_1  and  C1_4
REMARK    2  A    between atoms: C3_10  and  N4_11
REMARK    3  A    between atoms: N4_11  and  N5_13
REMARK    4  A    between atoms: N6_16  and  C4_17
REMARK    5  A    between atoms: C4_17  and  C5_18
REMARK    6  A    between atoms: C5_18  and  N7_19
REMARK    7  A    between atoms: C5_18  and  N8_23
REMARK    8  A    between atoms: C8_29  and  N9_30
REMARK    9  A    between atoms: N9_30  and  C9_32
REMARK   10  A    between atoms: C9_32  and  C10_33
ROOT
HETATM    1  C1  UNL     1      16.935  50.153  20.172  1.00  0.00     0.127 A
HETATM    2  N2  UNL     1      17.714  49.703  19.161  1.00  0.00    -0.325 N
ATOM      3  H2  UNL     1      18.513  49.096  19.346  1.00  0.00     0.169 HD
HETATM    4  C2  UNL     1      17.406  50.080  17.892  1.00  0.00     0.150 A
HETATM    5  N3  UNL     1      17.977  49.797  16.693  1.00  0.00    -0.173 N
ATOM      6  H3  UNL     1      18.799  49.209  16.556  1.00  0.00     0.186 HD
HETATM    7  C3  UNL     1      17.293  50.409  15.719  1.00  0.00     0.701 A
HETATM    8  N6  UNL     1      16.285  51.081  16.317  1.00  0.00    -0.174 N
HETATM    9  C6  UNL     1      16.322  50.900  17.658  1.00  0.00     0.098 A
HETATM   10  C7  UNL     1      15.524  51.359  18.699  1.00  0.00     0.067 A
HETATM   11  C8  UNL     1      15.859  50.961  19.980  1.00  0.00     0.074 A
ENDROOT
BRANCH  11  12
HETATM   12  N9  UNL     1      15.029  51.445  21.021  1.00  0.00    -0.381 N
ATOM     13  H9  UNL     1      14.329  50.817  21.417  1.00  0.00     0.160 HD
BRANCH  12  14
HETATM   14  C9  UNL     1      15.129  52.783  21.548  1.00  0.00     0.178 C
BRANCH  14  15
HETATM   15  C10 UNL     1      15.253  52.758  23.028  1.00  0.00     0.044 A
HETATM   16  C11 UNL     1      14.210  52.512  23.893  1.00  0.00     0.124 A
HETATM   17  N10 UNL     1      14.640  52.558  25.168  1.00  0.00    -0.317 N
HETATM   18  C12 UNL     1      14.059  52.397  26.369  1.00  0.00     0.098 A
HETATM   19  C16 UNL     1      15.965  52.836  25.088  1.00  0.00     0.111 A
HETATM   20  C13 UNL     1      14.828  52.518  27.505  1.00  0.00     0.018 A
HETATM   21  C14 UNL     1      16.185  52.801  27.440  1.00  0.00     0.005 A
HETATM   22  C15 UNL     1      16.756  52.962  26.198  1.00  0.00     0.049 A
HETATM   23  N11 UNL     1      16.325  52.955  23.788  1.00  0.00    -0.343 N
ATOM     24  H11 UNL     1      17.264  53.161  23.448  1.00  0.00     0.167 HD
ENDBRANCH  14  15
ENDBRANCH  12  14
ENDBRANCH  11  12
BRANCH   1  25
HETATM   25  N1  UNL     1      17.275  49.765  21.345  1.00  0.00    -0.384 N
ATOM     26  H12 UNL     1      17.112  48.807  21.654  1.00  0.00     0.157 HD
ATOM     27  H11 UNL     1      17.712  50.475  21.933  1.00  0.00     0.157 HD
ENDBRANCH   1  25
BRANCH   8  28
HETATM   28  C4  UNL     1      15.273  51.884  15.644  1.00  0.00     0.210 C
BRANCH  28  29
HETATM   29  C5  UNL     1      15.705  53.313  15.434  1.00  0.00     0.396 C
BRANCH  29  30
HETATM   30  N7  UNL     1      14.831  54.219  16.096  1.00  0.00    -0.049 N
ATOM     31  H73 UNL     1      15.159  55.181  16.019  1.00  0.00     0.276 HD
ATOM     32  H72 UNL     1      13.945  54.316  15.598  1.00  0.00     0.276 HD
ATOM     33  H71 UNL     1      14.687  53.948  17.069  1.00  0.00     0.276 HD
ENDBRANCH  29  30
BRANCH  29  34
HETATM   34  N8  UNL     1      15.688  53.620  14.010  1.00  0.00    -0.049 N
ATOM     35  H83 UNL     1      15.077  54.407  13.793  1.00  0.00     0.276 HD
ATOM     36  H82 UNL     1      16.568  54.026  13.692  1.00  0.00     0.276 HD
ATOM     37  H81 UNL     1      15.438  52.782  13.485  1.00  0.00     0.276 HD
ENDBRANCH  29  34
ENDBRANCH  28  29
ENDBRANCH   8  28
BRANCH   7  38
HETATM   38  N4  UNL     1      17.519  50.389  14.433  1.00  0.00    -0.138 N
ATOM     39  H4  UNL     1      16.978  49.782  13.818  1.00  0.00     0.205 HD
BRANCH  38  40
HETATM   40  N5  UNL     1      18.512  51.215  13.925  1.00  0.00    -0.331 N
ATOM     41  H52 UNL     1      19.249  51.560  14.539  1.00  0.00     0.177 HD
ATOM     42  H51 UNL     1      18.479  51.459  12.935  1.00  0.00     0.177 HD
ENDBRANCH  38  40
ENDBRANCH   7  38
TORSDOF 10
ENDMDL