MODEL 5
REMARK VINA RESULT: -8.065832407      1.460      1.870
REMARK  9 active torsions:
REMARK  status: ('A' for Active; 'I' for Inactive)
REMARK       I    between atoms: C1_4  and  N3_6
REMARK    1  A    between atoms: N4_8  and  C2_10
REMARK    2  A    between atoms: C2_10  and  C3_11
REMARK    3  A    between atoms: C3_11  and  C4_12
REMARK    4  A    between atoms: C4_12  and  N5_13
REMARK    5  A    between atoms: N5_13  and  N6_14
REMARK    6  A    between atoms: N5_13  and  C5_17
REMARK    7  A    between atoms: C7_19  and  N7_20
REMARK    8  A    between atoms: C8_25  and  N9_26
REMARK       I    between atoms: N10_28  and  C9_30
REMARK       I    between atoms: C9_30  and  N12_34
REMARK    9  A    between atoms: N12_34  and  N13_36
ROOT
HETATM    1  C5  UNL     1      18.825  49.234  16.318  1.00  0.00     0.140 A
HETATM    2  C6  UNL     1      20.187  49.054  16.325  1.00  0.00     0.099 A
HETATM    3  C7  UNL     1      20.917  49.197  17.477  1.00  0.00     0.118 A
HETATM    4  N8  UNL     1      20.279  49.518  18.605  1.00  0.00    -0.176 N
ATOM      5  H8  UNL     1      20.815  49.626  19.466  1.00  0.00     0.186 HD
HETATM    6  C8  UNL     1      18.948  49.702  18.633  1.00  0.00     0.700 A
HETATM    7  N14 UNL     1      18.241  49.559  17.498  1.00  0.00    -0.174 N
ATOM      8  H14 UNL     1      17.231  49.699  17.526  1.00  0.00     0.186 HD
ENDROOT
BRANCH   1   9
HETATM    9  N5  UNL     1      18.036  49.099  15.165  1.00  0.00    -0.283 N
BRANCH   9  10
HETATM   10  C4  UNL     1      17.586  50.152  14.304  1.00  0.00     0.152 C
BRANCH  10  11
HETATM   11  C3  UNL     1      17.705  51.517  14.964  1.00  0.00     0.043 C
BRANCH  11  12
HETATM   12  C2  UNL     1      17.356  52.651  14.054  1.00  0.00     0.141 C
BRANCH  12  13
HETATM   13  N4  UNL     1      15.989  53.090  14.215  1.00  0.00    -0.334 N
HETATM   14  N3  UNL     1      15.164  52.971  13.256  1.00  0.00    -0.278 N
HETATM   15  C1  UNL     1      13.811  53.388  13.370  1.00  0.00     0.200 C
ATOM     16  H3  UNL     1      15.483  52.563  12.377  1.00  0.00     0.189 HD
HETATM   17  N1  UNL     1      13.402  53.798  14.516  1.00  0.00    -0.372 N
HETATM   18  N2  UNL     1      12.976  53.335  12.221  1.00  0.00    -0.062 NA
ATOM     19  H12 UNL     1      12.431  54.098  14.599  1.00  0.00     0.158 HD
ATOM     20  H11 UNL     1      14.001  53.836  15.340  1.00  0.00     0.158 HD
ATOM     21  H4  UNL     1      15.685  53.496  15.100  1.00  0.00     0.180 HD
ENDBRANCH  12  13
ENDBRANCH  11  12
ENDBRANCH  10  11
ENDBRANCH   9  10
BRANCH   9  22
HETATM   22  N6  UNL     1      17.628  47.785  14.802  1.00  0.00    -0.341 N
ATOM     23  H62 UNL     1      17.056  47.686  13.964  1.00  0.00     0.177 HD
ATOM     24  H61 UNL     1      17.949  47.035  15.415  1.00  0.00     0.177 HD
ENDBRANCH   9  22
ENDBRANCH   1   9
BRANCH   3  25
HETATM   25  N7  UNL     1      22.222  49.023  17.476  1.00  0.00    -0.385 N
ATOM     26  H72 UNL     1      22.748  49.054  18.350  1.00  0.00     0.157 HD
ATOM     27  H71 UNL     1      22.729  48.855  16.607  1.00  0.00     0.157 HD
ENDBRANCH   3  25
BRANCH   6  28
HETATM   28  N9  UNL     1      18.301  50.044  19.867  1.00  0.00    -0.117 N
HETATM   29  N10 UNL     1      17.091  50.425  19.832  1.00  0.00    -0.117 N
HETATM   30  C9  UNL     1      16.352  50.787  20.979  1.00  0.00     0.710 C
ATOM     31  H10 UNL     1      16.627  50.472  18.924  1.00  0.00     0.206 HD
HETATM   32  N11 UNL     1      16.979  51.239  22.002  1.00  0.00    -0.232 N
HETATM   33  N12 UNL     1      14.946  50.670  21.038  1.00  0.00    -0.071 N
ATOM     34 2H11 UNL     1      17.994  51.324  21.959  1.00  0.00     0.174 HD
ATOM     35 1H11 UNL     1      16.445  51.500  22.831  1.00  0.00     0.174 HD
ATOM     36  H12 UNL     1      14.519  50.473  21.945  1.00  0.00     0.212 HD
ATOM     37  H9  UNL     1      18.802  49.983  20.753  1.00  0.00     0.206 HD
BRANCH  33  38
HETATM   38  N13 UNL     1      14.107  50.805  19.937  1.00  0.00    -0.024 N
HETATM   39  O1  UNL     1      12.882  50.643  20.119  1.00  0.00    -0.516 OA
HETATM   40  O2  UNL     1      14.557  51.106  18.670  1.00  0.00    -0.516 OA
ENDBRANCH  33  38
ENDBRANCH   6  28
TORSDOF 9
ENDMDL