MODEL 1
REMARK VINA RESULT: -7.066697203      0.000      0.000
REMARK  10 active torsions:
REMARK  status: ('A' for Active; 'I' for Inactive)
REMARK    1  A    between atoms: N1_1  and  C1_4
REMARK    2  A    between atoms: C2_7  and  S1_8
REMARK    3  A    between atoms: S1_8  and  S2_9
REMARK    4  A    between atoms: S2_9  and  C3_10
REMARK    5  A    between atoms: C3_10  and  C4_11
REMARK    6  A    between atoms: C4_11  and  N3_12
REMARK       I    between atoms: N3_12  and  C5_14
REMARK       I    between atoms: C5_14  and  N4_16
REMARK    7  A    between atoms: N4_16  and  S3_18
REMARK    8  A    between atoms: S3_18  and  N5_21
REMARK    9  A    between atoms: N5_21  and  O4_23
REMARK   10  A    between atoms: O4_23  and  N6_24
ROOT
HETATM    1  N3  UNL     1      15.548  52.659  16.545  1.00  0.00    -0.342 N
ATOM      2  H3  UNL     1      15.309  53.638  16.696  1.00  0.00     0.164 HD
HETATM    3  C5  UNL     1      15.521  51.818  17.674  1.00  0.00     0.330 C
HETATM    4  O1  UNL     1      15.807  50.606  17.581  1.00  0.00    -0.246 OA
HETATM    5  N4  UNL     1      15.169  52.301  18.975  1.00  0.00    -0.217 N
ATOM      6  H4  UNL     1      14.931  53.286  19.092  1.00  0.00     0.185 HD
ENDROOT
BRANCH   1   7
HETATM    7  C4  UNL     1      15.882  52.271  15.193  1.00  0.00     0.135 C
BRANCH   7   8
HETATM    8  C3  UNL     1      17.350  52.312  14.997  1.00  0.00     0.106 C
BRANCH   8   9
HETATM    9  S2  UNL     1      18.102  50.944  14.156  1.00  0.00    -0.089 SA
BRANCH   9  10
HETATM   10  S1  UNL     1      17.941  49.180  15.261  1.00  0.00    -0.039 SA
BRANCH  10  11
HETATM   11  C2  UNL     1      19.493  48.986  16.216  1.00  0.00     0.089 A
HETATM   12  N2  UNL     1      20.353  48.017  16.074  1.00  0.00    -0.330 N
HETATM   13  C1  UNL     1      21.441  47.995  16.841  1.00  0.00     0.142 A
ATOM     14  H2  UNL     1      20.195  47.283  15.383  1.00  0.00     0.168 HD
HETATM   15  S4  UNL     1      21.262  49.385  17.805  1.00  0.00    -0.064 SA
HETATM   16  C6  UNL     1      19.778  49.940  17.172  1.00  0.00     0.091 A
BRANCH  13  17
HETATM   17  N1  UNL     1      22.411  47.104  16.840  1.00  0.00    -0.380 N
ATOM     18  H12 UNL     1      22.351  46.088  16.900  1.00  0.00     0.158 HD
ATOM     19  H11 UNL     1      23.415  47.274  16.777  1.00  0.00     0.158 HD
ENDBRANCH  13  17
ENDBRANCH  10  11
ENDBRANCH   9  10
ENDBRANCH   8   9
ENDBRANCH   7   8
ENDBRANCH   1   7
BRANCH   5  20
HETATM   20  S3  UNL     1      15.138  51.267  20.338  1.00  0.00     0.347 S
HETATM   21  O2  UNL     1      14.593  52.020  21.532  1.00  0.00    -0.180 OA
HETATM   22  O3  UNL     1      14.152  49.929  20.087  1.00  0.00    -0.180 OA
BRANCH  20  23
HETATM   23  N5  UNL     1      16.563  50.762  20.744  1.00  0.00    -0.150 N
ATOM     24  H5  UNL     1      17.270  51.405  21.102  1.00  0.00     0.211 HD
BRANCH  23  25
HETATM   25  O4  UNL     1      16.827  49.420  20.602  1.00  0.00    -0.153 OA
BRANCH  25  26
HETATM   26  N6  UNL     1      17.044  48.910  19.345  1.00  0.00    -0.285 N
ATOM     27  H62 UNL     1      17.525  49.480  18.648  1.00  0.00     0.186 HD
ATOM     28  H61 UNL     1      16.720  47.967  19.128  1.00  0.00     0.186 HD
ENDBRANCH  25  26
ENDBRANCH  23  25
ENDBRANCH  20  23
ENDBRANCH   5  20
TORSDOF 10
ENDMDL