MODEL 2
REMARK VINA RESULT: -3.007184925      3.255      3.742
REMARK  2 active torsions:
REMARK  status: ('A' for Active; 'I' for Inactive)
REMARK    1  A    between atoms: O1_2  and  C2_3
REMARK    2  A    between atoms: C4_5  and  N1_6
REMARK       I    between atoms: N1_6  and  C5_8
REMARK       I    between atoms: C5_8  and  N2_9
REMARK       I    between atoms: C5_8  and  N3_13
ROOT
HETATM    1  N1  UNL     1      30.842  67.428  72.245  1.00  0.00    -0.326 N
ATOM      2  H1  UNL     1      31.084  67.027  71.339  1.00  0.00     0.164 HD
HETATM    3  C5  UNL     1      31.748  67.259  73.357  1.00  0.00     0.481 C
HETATM    4  N2  UNL     1      31.041  66.530  74.392  1.00  0.00    -0.033 N
ATOM      5  H21 UNL     1      31.681  66.410  75.177  1.00  0.00     0.278 HD
ATOM      6  H22 UNL     1      30.651  65.648  74.060  1.00  0.00     0.278 HD
ATOM      7  H23 UNL     1      30.163  66.973  74.659  1.00  0.00     0.278 HD
HETATM    8  N3  UNL     1      32.970  66.607  72.987  1.00  0.00    -0.033 N
ATOM      9  H31 UNL     1      33.609  66.487  73.772  1.00  0.00     0.278 HD
ATOM     10  H32 UNL     1      33.425  67.096  72.217  1.00  0.00     0.278 HD
ATOM     11  H33 UNL     1      32.782  65.715  72.529  1.00  0.00     0.278 HD
ENDROOT
BRANCH   1  12
HETATM   12  C4  UNL     1      29.628  68.138  72.385  1.00  0.00     0.122 A
HETATM   13  C3  UNL     1      28.366  67.569  72.446  1.00  0.00     0.106 A
HETATM   14  C2  UNL     1      27.479  68.616  72.580  1.00  0.00     0.160 A
HETATM   15  N5  UNL     1      28.219  69.740  72.596  1.00  0.00    -0.278 N
HETATM   16  N4  UNL     1      29.513  69.472  72.480  1.00  0.00    -0.284 N
ATOM     17  H5  UNL     1      27.833  70.679  72.687  1.00  0.00     0.189 HD
ATOM     18  H4  UNL     1      30.274  70.151  72.464  1.00  0.00     0.188 HD
BRANCH  14  19
HETATM   19  O1  UNL     1      26.076  68.525  72.682  1.00  0.00    -0.340 OA
HETATM   20  C1  UNL     1      25.300  68.916  71.569  1.00  0.00     0.211 C
ENDBRANCH  14  19
ENDBRANCH   1  12
TORSDOF 2
ENDMDL