MODEL 4
REMARK VINA RESULT: -3.703848974      1.630      1.939
REMARK  3 active torsions:
REMARK  status: ('A' for Active; 'I' for Inactive)
REMARK    1  A    between atoms: N1_1  and  C1_4
REMARK    2  A    between atoms: C3_9  and  N4_10
REMARK    3  A    between atoms: N5_12  and  C4_14
ROOT
HETATM    1  C1  UNL     1      28.729  66.339  74.103  1.00  0.00     0.678 A
HETATM    2  N2  UNL     1      28.071  67.159  73.263  1.00  0.00    -0.175 N
ATOM      3  H2  UNL     1      27.341  66.904  72.597  1.00  0.00     0.185 HD
HETATM    4  C2  UNL     1      28.581  68.394  73.486  1.00  0.00     0.177 A
HETATM    5  N3  UNL     1      28.195  69.600  72.827  1.00  0.00    -0.078 NA
HETATM    6  C3  UNL     1      29.555  68.330  74.468  1.00  0.00     0.177 A
HETATM    7  N6  UNL     1      29.621  67.032  74.831  1.00  0.00    -0.172 N
ATOM      8  H6  UNL     1      30.244  66.642  75.538  1.00  0.00     0.186 HD
ENDROOT
BRANCH   6   9
HETATM    9  N4  UNL     1      30.308  69.414  74.968  1.00  0.00    -0.284 N
HETATM   10  N5  UNL     1      29.902  70.321  75.708  1.00  0.00    -0.304 N
ATOM     11  H5  UNL     1      30.590  71.026  75.971  1.00  0.00     0.183 HD
ATOM     12  H4  UNL     1      31.288  69.455  74.692  1.00  0.00     0.188 HD
BRANCH  10  13
HETATM   13  C4  UNL     1      28.592  70.500  76.237  1.00  0.00     0.259 A
HETATM   14  C5  UNL     1      28.426  71.554  77.335  1.00  0.00     0.225 A
HETATM   15  O1  UNL     1      28.068  71.804  76.006  1.00  0.00    -0.359 OA
ENDBRANCH  10  13
ENDBRANCH   6   9
BRANCH   1  16
HETATM   16  N1  UNL     1      28.488  65.063  74.156  1.00  0.00    -0.234 N
ATOM     17  H12 UNL     1      27.601  64.608  74.373  1.00  0.00     0.174 HD
ATOM     18  H11 UNL     1      29.210  64.366  73.973  1.00  0.00     0.174 HD
ENDBRANCH   1  16
TORSDOF 3
ENDMDL