MODEL 5
REMARK VINA RESULT: -1.645854423      2.663      4.246
REMARK  3 active torsions:
REMARK  status: ('A' for Active; 'I' for Inactive)
REMARK    1  A    between atoms: N1_1  and  N2_4
REMARK    2  A    between atoms: N2_4  and  C1_6
REMARK    3  A    between atoms: C3_8  and  C4_9
ROOT
HETATM    1  C1  UNL     1      27.653  65.550  74.931  1.00  0.00     0.136 A
HETATM    2  C2  UNL     1      28.517  66.128  74.038  1.00  0.00     0.083 A
HETATM    3  C3  UNL     1      28.581  67.494  74.302  1.00  0.00     0.065 A
HETATM    4  N5  UNL     1      27.766  67.698  75.331  1.00  0.00    -0.298 N
ATOM      5  H5  UNL     1      27.590  68.603  75.767  1.00  0.00     0.187 HD
HETATM    6  N6  UNL     1      27.209  66.542  75.710  1.00  0.00    -0.284 N
ATOM      7  H6  UNL     1      26.546  66.433  76.478  1.00  0.00     0.188 HD
ENDROOT
BRANCH   3   8
HETATM    8  C4  UNL     1      29.395  68.449  73.563  1.00  0.00     0.026 A
HETATM    9  C5  UNL     1      30.648  68.914  73.898  1.00  0.00     0.122 A
HETATM   10  N3  UNL     1      31.044  69.782  72.946  1.00  0.00    -0.311 N
HETATM   11  N4  UNL     1      30.101  69.884  72.032  1.00  0.00    -0.311 N
ATOM     12  H3  UNL     1      31.934  70.281  72.935  1.00  0.00     0.186 HD
HETATM   13  C6  UNL     1      29.074  69.074  72.387  1.00  0.00     0.122 A
ATOM     14  H4  UNL     1      30.137  70.473  71.199  1.00  0.00     0.186 HD
ENDBRANCH   3   8
BRANCH   1  15
HETATM   15  N2  UNL     1      27.349  64.162  74.950  1.00  0.00    -0.291 N
ATOM     16  H2  UNL     1      28.039  63.471  74.653  1.00  0.00     0.188 HD
BRANCH  15  17
HETATM   17  N1  UNL     1      26.098  63.775  75.379  1.00  0.00    -0.344 N
ATOM     18  H12 UNL     1      25.383  64.478  75.567  1.00  0.00     0.176 HD
ATOM     19  H11 UNL     1      25.917  62.778  75.499  1.00  0.00     0.176 HD
ENDBRANCH  15  17
ENDBRANCH   1  15
TORSDOF 3
ENDMDL