MODEL 2
REMARK VINA RESULT: -3.678583795      1.323      2.751
REMARK  3 active torsions:
REMARK  status: ('A' for Active; 'I' for Inactive)
REMARK    1  A    between atoms: C3_5  and  N2_6
REMARK    2  A    between atoms: N2_6  and  N3_8
REMARK    3  A    between atoms: N3_8  and  C4_10
ROOT
HETATM    1  N2  UNL     1      31.029  66.422  74.323  1.00  0.00    -0.270 N
ATOM      2  H2  UNL     1      31.552  65.642  74.723  1.00  0.00     0.189 HD
ENDROOT
BRANCH   1   3
HETATM    3  C3  UNL     1      29.737  66.736  74.825  1.00  0.00     0.135 A
HETATM    4  N1  UNL     1      29.530  67.722  75.716  1.00  0.00    -0.349 N
HETATM    5  C2  UNL     1      28.297  67.999  76.176  1.00  0.00     0.106 A
ATOM      6  H1  UNL     1      30.324  68.270  76.050  1.00  0.00     0.167 HD
HETATM    7  C1  UNL     1      27.190  67.289  75.758  1.00  0.00     0.104 A
HETATM    8  N7  UNL     1      27.383  66.305  74.871  1.00  0.00    -0.371 N
HETATM    9  C5  UNL     1      28.619  66.030  74.412  1.00  0.00     0.137 A
ATOM     10  H7  UNL     1      26.587  65.759  74.540  1.00  0.00     0.164 HD
ENDBRANCH   1   3
BRANCH   1  11
HETATM   11  N3  UNL     1      31.583  67.165  73.297  1.00  0.00    -0.128 N
ATOM     12  H3  UNL     1      32.488  66.894  72.912  1.00  0.00     0.205 HD
BRANCH  11  13
HETATM   13  C4  UNL     1      30.906  68.308  72.767  1.00  0.00     0.728 A
HETATM   14  N4  UNL     1      30.003  68.556  71.806  1.00  0.00    -0.114 N
HETATM   15  N5  UNL     1      30.017  69.844  72.078  1.00  0.00    -0.214 N
ATOM     16  H4  UNL     1      29.504  67.977  71.132  1.00  0.00     0.207 HD
HETATM   17  N6  UNL     1      30.890  69.627  73.012  1.00  0.00    -0.114 N
ATOM     18  H5  UNL     1      29.541  70.667  71.710  1.00  0.00     0.209 HD
ATOM     19  H6  UNL     1      31.377  70.228  73.677  1.00  0.00     0.207 HD
ENDBRANCH  11  13
ENDBRANCH   1  11
TORSDOF 3
ENDMDL