MODEL 1
REMARK VINA RESULT: -3.832818930      0.000      0.000
REMARK  5 active torsions:
REMARK  status: ('A' for Active; 'I' for Inactive)
REMARK    1  A    between atoms: C2_2  and  N1_3
REMARK    2  A    between atoms: N1_3  and  C3_5
REMARK    3  A    between atoms: C4_6  and  N2_7
REMARK    4  A    between atoms: N3_9  and  N4_11
REMARK    5  A    between atoms: C6_19  and  N7_20
ROOT
HETATM    1  C3  UNL     1      29.576  68.452  73.756  1.00  0.00     0.107 A
HETATM    2  C4  UNL     1      29.288  68.335  75.094  1.00  0.00     0.165 A
HETATM    3  N5  UNL     1      29.831  67.386  75.866  1.00  0.00    -0.283 N
ATOM      4  H5  UNL     1      29.595  67.328  76.857  1.00  0.00     0.188 HD
HETATM    5  N6  UNL     1      30.674  66.527  75.331  1.00  0.00    -0.308 N
ATOM      6  H6  UNL     1      31.094  65.798  75.909  1.00  0.00     0.186 HD
HETATM    7  C5  UNL     1      30.982  66.607  74.031  1.00  0.00     0.138 A
HETATM    8  C6  UNL     1      30.448  67.570  73.191  1.00  0.00     0.073 A
ENDROOT
BRANCH   2   9
HETATM    9  N2  UNL     1      28.381  69.244  75.709  1.00  0.00    -0.268 N
HETATM   10  N3  UNL     1      28.845  70.227  76.335  1.00  0.00    -0.248 N
ATOM     11  H3  UNL     1      29.859  70.324  76.372  1.00  0.00     0.207 HD
ATOM     12  H2  UNL     1      27.373  69.098  75.641  1.00  0.00     0.190 HD
BRANCH  10  13
HETATM   13  N4  UNL     1      28.089  71.188  76.981  1.00  0.00    -0.331 N
ATOM     14  H42 UNL     1      28.151  72.137  76.609  1.00  0.00     0.178 HD
ATOM     15  H41 UNL     1      27.486  71.019  77.786  1.00  0.00     0.178 HD
ENDBRANCH  10  13
ENDBRANCH   2   9
BRANCH   1  16
HETATM   16  N1  UNL     1      28.961  69.489  72.993  1.00  0.00    -0.362 N
ATOM     17  H1  UNL     1      29.386  70.416  72.997  1.00  0.00     0.165 HD
BRANCH  16  18
HETATM   18  C2  UNL     1      27.785  69.286  72.231  1.00  0.00     0.078 C
HETATM   19  C1  UNL     1      27.040  68.222  72.361  1.00  0.00     0.029 C
ENDBRANCH  16  18
ENDBRANCH   1  16
BRANCH   8  20
HETATM   20  N7  UNL     1      30.745  67.643  71.944  1.00  0.00    -0.396 N
ATOM     21  H72 UNL     1      30.164  68.138  71.268  1.00  0.00     0.156 HD
ATOM     22  H71 UNL     1      31.589  67.200  71.580  1.00  0.00     0.156 HD
ENDBRANCH   8  20
TORSDOF 5
ENDMDL