MODEL 4
REMARK VINA RESULT: -3.408420213      1.512      2.345
REMARK  4 active torsions:
REMARK  status: ('A' for Active; 'I' for Inactive)
REMARK    1  A    between atoms: N1_1  and  C1_4
REMARK    2  A    between atoms: C2_7  and  N3_8
REMARK    3  A    between atoms: N3_8  and  N4_10
REMARK    4  A    between atoms: N4_10  and  C3_11
ROOT
HETATM    1  C1  UNL     1      28.047  68.211  76.325  1.00  0.00     0.699 A
HETATM    2  N2  UNL     1      29.004  67.883  75.426  1.00  0.00    -0.151 N
ATOM      3  H2  UNL     1      29.139  66.953  75.029  1.00  0.00     0.188 HD
HETATM    4  C2  UNL     1      29.750  68.963  75.133  1.00  0.00     0.274 A
HETATM    5  O1  UNL     1      29.251  69.943  75.852  1.00  0.00    -0.184 OA
HETATM    6  N5  UNL     1      28.244  69.532  76.569  1.00  0.00    -0.088 N
ATOM      7  H5  UNL     1      27.694  70.107  77.206  1.00  0.00     0.214 HD
ENDROOT
BRANCH   4   8
HETATM    8  N3  UNL     1      30.847  68.991  74.224  1.00  0.00    -0.267 N
ATOM      9  H3  UNL     1      31.679  68.441  74.437  1.00  0.00     0.186 HD
BRANCH   8  10
HETATM   10  N4  UNL     1      30.821  69.741  73.061  1.00  0.00    -0.133 NA
BRANCH  10  11
HETATM   11  C3  UNL     1      29.870  69.165  72.136  1.00  0.00     0.099 C
HETATM   12  C4  UNL     1      28.407  69.395  72.520  1.00  0.00     0.023 C
HETATM   13  C5  UNL     1      28.151  67.989  71.957  1.00  0.00     0.003 C
HETATM   14  C6  UNL     1      29.604  67.679  72.357  1.00  0.00     0.023 C
ENDBRANCH  10  11
ENDBRANCH   8  10
ENDBRANCH   4   8
BRANCH   1  15
HETATM   15  N1  UNL     1      27.124  67.459  76.858  1.00  0.00    -0.233 N
ATOM     16  H12 UNL     1      26.916  66.492  76.608  1.00  0.00     0.174 HD
ATOM     17  H11 UNL     1      26.461  67.681  77.601  1.00  0.00     0.174 HD
ENDBRANCH   1  15
TORSDOF 4
ENDMDL