MODEL 1
REMARK VINA RESULT: -1.615397936      0.000      0.000
REMARK  4 active torsions:
REMARK  status: ('A' for Active; 'I' for Inactive)
REMARK    1  A    between atoms: C2_5  and  N3_6
REMARK    2  A    between atoms: N3_6  and  N4_8
REMARK    3  A    between atoms: N5_10  and  C3_12
REMARK    4  A    between atoms: C5_14  and  N6_15
ROOT
HETATM    1  N1  UNL     1      29.095  68.950  72.264  1.00  0.00    -0.172 NA
HETATM    2  C1  UNL     1      29.985  68.210  72.296  1.00  0.00     0.182 C
HETATM    3  N2  UNL     1      31.064  67.325  72.321  1.00  0.00    -0.288 N
ATOM      4  H2  UNL     1      31.697  67.278  71.524  1.00  0.00     0.178 HD
HETATM    5  C2  UNL     1      31.266  66.570  73.342  1.00  0.00     0.208 C
ENDROOT
BRANCH   5   6
HETATM    6  N3  UNL     1      30.378  66.649  74.437  1.00  0.00    -0.281 N
ATOM      7  H3  UNL     1      29.920  65.812  74.798  1.00  0.00     0.189 HD
BRANCH   6   8
HETATM    8  N4  UNL     1      30.138  67.893  75.013  1.00  0.00    -0.240 N
HETATM    9  N5  UNL     1      28.962  68.250  75.332  1.00  0.00    -0.270 N
ATOM     10  H5  UNL     1      28.155  67.644  75.181  1.00  0.00     0.190 HD
ATOM     11  H4  UNL     1      30.919  68.528  75.181  1.00  0.00     0.208 HD
BRANCH   9  12
HETATM   12  C3  UNL     1      28.831  69.557  75.920  1.00  0.00     0.139 A
HETATM   13  C4  UNL     1      27.722  70.066  76.548  1.00  0.00     0.100 A
HETATM   14  C5  UNL     1      28.052  71.339  76.949  1.00  0.00     0.117 A
HETATM   15  N7  UNL     1      29.340  71.555  76.552  1.00  0.00    -0.284 N
HETATM   16  N8  UNL     1      29.800  70.491  75.940  1.00  0.00    -0.283 N
ATOM     17  H7  UNL     1      29.866  72.415  76.708  1.00  0.00     0.188 HD
ATOM     18  H8  UNL     1      30.736  70.388  75.545  1.00  0.00     0.188 HD
BRANCH  14  19
HETATM   19  N6  UNL     1      27.308  72.175  77.574  1.00  0.00    -0.384 N
ATOM     20  H62 UNL     1      26.695  72.869  77.145  1.00  0.00     0.157 HD
ATOM     21  H61 UNL     1      27.208  72.281  78.584  1.00  0.00     0.157 HD
ENDBRANCH  14  19
ENDBRANCH   9  12
ENDBRANCH   6   8
ENDBRANCH   5   6
TORSDOF 4
ENDMDL