MODEL 5
REMARK VINA RESULT: -2.712391741      1.571      4.114
REMARK  4 active torsions:
REMARK  status: ('A' for Active; 'I' for Inactive)
REMARK    1  A    between atoms: C2_2  and  N1_4
REMARK    2  A    between atoms: N1_4  and  N2_6
REMARK    3  A    between atoms: N2_6  and  C4_8
REMARK    4  A    between atoms: C5_11  and  N4_12
ROOT
HETATM    1  C4  UNL     1      29.471  68.557  74.477  1.00  0.00     0.712 A
HETATM    2  N3  UNL     1      30.462  67.674  74.263  1.00  0.00    -0.021 N
ATOM      3  H3  UNL     1      30.675  66.986  74.987  1.00  0.00     0.203 HD
HETATM    4  C5  UNL     1      31.188  67.667  73.118  1.00  0.00     0.691 A
HETATM    5  N5  UNL     1      30.899  68.577  72.169  1.00  0.00    -0.187 N
ATOM      6  H5  UNL     1      31.425  68.599  71.295  1.00  0.00     0.185 HD
HETATM    7  C6  UNL     1      29.905  69.455  72.392  1.00  0.00     0.215 A
HETATM    8  N6  UNL     1      29.180  69.468  73.532  1.00  0.00    -0.185 N
ATOM      9  H6  UNL     1      28.434  70.149  73.671  1.00  0.00     0.185 HD
ENDROOT
BRANCH   1  10
HETATM   10  N2  UNL     1      28.687  68.564  75.665  1.00  0.00    -0.135 N
ATOM     11  H2  UNL     1      28.853  69.324  76.325  1.00  0.00     0.205 HD
BRANCH  10  12
HETATM   12  N1  UNL     1      27.730  67.644  76.005  1.00  0.00    -0.318 N
ATOM     13  H1  UNL     1      27.391  67.559  76.964  1.00  0.00     0.181 HD
BRANCH  12  14
HETATM   14  C2  UNL     1      27.232  66.813  74.966  1.00  0.00     0.091 C
HETATM   15  C1  UNL     1      28.057  65.579  74.698  1.00  0.00     0.033 C
HETATM   16  C3  UNL     1      26.914  67.512  73.680  1.00  0.00     0.033 C
ENDBRANCH  12  14
ENDBRANCH  10  12
ENDBRANCH   1  10
BRANCH   4  17
HETATM   17  N4  UNL     1      32.122  66.816  72.967  1.00  0.00    -0.234 N
ATOM     18  H42 UNL     1      32.186  65.982  73.550  1.00  0.00     0.174 HD
ATOM     19  H41 UNL     1      32.825  66.960  72.242  1.00  0.00     0.174 HD
ENDBRANCH   4  17
TORSDOF 4
ENDMDL