MODEL 1
REMARK VINA RESULT: -1.506055566      0.000      0.000
REMARK  3 active torsions:
REMARK  status: ('A' for Active; 'I' for Inactive)
REMARK    1  A    between atoms: N1_1  and  C1_4
REMARK    2  A    between atoms: C3_8  and  N3_9
REMARK    3  A    between atoms: N3_9  and  N4_11
ROOT
HETATM    1  C1  UNL     1      28.088  71.226  76.848  1.00  0.00     0.677 A
HETATM    2  N2  UNL     1      29.337  71.487  76.421  1.00  0.00    -0.198 N
ATOM      3  H2  UNL     1      29.857  72.350  76.569  1.00  0.00     0.183 HD
HETATM    4  C2  UNL     1      29.781  70.372  75.748  1.00  0.00     0.156 A
HETATM    5  C3  UNL     1      28.771  69.442  75.785  1.00  0.00     0.153 A
HETATM    6  N7  UNL     1      27.730  69.988  76.470  1.00  0.00    -0.174 N
ATOM      7  H7  UNL     1      26.836  69.537  76.662  1.00  0.00     0.186 HD
ENDROOT
BRANCH   5   8
HETATM    8  N3  UNL     1      28.819  68.162  75.212  1.00  0.00    -0.262 N
ATOM      9  H3  UNL     1      28.105  67.497  75.510  1.00  0.00     0.191 HD
BRANCH   8  10
HETATM   10  N4  UNL     1      29.749  67.708  74.275  1.00  0.00    -0.190 N
HETATM   11  C4  UNL     1      29.720  68.093  72.964  1.00  0.00     0.228 A
HETATM   12  N5  UNL     1      30.732  67.489  72.337  1.00  0.00    -0.345 N
HETATM   13  C5  UNL     1      31.397  66.727  73.248  1.00  0.00     0.200 A
ATOM     14  H5  UNL     1      30.967  67.582  71.348  1.00  0.00     0.167 HD
HETATM   15  N6  UNL     1      30.771  66.883  74.424  1.00  0.00    -0.274 N
ATOM     16  H6  UNL     1      31.041  66.434  75.298  1.00  0.00     0.190 HD
ENDBRANCH   8  10
ENDBRANCH   5   8
BRANCH   1  17
HETATM   17  N1  UNL     1      27.372  72.078  77.525  1.00  0.00    -0.234 N
ATOM     18  H12 UNL     1      27.142  72.036  78.518  1.00  0.00     0.174 HD
ATOM     19  H11 UNL     1      26.953  72.910  77.110  1.00  0.00     0.174 HD
ENDBRANCH   1  17
TORSDOF 3
ENDMDL