MODEL 5
REMARK VINA RESULT: -3.584551006      1.201      1.934
REMARK  5 active torsions:
REMARK  status: ('A' for Active; 'I' for Inactive)
REMARK    1  A    between atoms: N1_1  and  C1_4
REMARK    2  A    between atoms: C5_10  and  N3_11
REMARK    3  A    between atoms: N3_11  and  N4_13
REMARK    4  A    between atoms: C6_15  and  C7_16
REMARK    5  A    between atoms: N5_17  and  N6_19
ROOT
HETATM    1  N3  UNL     1      30.950  67.740  73.954  1.00  0.00    -0.297 N
ATOM      2  H3  UNL     1      31.854  67.972  74.365  1.00  0.00     0.187 HD
ENDROOT
BRANCH   1   3
HETATM    3  C5  UNL     1      29.772  67.778  74.744  1.00  0.00     0.091 A
HETATM    4  C1  UNL     1      29.424  68.858  75.528  1.00  0.00     0.127 A
HETATM    5  N2  UNL     1      28.280  68.855  76.275  1.00  0.00    -0.351 N
HETATM    6  C2  UNL     1      27.504  67.774  76.226  1.00  0.00     0.090 A
ATOM      7  H2  UNL     1      28.029  69.657  76.853  1.00  0.00     0.166 HD
HETATM    8  C3  UNL     1      27.772  66.662  75.477  1.00  0.00     0.019 A
HETATM    9  C4  UNL     1      28.923  66.665  74.725  1.00  0.00     0.036 A
BRANCH   4  10
HETATM   10  N1  UNL     1      30.168  69.902  75.579  1.00  0.00    -0.384 N
ATOM     11  H12 UNL     1      30.920  69.977  76.264  1.00  0.00     0.157 HD
ATOM     12  H11 UNL     1      29.981  70.651  74.912  1.00  0.00     0.157 HD
ENDBRANCH   4  10
ENDBRANCH   1   3
BRANCH   1  13
HETATM   13  N4  UNL     1      30.857  67.381  72.598  1.00  0.00    -0.310 N
HETATM   14  C6  UNL     1      30.304  68.201  71.762  1.00  0.00     0.125 C
ATOM     15  H4  UNL     1      31.222  66.485  72.276  1.00  0.00     0.186 HD
BRANCH  14  16
HETATM   16  C7  UNL     1      29.779  69.482  72.196  1.00  0.00     0.125 C
HETATM   17  N5  UNL     1      28.524  69.635  72.359  1.00  0.00    -0.317 N
ATOM     18  H5  UNL     1      28.161  70.539  72.663  1.00  0.00     0.185 HD
BRANCH  17  19
HETATM   19  N6  UNL     1      27.639  68.579  72.125  1.00  0.00    -0.345 N
ATOM     20  H62 UNL     1      27.693  68.084  71.235  1.00  0.00     0.176 HD
ATOM     21  H61 UNL     1      26.953  68.309  72.829  1.00  0.00     0.176 HD
ENDBRANCH  17  19
ENDBRANCH  14  16
ENDBRANCH   1  13
TORSDOF 5
ENDMDL