MODEL 3
REMARK VINA RESULT: -8.051368682      1.385      1.702
REMARK  4 active torsions:
REMARK  status: ('A' for Active; 'I' for Inactive)
REMARK    1  A    between atoms: C2_2  and  C5_5
REMARK    2  A    between atoms: C6_9  and  C7_10
REMARK    3  A    between atoms: C12_16  and  O3_17
REMARK    4  A    between atoms: C13_19  and  O4_21
ROOT
HETATM    1  C7  UNL     1      22.259   5.359  20.646  1.00  0.00     0.203 C
HETATM    2  O2  UNL     1      22.013   4.145  20.038  1.00  0.00    -0.369 OA
HETATM    3  C8  UNL     1      22.194   3.169  21.022  1.00  0.00     0.159 C
HETATM    4  C9  UNL     1      22.898   3.844  22.198  1.00  0.00     0.043 C
HETATM    5  C10 UNL     1      23.537   4.996  21.409  1.00  0.00     0.028 C
HETATM    6  C11 UNL     1      24.598   4.401  20.539  1.00  0.00     0.042 C
HETATM    7  C12 UNL     1      24.251   3.198  19.767  1.00  0.00     0.155 C
HETATM    8  C13 UNL     1      23.276   2.243  20.444  1.00  0.00     0.106 C
HETATM    9  C14 UNL     1      23.969   1.438  21.486  1.00  0.00     0.051 C
ENDROOT
BRANCH   1  10
HETATM   10  C6  UNL     1      22.449   6.504  19.788  1.00  0.00     0.177 A
HETATM   11  O1  UNL     1      22.195   7.777  19.957  1.00  0.00    -0.220 OA
HETATM   12  N1  UNL     1      22.535   8.459  18.913  1.00  0.00    -0.246 N
HETATM   13  C5  UNL     1      23.043   7.671  17.981  1.00  0.00     0.111 A
ATOM     14  H1  UNL     1      22.426   9.469  18.821  1.00  0.00     0.196 HD
HETATM   15  N2  UNL     1      22.986   6.422  18.543  1.00  0.00    -0.324 N
ATOM     16  H2  UNL     1      23.299   5.561  18.093  1.00  0.00     0.169 HD
BRANCH  13  17
HETATM   17  C2  UNL     1      23.562   8.020  16.652  1.00  0.00     0.009 C
HETATM   18  C1  UNL     1      23.789   6.791  15.801  1.00  0.00     0.023 C
HETATM   19  C3  UNL     1      22.662   9.012  15.942  1.00  0.00     0.023 C
HETATM   20  C4  UNL     1      24.925   8.672  16.813  1.00  0.00     0.023 C
ENDBRANCH  13  17
ENDBRANCH   1  10
BRANCH   8  21
HETATM   21  O4  UNL     1      22.745   1.429  19.454  1.00  0.00    -0.385 OA
ATOM     22  H4  UNL     1      23.243   1.513  18.649  1.00  0.00     0.210 HD
ENDBRANCH   8  21
BRANCH   7  23
HETATM   23  O3  UNL     1      23.775   3.436  18.470  1.00  0.00    -0.392 OA
ATOM     24  H3  UNL     1      23.981   2.762  17.833  1.00  0.00     0.210 HD
ENDBRANCH   7  23
TORSDOF 4
ENDMDL