MODEL 5
REMARK VINA RESULT: -6.100178672      1.444      1.885
REMARK  3 active torsions:
REMARK  status: ('A' for Active; 'I' for Inactive)
REMARK    1  A    between atoms: C4_5  and  N1_6
REMARK    2  A    between atoms: N1_6  and  C5_8
REMARK    3  A    between atoms: N5_17  and  C8_18
ROOT
HETATM    1  C1  UNL     1      22.102   4.797  22.422  1.00  0.00     0.012 C
HETATM    2  C2  UNL     1      22.389   3.639  21.454  1.00  0.00     0.015 C
HETATM    3  C3  UNL     1      23.812   3.777  21.030  1.00  0.00     0.088 C
HETATM    4  S1  UNL     1      23.883   3.191  19.293  1.00  0.00    -0.092 SA
HETATM    5  C4  UNL     1      23.159   1.560  19.303  1.00  0.00     0.161 C
HETATM    6  N4  UNL     1      22.627   0.828  20.209  1.00  0.00    -0.281 N
ATOM      7  H4  UNL     1      22.288  -0.089  19.918  1.00  0.00     0.189 HD
HETATM    8  N5  UNL     1      22.461   1.162  21.580  1.00  0.00    -0.312 N
HETATM    9  C12 UNL     1      22.031   2.382  22.156  1.00  0.00     0.103 C
HETATM   10  C13 UNL     1      20.511   2.421  22.369  1.00  0.00     0.034 C
ENDROOT
BRANCH   5  11
HETATM   11  N1  UNL     1      23.195   0.973  18.010  1.00  0.00    -0.308 N
ATOM     12  H1  UNL     1      22.398   1.109  17.388  1.00  0.00     0.171 HD
BRANCH  11  13
HETATM   13  C5  UNL     1      24.302   0.198  17.544  1.00  0.00     0.177 C
HETATM   14  N2  UNL     1      24.556  -0.215  16.363  1.00  0.00    -0.361 N
HETATM   15  C6  UNL     1      25.779  -0.974  16.297  1.00  0.00     0.142 C
ATOM     16  H2  UNL     1      23.960  -0.028  15.557  1.00  0.00     0.162 HD
HETATM   17  C7  UNL     1      26.084  -1.295  17.747  1.00  0.00     0.142 C
HETATM   18  N3  UNL     1      25.329  -0.241  18.404  1.00  0.00    -0.361 N
ATOM     19  H3  UNL     1      25.514   0.124  19.339  1.00  0.00     0.162 HD
ENDBRANCH  11  13
ENDBRANCH   5  11
BRANCH   8  20
HETATM   20  C8  UNL     1      22.768   0.108  22.561  1.00  0.00     0.038 C
HETATM   21  C9  UNL     1      21.538  -0.678  22.933  1.00  0.00     0.039 C
HETATM   22  C10 UNL     1      23.740  -0.905  21.942  1.00  0.00     0.039 C
HETATM   23  C11 UNL     1      23.460   0.705  23.741  1.00  0.00     0.039 C
ENDBRANCH   8  20
TORSDOF 3
ENDMDL