MODEL 4
REMARK VINA RESULT: -7.829045238      1.001      1.536
REMARK  1 active torsions:
REMARK  status: ('A' for Active; 'I' for Inactive)
REMARK    1  A    between atoms: C6_7  and  C7_8
ROOT
HETATM    1  C7  UNL     1      25.103   4.471  17.827  1.00  0.00     0.145 C
HETATM    2  N1  UNL     1      25.785   5.032  16.883  1.00  0.00    -0.287 N
ATOM      3  H1  UNL     1      26.610   4.565  16.507  1.00  0.00     0.188 HD
HETATM    4  N2  UNL     1      25.399   6.278  16.374  1.00  0.00    -0.298 N
ATOM      5  H2  UNL     1      25.950   6.702  15.628  1.00  0.00     0.183 HD
HETATM    6  C8  UNL     1      24.235   6.977  16.882  1.00  0.00     0.174 C
HETATM    7  C9  UNL     1      23.115   6.906  15.869  1.00  0.00     0.065 C
HETATM    8  C10 UNL     1      23.053   8.247  15.186  1.00  0.00     0.005 C
HETATM    9  C11 UNL     1      23.484   9.200  16.264  1.00  0.00     0.005 C
HETATM   10  C12 UNL     1      24.609   8.455  16.942  1.00  0.00     0.065 C
HETATM   11  O2  UNL     1      23.829   6.513  18.121  1.00  0.00    -0.245 OA
HETATM   12  N3  UNL     1      23.970   5.201  18.287  1.00  0.00    -0.248 N
ATOM     13  H3  UNL     1      23.229   4.692  18.768  1.00  0.00     0.196 HD
ENDROOT
BRANCH   1  14
HETATM   14  C6  UNL     1      25.480   3.149  18.393  1.00  0.00     0.195 C
HETATM   15  O1  UNL     1      24.427   2.273  18.212  1.00  0.00    -0.370 OA
HETATM   16  C5  UNL     1      24.959   1.016  18.450  1.00  0.00     0.154 C
HETATM   17  C4  UNL     1      24.314  -0.055  17.604  1.00  0.00     0.071 C
HETATM   18  C14 UNL     1      26.384   1.017  18.018  1.00  0.00     0.154 C
HETATM   19  C2  UNL     1      25.481  -0.714  16.936  1.00  0.00     0.057 C
HETATM   20  C1  UNL     1      25.750  -2.030  17.615  1.00  0.00     0.045 C
HETATM   21  C3  UNL     1      25.128  -0.950  15.478  1.00  0.00     0.045 C
HETATM   22  O3  UNL     1      26.544   0.159  16.968  1.00  0.00    -0.373 OA
HETATM   23  C13 UNL     1      26.589   2.483  17.618  1.00  0.00     0.074 C
ENDBRANCH   1  14
TORSDOF 1
ENDMDL