MODEL 1
REMARK VINA RESULT: -7.279293339      0.000      0.000
REMARK  2 active torsions:
REMARK  status: ('A' for Active; 'I' for Inactive)
REMARK    1  A    between atoms: C2_2  and  N1_3
REMARK    2  A    between atoms: N1_3  and  C3_6
ROOT
HETATM    1  C3  UNL     1      25.401   2.327  18.265  1.00  0.00     0.186 C
HETATM    2  C4  UNL     1      24.246   1.352  18.278  1.00  0.00     0.038 C
HETATM    3  C5  UNL     1      22.941   2.057  18.531  1.00  0.00     0.073 C
HETATM    4  C6  UNL     1      23.035   2.739  19.873  1.00  0.00     0.197 C
HETATM    5  C7  UNL     1      24.058   3.866  19.713  1.00  0.00     0.073 C
HETATM    6  C8  UNL     1      25.392   3.173  19.505  1.00  0.00     0.038 C
HETATM    7  O1  UNL     1      21.816   3.219  20.320  1.00  0.00    -0.347 OA
HETATM    8  C9  UNL     1      21.750   3.062  21.717  1.00  0.00     0.243 C
HETATM    9  C10 UNL     1      21.715   1.573  21.979  1.00  0.00     0.231 C
HETATM   10  C11 UNL     1      22.235   1.231  23.350  1.00  0.00     0.118 C
HETATM   11  C12 UNL     1      21.358   1.690  24.429  1.00  0.00     0.070 C
HETATM   12  N2  UNL     1      20.099   1.816  24.211  1.00  0.00    -0.336 N
ATOM     13  H2  UNL     1      19.492   2.135  24.966  1.00  0.00     0.168 HD
HETATM   14  C13 UNL     1      19.526   1.517  22.928  1.00  0.00     0.219 C
HETATM   15  N3  UNL     1      18.263   1.637  22.688  1.00  0.00    -0.365 N
ATOM     16  H31 UNL     1      17.856   1.424  21.778  1.00  0.00     0.159 HD
ATOM     17  H32 UNL     1      17.645   1.955  23.435  1.00  0.00     0.159 HD
HETATM   18  O2  UNL     1      20.378   1.079  21.898  1.00  0.00    -0.279 OA
HETATM   19  O3  UNL     1      22.540   0.970  21.044  1.00  0.00    -0.194 OA
HETATM   20  O4  UNL     1      23.531   1.805  20.779  1.00  0.00    -0.198 OA
ENDROOT
BRANCH   1  21
HETATM   21  N1  UNL     1      25.331   3.086  17.051  1.00  0.00    -0.071 N
ATOM     22  H12 UNL     1      24.365   3.338  16.845  1.00  0.00     0.277 HD
ATOM     23  H11 UNL     1      25.530   2.491  16.247  1.00  0.00     0.277 HD
BRANCH  21  24
HETATM   24  C2  UNL     1      26.165   4.247  17.032  1.00  0.00     0.228 C
HETATM   25  C1  UNL     1      25.308   5.403  16.504  1.00  0.00     0.034 C
ENDBRANCH  21  24
ENDBRANCH   1  21
TORSDOF 2
ENDMDL