MODEL 4
REMARK VINA RESULT: -6.563270644      3.325      4.905
REMARK  2 active torsions:
REMARK  status: ('A' for Active; 'I' for Inactive)
REMARK    1  A    between atoms: C2_2  and  C3_3
REMARK    2  A    between atoms: C5_5  and  O1_6
ROOT
HETATM    1  C3  UNL     1      24.896   4.297  17.989  1.00  0.00     0.061 C
HETATM    2  C4  UNL     1      24.208   3.059  17.393  1.00  0.00     0.096 C
HETATM    3  C5  UNL     1      23.254   2.454  18.408  1.00  0.00     0.360 C
HETATM    4  N1  UNL     1      23.917   2.292  19.678  1.00  0.00     0.130 N
HETATM    5  C6  UNL     1      23.129   1.449  20.519  1.00  0.00     0.315 C
HETATM    6  C7  UNL     1      24.285   3.548  20.296  1.00  0.00     0.418 C
HETATM    7  N2  UNL     1      24.237   4.574  19.242  1.00  0.00    -0.178 N
HETATM    8  C8  UNL     1      23.546   5.785  19.512  1.00  0.00     0.716 A
HETATM    9  N3  UNL     1      23.224   6.484  20.608  1.00  0.00    -0.115 N
ATOM     10  H3  UNL     1      23.450   6.236  21.572  1.00  0.00     0.207 HD
HETATM   11  N4  UNL     1      22.560   7.552  20.212  1.00  0.00    -0.213 N
ATOM     12  H4  UNL     1      22.189   8.269  20.834  1.00  0.00     0.210 HD
HETATM   13  N5  UNL     1      22.441   7.565  18.900  1.00  0.00    -0.211 N
ATOM     14  H5  UNL     1      21.975   8.272  18.332  1.00  0.00     0.210 HD
HETATM   15  N6  UNL     1      23.051   6.472  18.469  1.00  0.00    -0.102 N
HETATM   16  C9  UNL     1      23.271   5.912  17.152  1.00  0.00     0.134 C
HETATM   17  C10 UNL     1      23.079   6.889  16.041  1.00  0.00     0.028 C
HETATM   18  C11 UNL     1      23.958   8.071  16.189  1.00  0.00     0.002 C
HETATM   19  C12 UNL     1      25.235   7.880  16.904  1.00  0.00     0.001 C
HETATM   20  C13 UNL     1      25.717   6.493  17.075  1.00  0.00     0.009 C
HETATM   21  C14 UNL     1      24.713   5.411  17.018  1.00  0.00     0.040 C
ENDROOT
BRANCH   1  22
HETATM   22  C2  UNL     1      26.331   3.927  18.256  1.00  0.00     0.028 C
HETATM   23  C1  UNL     1      26.768   2.717  17.482  1.00  0.00     0.007 C
ENDBRANCH   1  22
BRANCH   3  24
HETATM   24  O1  UNL     1      22.913   1.180  17.956  1.00  0.00    -0.368 OA
ATOM     25  H1  UNL     1      23.192   0.558  18.617  1.00  0.00     0.212 HD
ENDBRANCH   3  24
TORSDOF 2
ENDMDL