MODEL 2
REMARK VINA RESULT: -6.708855809      4.646      6.066
REMARK  2 active torsions:
REMARK  status: ('A' for Active; 'I' for Inactive)
REMARK       I    between atoms: C2_2  and  N1_4
REMARK    1  A    between atoms: C4_11  and  C5_12
REMARK    2  A    between atoms: C5_12  and  N4_13
ROOT
HETATM    1  C1  UNL     1      25.765  -1.227  17.032  1.00  0.00     0.117 C
HETATM    2  C2  UNL     1      25.727  -0.573  18.368  1.00  0.00     0.219 C
HETATM    3  O1  UNL     1      25.635  -1.350  19.389  1.00  0.00    -0.274 OA
HETATM    4  N1  UNL     1      25.789   0.766  18.519  1.00  0.00    -0.306 N
ATOM      5  H1  UNL     1      26.452   1.001  19.258  1.00  0.00     0.171 HD
HETATM    6  C3  UNL     1      25.291   1.824  18.040  1.00  0.00     0.167 A
HETATM    7  N2  UNL     1      24.380   1.984  17.058  1.00  0.00    -0.279 N
ATOM      8  H2  UNL     1      23.954   1.175  16.605  1.00  0.00     0.189 HD
HETATM    9  N3  UNL     1      24.063   3.166  16.710  1.00  0.00    -0.293 N
ATOM     10  H3  UNL     1      23.378   3.299  15.967  1.00  0.00     0.187 HD
HETATM   11  C4  UNL     1      24.600   4.219  17.288  1.00  0.00     0.117 A
HETATM   12  S3  UNL     1      25.637   3.474  18.410  1.00  0.00    -0.034 SA
ENDROOT
BRANCH  11  13
HETATM   13  C5  UNL     1      24.491   5.680  17.061  1.00  0.00     0.230 C
HETATM   14  C6  UNL     1      23.841   5.881  15.680  1.00  0.00     0.058 C
HETATM   15  C7  UNL     1      24.261   7.208  15.138  1.00  0.00     0.004 C
HETATM   16  C8  UNL     1      23.074   8.104  14.863  1.00  0.00     0.011 C
HETATM   17  C9  UNL     1      22.631   8.884  16.050  1.00  0.00     0.086 C
HETATM   18  S1  UNL     1      23.549   8.639  17.552  1.00  0.00    -0.095 SA
HETATM   19  S2  UNL     1      23.447   6.582  18.201  1.00  0.00    -0.051 SA
BRANCH  13  20
HETATM   20  N4  UNL     1      25.809   6.305  17.063  1.00  0.00    -0.054 N
ATOM     21  H43 UNL     1      26.209   6.335  18.001  1.00  0.00     0.276 HD
ATOM     22  H42 UNL     1      26.508   5.712  16.616  1.00  0.00     0.276 HD
ATOM     23  H41 UNL     1      25.772   7.231  16.639  1.00  0.00     0.276 HD
ENDBRANCH  13  20
ENDBRANCH  11  13
TORSDOF 2
ENDMDL