MODEL 1
REMARK VINA RESULT: -6.377248561      0.000      0.000
REMARK  1 active torsions:
REMARK  status: ('A' for Active; 'I' for Inactive)
REMARK    1  A    between atoms: C3_3  and  C4_4
ROOT
HETATM    1  C4  UNL     1      24.094   4.175  20.972  1.00  0.00     0.072 C
HETATM    2  C5  UNL     1      23.366   3.178  21.446  1.00  0.00     0.055 C
HETATM    3  C6  UNL     1      23.496   1.744  21.159  1.00  0.00     0.141 C
HETATM    4  C7  UNL     1      22.135   1.177  20.825  1.00  0.00     0.070 C
HETATM    5  C8  UNL     1      21.479   0.926  22.192  1.00  0.00     0.127 C
HETATM    6  N1  UNL     1      22.601   0.337  22.896  1.00  0.00    -0.372 N
HETATM    7  C9  UNL     1      22.497  -0.784  23.802  1.00  0.00     0.150 C
HETATM    8  C10 UNL     1      23.732   1.088  22.496  1.00  0.00     0.112 C
HETATM    9  N2  UNL     1      24.818   1.192  23.186  1.00  0.00    -0.386 N
ATOM     10  H21 UNL     1      24.978   0.748  24.090  1.00  0.00     0.157 HD
ATOM     11  H22 UNL     1      25.634   1.734  22.897  1.00  0.00     0.157 HD
HETATM   12  O1  UNL     1      24.503   1.348  20.367  1.00  0.00    -0.358 OA
HETATM   13  C11 UNL     1      24.684   1.870  19.141  1.00  0.00     0.184 C
HETATM   14  C12 UNL     1      23.434   2.027  18.307  1.00  0.00     0.045 C
HETATM   15  C13 UNL     1      25.438   3.167  19.073  1.00  0.00     0.237 A
HETATM   16  N3  UNL     1      26.911   3.080  18.792  1.00  0.00    -0.122 NA
HETATM   17  S1  UNL     1      26.073   3.771  17.528  1.00  0.00    -0.001 SA
HETATM   18  O2  UNL     1      25.148   4.062  20.091  1.00  0.00    -0.309 OA
ENDROOT
BRANCH   1  19
HETATM   19  C3  UNL     1      23.699   5.503  21.464  1.00  0.00     0.032 C
HETATM   20  C2  UNL     1      23.139   6.421  20.741  1.00  0.00    -0.028 C
HETATM   21  C1  UNL     1      22.831   6.230  19.317  1.00  0.00     0.036 C
ENDBRANCH   1  19
TORSDOF 1
ENDMDL