MODEL 4
REMARK VINA RESULT: -8.413056391      2.158      6.558
REMARK  1 active torsions:
REMARK  status: ('A' for Active; 'I' for Inactive)
REMARK       I    between atoms: C3_7  and  N2_8
REMARK    1  A    between atoms: N2_8  and  C4_10
ROOT
HETATM    1  C1  UNL     1      24.329   1.037  17.634  1.00  0.00     0.082 C
HETATM    2  C2  UNL     1      24.395   2.200  18.556  1.00  0.00     0.202 C
HETATM    3  O1  UNL     1      25.354   3.135  18.259  1.00  0.00    -0.176 OA
HETATM    4  O2  UNL     1      25.147   3.870  17.218  1.00  0.00    -0.095 OA
HETATM    5  N1  UNL     1      24.800   5.150  17.536  1.00  0.00    -0.065 N
ATOM      6  H1  UNL     1      25.227   5.884  16.972  1.00  0.00     0.216 HD
HETATM    7  C3  UNL     1      23.903   5.590  18.573  1.00  0.00     0.698 C
HETATM    8  N2  UNL     1      23.693   6.965  18.579  1.00  0.00    -0.220 N
ATOM      9  H2  UNL     1      24.194   7.518  19.275  1.00  0.00     0.178 HD
HETATM   10  N3  UNL     1      23.226   5.001  19.529  1.00  0.00    -0.192 N
ATOM     11  H3  UNL     1      22.661   5.612  20.119  1.00  0.00     0.181 HD
HETATM   12  C9  UNL     1      23.181   3.590  19.850  1.00  0.00     0.154 C
HETATM   13  C10 UNL     1      22.012   3.170  20.657  1.00  0.00     0.061 C
HETATM   14  C11 UNL     1      22.304   1.793  21.197  1.00  0.00     0.005 C
HETATM   15  C12 UNL     1      23.313   1.024  20.408  1.00  0.00     0.010 C
HETATM   16  C13 UNL     1      24.545   1.760  20.025  1.00  0.00     0.055 C
HETATM   17  C14 UNL     1      24.428   3.169  20.630  1.00  0.00     0.071 C
HETATM   18  O3  UNL     1      23.169   2.850  18.666  1.00  0.00    -0.321 OA
ENDROOT
BRANCH   8  19
HETATM   19  C4  UNL     1      22.825   7.660  17.680  1.00  0.00     0.099 C
HETATM   20  C5  UNL     1      23.568   8.449  16.620  1.00  0.00     0.026 C
HETATM   21  C6  UNL     1      22.431   9.261  16.011  1.00  0.00     0.002 C
HETATM   22  C7  UNL     1      21.399   9.420  17.108  1.00  0.00     0.002 C
HETATM   23  C8  UNL     1      22.003   8.739  18.342  1.00  0.00     0.026 C
ENDBRANCH   8  19
TORSDOF 1
ENDMDL