MODEL 3
REMARK VINA RESULT: -7.054156951      3.061      4.513
REMARK  2 active torsions:
REMARK  status: ('A' for Active; 'I' for Inactive)
REMARK    1  A    between atoms: N1_1  and  N2_4
REMARK       I    between atoms: N2_4  and  C1_6
REMARK    2  A    between atoms: C1_6  and  C2_8
ROOT
HETATM    1  C2  UNL     1      25.850   1.536  18.571  1.00  0.00     0.133 A
HETATM    2  N3  UNL     1      25.728   0.201  18.760  1.00  0.00    -0.255 N
ATOM      3  H3  UNL     1      26.380  -0.502  18.411  1.00  0.00     0.195 HD
HETATM    4  O2  UNL     1      24.661  -0.050  19.449  1.00  0.00    -0.241 OA
HETATM    5  C3  UNL     1      24.024   1.064  19.755  1.00  0.00     0.087 A
HETATM    6  C4  UNL     1      24.754   2.078  19.213  1.00  0.00     0.017 A
HETATM    7  C5  UNL     1      24.356   3.511  19.340  1.00  0.00     0.118 C
HETATM    8  S1  UNL     1      23.728   3.722  21.022  1.00  0.00    -0.154 SA
HETATM    9  C6  UNL     1      22.777   2.262  21.550  1.00  0.00     0.014 C
HETATM   10  C7  UNL     1      21.381   2.791  21.796  1.00  0.00     0.021 C
HETATM   11  C8  UNL     1      20.446   1.791  22.368  1.00  0.00     0.002 C
HETATM   12  C9  UNL     1      20.392   1.869  23.881  1.00  0.00     0.000 C
HETATM   13  C10 UNL     1      21.698   1.577  24.536  1.00  0.00     0.000 C
HETATM   14  C11 UNL     1      22.668   0.845  23.629  1.00  0.00     0.002 C
HETATM   15  C12 UNL     1      23.463   1.828  22.828  1.00  0.00     0.021 C
HETATM   16  C13 UNL     1      22.772   1.179  20.530  1.00  0.00     0.088 C
ENDROOT
BRANCH   1  17
HETATM   17  C1  UNL     1      26.910   2.228  17.846  1.00  0.00     0.288 C
HETATM   18  N2  UNL     1      27.227   1.781  16.535  1.00  0.00    -0.271 N
ATOM     19  H2  UNL     1      26.713   0.997  16.133  1.00  0.00     0.189 HD
HETATM   20  O1  UNL     1      27.553   3.183  18.304  1.00  0.00    -0.264 OA
BRANCH  18  21
HETATM   21  N1  UNL     1      28.230   2.398  15.788  1.00  0.00    -0.342 N
ATOM     22  H12 UNL     1      29.016   2.818  16.284  1.00  0.00     0.176 HD
ATOM     23  H11 UNL     1      28.182   2.433  14.770  1.00  0.00     0.176 HD
ENDBRANCH  18  21
ENDBRANCH   1  17
TORSDOF 2
ENDMDL