MODEL 2
REMARK VINA RESULT: -6.275530131      6.027      8.633
REMARK  1 active torsions:
REMARK  status: ('A' for Active; 'I' for Inactive)
REMARK       I    between atoms: C7_10  and  N3_11
REMARK    1  A    between atoms: N3_11  and  C8_13
ROOT
HETATM    1  C1  UNL     1      19.592   1.701  23.304  1.00  0.00    -0.009 C
HETATM    2  C2  UNL     1      19.759   0.823  22.349  1.00  0.00    -0.002 C
HETATM    3  C3  UNL     1      21.079   0.188  22.084  1.00  0.00     0.139 C
HETATM    4  C4  UNL     1      21.958   0.310  23.309  1.00  0.00     0.148 C
HETATM    5  N1  UNL     1      21.947   1.584  23.917  1.00  0.00    -0.391 N
HETATM    6  C5  UNL     1      20.683   2.148  24.207  1.00  0.00     0.145 C
HETATM    7  C6  UNL     1      22.947   2.503  23.463  1.00  0.00     0.259 C
HETATM    8  N2  UNL     1      22.876   2.794  22.057  1.00  0.00    -0.211 N
ATOM      9  H2  UNL     1      23.318   3.681  21.813  1.00  0.00     0.179 HD
HETATM   10  C7  UNL     1      22.383   2.191  21.044  1.00  0.00     0.672 C
HETATM   11  N3  UNL     1      22.557   2.881  19.811  1.00  0.00    -0.220 N
ATOM     12  H3  UNL     1      21.801   3.480  19.478  1.00  0.00     0.178 HD
HETATM   13  N4  UNL     1      21.710   0.960  21.029  1.00  0.00    -0.217 N
ATOM     14  H4  UNL     1      21.654   0.527  20.107  1.00  0.00     0.178 HD
ENDROOT
BRANCH  11  15
HETATM   15  C8  UNL     1      23.758   2.772  19.008  1.00  0.00     0.119 C
HETATM   16  C9  UNL     1      23.784   1.507  18.180  1.00  0.00     0.113 C
HETATM   17  S1  UNL     1      25.507   0.884  18.246  1.00  0.00    -0.084 SA
HETATM   18  S2  UNL     1      26.735   2.617  18.030  1.00  0.00    -0.025 SA
HETATM   19  S3  UNL     1      25.428   4.161  17.305  1.00  0.00    -0.084 SA
HETATM   20  C10 UNL     1      23.831   4.013  18.146  1.00  0.00     0.113 C
ENDBRANCH  11  15
TORSDOF 1
ENDMDL