MODEL 1
REMARK VINA RESULT: -7.532412114      0.000      0.000
REMARK  1 active torsions:
REMARK  status: ('A' for Active; 'I' for Inactive)
REMARK    1  A    between atoms: C5_8  and  N2_9
ROOT
HETATM    1  N2  UNL     1      25.535   5.870  15.720  1.00  0.00    -0.276 N
HETATM    2  C6  UNL     1      26.186   4.776  15.032  1.00  0.00     0.152 C
HETATM    3  C7  UNL     1      25.779   3.519  15.744  1.00  0.00     0.048 C
HETATM    4  C8  UNL     1      25.974   3.587  17.230  1.00  0.00     0.153 C
HETATM    5  C9  UNL     1      25.153   2.513  17.849  1.00  0.00     0.070 C
HETATM    6  N3  UNL     1      24.498   1.690  18.330  1.00  0.00    -0.197 NA
HETATM    7  C10 UNL     1      25.632   4.894  17.820  1.00  0.00     0.091 C
HETATM    8  S2  UNL     1      25.496   4.993  19.613  1.00  0.00    -0.035 SA
HETATM    9  N4  UNL     1      25.435   5.929  17.104  1.00  0.00    -0.292 N
ATOM     10  H4  UNL     1      25.201   6.815  17.554  1.00  0.00     0.187 HD
ENDROOT
BRANCH   1  11
HETATM   11  C5  UNL     1      24.989   6.902  14.912  1.00  0.00     0.126 A
HETATM   12  C4  UNL     1      24.359   7.942  15.541  1.00  0.00     0.091 A
HETATM   13  C3  UNL     1      23.820   8.947  14.766  1.00  0.00     0.105 A
HETATM   14  N1  UNL     1      23.936   8.864  13.446  1.00  0.00    -0.337 N
HETATM   15  S1  UNL     1      23.072  10.183  15.528  1.00  0.00    -0.060 SA
HETATM   16  C2  UNL     1      24.567   7.818  12.849  1.00  0.00     0.079 A
ATOM     17  H1  UNL     1      23.540   9.603  12.864  1.00  0.00     0.168 HD
HETATM   18  C1  UNL     1      24.686   7.739  11.391  1.00  0.00     0.089 C
HETATM   19  N5  UNL     1      25.109   6.809  13.591  1.00  0.00    -0.331 N
ATOM     20  H5  UNL     1      25.585   6.020  13.153  1.00  0.00     0.168 HD
ENDBRANCH   1  11
TORSDOF 1
ENDMDL