MODEL 3
REMARK VINA RESULT: -6.486258309      1.874      2.093
REMARK  3 active torsions:
REMARK  status: ('A' for Active; 'I' for Inactive)
REMARK    1  A    between atoms: C2_2  and  O1_3
REMARK    2  A    between atoms: O1_3  and  C3_4
REMARK       I    between atoms: C3_4  and  N1_6
REMARK    3  A    between atoms: N1_6  and  C4_8
ROOT
HETATM    1  C4  UNL     1      25.227   6.190  16.472  1.00  0.00     0.132 A
HETATM    2  N2  UNL     1      24.698   6.978  17.422  1.00  0.00    -0.284 N
ATOM      3  H2  UNL     1      24.388   7.927  17.211  1.00  0.00     0.188 HD
HETATM    4  N3  UNL     1      24.594   6.479  18.639  1.00  0.00    -0.290 N
ATOM      5  H3  UNL     1      24.196   7.056  19.380  1.00  0.00     0.187 HD
HETATM    6  C5  UNL     1      25.008   5.207  18.932  1.00  0.00     0.119 A
HETATM    7  S1  UNL     1      25.028   4.257  20.352  1.00  0.00    -0.039 SA
HETATM    8  C6  UNL     1      25.722   2.846  19.698  1.00  0.00     0.145 A
HETATM    9  S2  UNL     1      26.088   1.412  20.446  1.00  0.00    -0.052 SA
HETATM   10  N4  UNL     1      25.911   3.159  18.421  1.00  0.00    -0.339 N
ATOM     11  H4  UNL     1      26.322   2.489  17.771  1.00  0.00     0.167 HD
HETATM   12  C7  UNL     1      25.550   4.361  18.016  1.00  0.00     0.079 A
HETATM   13  C8  UNL     1      25.659   4.893  16.720  1.00  0.00     0.013 A
HETATM   14  C9  UNL     1      26.221   4.131  15.594  1.00  0.00     0.055 C
ENDROOT
BRANCH   1  15
HETATM   15  N1  UNL     1      25.341   6.661  15.249  1.00  0.00    -0.287 N
HETATM   16  C3  UNL     1      25.683   8.029  15.113  1.00  0.00     0.366 C
HETATM   17  O2  UNL     1      26.875   8.416  15.200  1.00  0.00    -0.238 OA
ATOM     18  H1  UNL     1      25.191   6.066  14.434  1.00  0.00     0.172 HD
BRANCH  16  19
HETATM   19  O1  UNL     1      24.722   9.024  14.876  1.00  0.00    -0.304 OA
BRANCH  19  20
HETATM   20  C2  UNL     1      23.619   8.805  14.018  1.00  0.00     0.176 C
HETATM   21  C1  UNL     1      24.039   8.400  12.636  1.00  0.00     0.034 C
ENDBRANCH  19  20
ENDBRANCH  16  19
ENDBRANCH   1  15
TORSDOF 3
ENDMDL