MODEL 4
REMARK VINA RESULT: -6.646978026      2.238      3.632
REMARK  3 active torsions:
REMARK  status: ('A' for Active; 'I' for Inactive)
REMARK    1  A    between atoms: C5_7  and  C6_8
REMARK    2  A    between atoms: N4_15  and  N5_16
REMARK    3  A    between atoms: C8_19  and  C9_20
ROOT
HETATM    1  C1  UNL     1      23.932   9.053  15.809  1.00  0.00     0.089 C
HETATM    2  C2  UNL     1      24.410   7.683  16.221  1.00  0.00     0.077 A
HETATM    3  N1  UNL     1      25.004   6.864  15.341  1.00  0.00    -0.349 N
ATOM      4  H1  UNL     1      25.125   7.191  14.383  1.00  0.00     0.167 HD
HETATM    5  C3  UNL     1      25.448   5.641  15.653  1.00  0.00     0.022 A
HETATM    6  C4  UNL     1      26.102   4.733  14.693  1.00  0.00     0.069 C
HETATM    7  C5  UNL     1      25.268   5.214  16.984  1.00  0.00     0.057 A
HETATM    8  C8  UNL     1      24.671   6.009  17.905  1.00  0.00     0.034 A
HETATM    9  N6  UNL     1      24.254   7.248  17.474  1.00  0.00    -0.348 N
ATOM     10  H6  UNL     1      23.801   7.866  18.147  1.00  0.00     0.167 HD
ENDROOT
BRANCH   7  11
HETATM   11  C6  UNL     1      25.776   3.902  17.295  1.00  0.00     0.158 A
HETATM   12  N2  UNL     1      26.891   3.466  17.869  1.00  0.00    -0.281 N
HETATM   13  N3  UNL     1      26.872   2.165  17.963  1.00  0.00    -0.273 N
ATOM     14  H2  UNL     1      27.653   4.063  18.191  1.00  0.00     0.188 HD
HETATM   15  C7  UNL     1      25.727   1.712  17.445  1.00  0.00     0.213 A
ATOM     16  H3  UNL     1      27.610   1.588  18.367  1.00  0.00     0.189 HD
HETATM   17  S1  UNL     1      25.270   0.136  17.350  1.00  0.00    -0.037 SA
HETATM   18  N4  UNL     1      25.043   2.784  17.029  1.00  0.00    -0.217 N
BRANCH  18  19
HETATM   19  N5  UNL     1      23.770   2.676  16.445  1.00  0.00    -0.335 N
ATOM     20  H52 UNL     1      23.331   3.456  15.955  1.00  0.00     0.177 HD
ATOM     21  H51 UNL     1      23.145   1.871  16.405  1.00  0.00     0.177 HD
ENDBRANCH  18  19
ENDBRANCH   7  11
BRANCH   8  22
HETATM   22  C9  UNL     1      24.419   5.584  19.291  1.00  0.00    -0.008 C
HETATM   23  C10 UNL     1      23.846   6.832  20.029  1.00  0.00     0.021 C
HETATM   24  C11 UNL     1      25.590   5.160  20.089  1.00  0.00     0.021 C
HETATM   25  C12 UNL     1      23.279   4.572  19.415  1.00  0.00     0.021 C
ENDBRANCH   8  22
TORSDOF 3
ENDMDL