MODEL 1
REMARK VINA RESULT: -8.017812580      0.000      0.000
REMARK  1 active torsions:
REMARK  status: ('A' for Active; 'I' for Inactive)
REMARK    1  A    between atoms: C8_16  and  C9_17
ROOT
HETATM    1  C1  UNL     1      24.591   3.498  20.952  1.00  0.00     0.160 C
HETATM    2  N1  UNL     1      25.190   3.490  19.635  1.00  0.00    -0.312 N
HETATM    3  C2  UNL     1      25.857   2.403  19.209  1.00  0.00     0.180 A
HETATM    4  S1  UNL     1      26.030   1.060  20.121  1.00  0.00    -0.040 SA
HETATM    5  N2  UNL     1      26.408   2.423  17.973  1.00  0.00    -0.322 N
ATOM      6  H2  UNL     1      26.913   1.596  17.654  1.00  0.00     0.169 HD
HETATM    7  C3  UNL     1      26.324   3.460  17.157  1.00  0.00     0.134 A
HETATM    8  S2  UNL     1      26.992   3.485  15.656  1.00  0.00    -0.058 SA
HETATM    9  C4  UNL     1      25.645   4.596  17.562  1.00  0.00     0.120 A
HETATM   10  C5  UNL     1      25.084   4.579  18.819  1.00  0.00     0.142 A
HETATM   11  N3  UNL     1      24.499   5.780  18.956  1.00  0.00    -0.312 N
ATOM     12  H3  UNL     1      23.990   6.085  19.786  1.00  0.00     0.170 HD
HETATM   13  C6  UNL     1      24.674   6.527  17.849  1.00  0.00     0.184 A
HETATM   14  N4  UNL     1      25.384   5.785  16.993  1.00  0.00    -0.311 N
HETATM   15  C7  UNL     1      25.602   6.553  15.776  1.00  0.00     0.158 C
HETATM   16  C8  UNL     1      24.429   7.508  15.815  1.00  0.00     0.107 C
HETATM   17  N5  UNL     1      24.388   7.808  17.241  1.00  0.00    -0.355 N
ATOM     18  H5  UNL     1      24.203   8.701  17.698  1.00  0.00     0.163 HD
ENDROOT
BRANCH  16  19
HETATM   19  C9  UNL     1      24.659   8.732  14.986  1.00  0.00     0.010 A
HETATM   20  C10 UNL     1      23.634   9.772  14.869  1.00  0.00     0.007 A
HETATM   21  C11 UNL     1      23.805   8.805  13.732  1.00  0.00     0.007 A
ENDBRANCH  16  19
TORSDOF 1
ENDMDL