MODEL 4
REMARK VINA RESULT: -5.830844202      2.725      6.085
REMARK  5 active torsions:
REMARK  status: ('A' for Active; 'I' for Inactive)
REMARK    1  A    between atoms: C2_2  and  C3_3
REMARK    2  A    between atoms: C3_3  and  S1_7
REMARK    3  A    between atoms: S1_7  and  C4_8
REMARK    4  A    between atoms: C4_8  and  O1_10
REMARK    5  A    between atoms: O1_10  and  N2_11
ROOT
HETATM    1  O1  UNL     1      25.320   6.326  16.733  1.00  0.00    -0.219 OA
ENDROOT
BRANCH   1   2
HETATM    2  C4  UNL     1      25.754   6.577  15.452  1.00  0.00     0.208 C
HETATM    3  S2  UNL     1      26.215   5.296  14.550  1.00  0.00    -0.042 SA
BRANCH   2   4
HETATM    4  S1  UNL     1      25.847   8.178  14.721  1.00  0.00    -0.038 SA
BRANCH   4   5
HETATM    5  C3  UNL     1      24.328   8.792  14.065  1.00  0.00     0.047 C
HETATM    6  N1  UNL     1      24.005   8.452  12.864  1.00  0.00    -0.397 N
ATOM      7  H12 UNL     1      23.128   8.807  12.485  1.00  0.00     0.156 HD
ATOM      8  H11 UNL     1      24.612   7.846  12.314  1.00  0.00     0.156 HD
BRANCH   5   9
HETATM    9  C2  UNL     1      23.451   9.668  14.861  1.00  0.00     0.060 C
HETATM   10  C1  UNL     1      23.443   9.337  16.341  1.00  0.00     0.012 C
ENDBRANCH   5   9
ENDBRANCH   4   5
ENDBRANCH   2   4
ENDBRANCH   1   2
BRANCH   1  11
HETATM   11  N2  UNL     1      25.540   5.086  17.259  1.00  0.00    -0.265 N
HETATM   12  C5  UNL     1      24.965   4.603  18.276  1.00  0.00     0.043 C
HETATM   13  C6  UNL     1      23.952   5.361  19.035  1.00  0.00     0.327 C
HETATM   14  C9  UNL     1      25.295   3.244  18.741  1.00  0.00     0.038 C
HETATM   15  N3  UNL     1      23.534   4.479  20.119  1.00  0.00     0.093 N
HETATM   16  C7  UNL     1      24.680   4.124  20.944  1.00  0.00     0.273 C
HETATM   17  C11 UNL     1      22.989   3.232  19.604  1.00  0.00     0.273 C
HETATM   18  C8  UNL     1      25.747   3.377  20.199  1.00  0.00     0.041 C
HETATM   19  C10 UNL     1      23.947   2.498  18.716  1.00  0.00     0.041 C
ATOM     20  H2  UNL     1      26.229   4.497  16.790  1.00  0.00     0.194 HD
ENDBRANCH   1  11
TORSDOF 5
ENDMDL