MODEL 4
REMARK VINA RESULT: -6.678504645      3.912      5.699
REMARK  3 active torsions:
REMARK  status: ('A' for Active; 'I' for Inactive)
REMARK    1  A    between atoms: N1_14  and  O3_16
REMARK    2  A    between atoms: C13_19  and  O4_20
REMARK    3  A    between atoms: O4_20  and  O5_21
ROOT
HETATM    1  C1  UNL     1      23.798   4.954  18.857  1.00  0.00     0.012 C
HETATM    2  C2  UNL     1      23.253   3.509  18.827  1.00  0.00     0.017 C
HETATM    3  C3  UNL     1      24.132   2.688  18.035  1.00  0.00     0.044 C
HETATM    4  C4  UNL     1      25.280   1.953  18.591  1.00  0.00     0.054 C
HETATM    5  C5  UNL     1      26.094   1.526  17.330  1.00  0.00     0.045 C
HETATM    6  C6  UNL     1      26.269   2.810  19.339  1.00  0.00     0.045 C
HETATM    7  O1  UNL     1      25.035   0.736  19.163  1.00  0.00    -0.376 OA
HETATM    8  C7  UNL     1      24.357   0.695  20.344  1.00  0.00     0.125 C
HETATM    9  C8  UNL     1      24.783  -0.480  21.228  1.00  0.00     0.040 C
HETATM   10  C9  UNL     1      22.925   0.691  20.030  1.00  0.00     0.053 C
HETATM   11  C10 UNL     1      22.080  -0.295  20.853  1.00  0.00     0.185 C
HETATM   12  O2  UNL     1      20.781   0.270  20.583  1.00  0.00    -0.337 OA
HETATM   13  C11 UNL     1      20.905   1.635  20.356  1.00  0.00     0.144 C
HETATM   14  N1  UNL     1      19.973   2.442  20.005  1.00  0.00    -0.251 N
ATOM     15  H1  UNL     1      20.223   3.423  19.876  1.00  0.00     0.196 HD
HETATM   16  C12 UNL     1      22.306   1.947  20.599  1.00  0.00     0.103 C
HETATM   17  C13 UNL     1      22.855   3.215  20.208  1.00  0.00     0.176 C
ENDROOT
BRANCH  14  18
HETATM   18  O3  UNL     1      18.676   2.091  19.791  1.00  0.00    -0.288 OA
ATOM     19  H3  UNL     1      18.379   1.223  19.543  1.00  0.00     0.244 HD
ENDBRANCH  14  18
BRANCH  17  20
HETATM   20  O4  UNL     1      21.939   4.213  20.579  1.00  0.00    -0.237 OA
BRANCH  20  21
HETATM   21  O5  UNL     1      21.909   4.422  21.865  1.00  0.00    -0.250 OA
ATOM     22  H5  UNL     1      21.084   4.787  22.161  1.00  0.00     0.253 HD
ENDBRANCH  20  21
ENDBRANCH  17  20
TORSDOF 3
ENDMDL