MODEL 1
REMARK VINA RESULT: -8.607843290      0.000      0.000
REMARK  2 active torsions:
REMARK  status: ('A' for Active; 'I' for Inactive)
REMARK    1  A    between atoms: C6_6  and  N1_7
REMARK    2  A    between atoms: N1_7  and  C7_9
ROOT
HETATM    1  C7  UNL     1      26.174   5.309  15.434  1.00  0.00     0.153 A
HETATM    2  N2  UNL     1      26.738   4.266  14.800  1.00  0.00    -0.241 N
ATOM      3  H2  UNL     1      27.206   4.318  13.896  1.00  0.00     0.196 HD
HETATM    4  O1  UNL     1      26.598   3.175  15.512  1.00  0.00    -0.215 OA
HETATM    5  C8  UNL     1      25.945   3.453  16.627  1.00  0.00     0.202 A
HETATM    6  N3  UNL     1      25.556   2.710  17.664  1.00  0.00    -0.325 N
ATOM      7  H3  UNL     1      25.760   1.712  17.689  1.00  0.00     0.169 HD
HETATM    8  C9  UNL     1      24.891   3.293  18.677  1.00  0.00     0.120 A
HETATM    9  S1  UNL     1      24.399   2.235  20.041  1.00  0.00    -0.030 SA
HETATM   10  C10 UNL     1      24.582   4.637  18.707  1.00  0.00     0.149 A
HETATM   11  C11 UNL     1      23.869   5.198  19.821  1.00  0.00     0.120 C
HETATM   12  N4  UNL     1      23.289   5.672  20.723  1.00  0.00    -0.190 NA
HETATM   13  N5  UNL     1      24.982   5.374  17.651  1.00  0.00    -0.339 N
ATOM     14  H5  UNL     1      24.777   6.372  17.629  1.00  0.00     0.167 HD
HETATM   15  C12 UNL     1      25.658   4.802  16.612  1.00  0.00     0.133 A
ENDROOT
BRANCH   1  16
HETATM   16  N1  UNL     1      26.080   6.542  15.103  1.00  0.00    -0.368 N
ATOM     17  H1  UNL     1      26.871   7.148  15.324  1.00  0.00     0.161 HD
BRANCH  16  18
HETATM   18  C6  UNL     1      24.956   7.141  14.449  1.00  0.00     0.087 C
HETATM   19  C2  UNL     1      24.654   8.542  14.958  1.00  0.00     0.004 C
HETATM   20  C1  UNL     1      23.963   8.531  16.287  1.00  0.00     0.012 C
HETATM   21  C3  UNL     1      23.654   9.009  13.911  1.00  0.00     0.006 C
HETATM   22  C4  UNL     1      24.071   8.324  12.616  1.00  0.00     0.002 C
HETATM   23  C5  UNL     1      25.260   7.457  12.979  1.00  0.00     0.025 C
ENDBRANCH  16  18
ENDBRANCH   1  16
TORSDOF 2
ENDMDL