MODEL 3
REMARK VINA RESULT: -7.473683063      1.769      1.848
REMARK  3 active torsions:
REMARK  status: ('A' for Active; 'I' for Inactive)
REMARK    1  A    between atoms: N1_1  and  C1_4
REMARK    2  A    between atoms: C2_7  and  N3_8
REMARK    3  A    between atoms: N3_8  and  C3_10
ROOT
HETATM    1  N3  UNL     1      25.616   5.060  17.877  1.00  0.00    -0.316 N
ATOM      2  H3  UNL     1      25.856   5.253  18.850  1.00  0.00     0.170 HD
ENDROOT
BRANCH   1   3
HETATM    3  C2  UNL     1      25.611   3.812  17.410  1.00  0.00     0.159 A
HETATM    4  N2  UNL     1      24.759   2.925  17.911  1.00  0.00    -0.316 N
HETATM    5  C1  UNL     1      24.749   1.688  17.453  1.00  0.00     0.151 A
ATOM      6  H2  UNL     1      24.112   3.201  18.650  1.00  0.00     0.170 HD
HETATM    7  S3  UNL     1      25.862   1.312  16.215  1.00  0.00    -0.013 SA
HETATM    8  S2  UNL     1      26.649   3.249  16.176  1.00  0.00    -0.013 SA
BRANCH   5   9
HETATM    9  N1  UNL     1      23.934   0.733  17.891  1.00  0.00    -0.379 N
ATOM     10  H12 UNL     1      24.021  -0.204  17.498  1.00  0.00     0.158 HD
ATOM     11  H11 UNL     1      23.217   0.870  18.604  1.00  0.00     0.158 HD
ENDBRANCH   5   9
ENDBRANCH   1   3
BRANCH   1  12
HETATM   12  C3  UNL     1      25.274   6.119  16.981  1.00  0.00     0.151 A
HETATM   13  N4  UNL     1      25.685   6.262  15.730  1.00  0.00    -0.339 N
HETATM   14  C4  UNL     1      25.291   7.280  15.031  1.00  0.00     0.024 A
ATOM     15  H4  UNL     1      26.311   5.570  15.316  1.00  0.00     0.168 HD
HETATM   16  C5  UNL     1      24.449   8.177  15.638  1.00  0.00     0.009 A
HETATM   17  C9  UNL     1      25.628   7.646  13.597  1.00  0.00     0.058 C
HETATM   18  S1  UNL     1      24.277   7.491  17.191  1.00  0.00    -0.057 SA
HETATM   19  C6  UNL     1      23.917   9.403  14.941  1.00  0.00     0.048 C
HETATM   20  C7  UNL     1      23.585   9.109  13.523  1.00  0.00     0.006 C
HETATM   21  C8  UNL     1      24.314   7.966  12.920  1.00  0.00     0.006 C
ENDBRANCH   1  12
TORSDOF 3
ENDMDL