MODEL 1
REMARK VINA RESULT: -6.403111211      0.000      0.000
REMARK  0 active torsions:
REMARK  status: ('A' for Active; 'I' for Inactive)
ROOT
HETATM    1  C1  UNL     1      24.778  -1.114  16.999  1.00  0.00     0.113 A
HETATM    2  S1  UNL     1      25.508  -0.679  15.558  1.00  0.00    -0.128 SA
HETATM    3  C2  UNL     1      27.059  -0.165  16.185  1.00  0.00    -0.002 A
HETATM    4  C3  UNL     1      26.945  -0.356  17.523  1.00  0.00     0.019 A
HETATM    5  C4  UNL     1      25.770  -0.849  17.984  1.00  0.00    -0.068 A
HETATM    6  C5  UNL     1      25.345  -1.169  19.417  1.00  0.00     0.062 C
HETATM    7  C6  UNL     1      23.951  -0.611  19.700  1.00  0.00     0.236 C
HETATM    8  N1  UNL     1      23.722   0.635  19.006  1.00  0.00    -0.075 N
ATOM      9  H11 UNL     1      22.723   0.821  18.930  1.00  0.00     0.277 HD
ATOM     10  H12 UNL     1      23.958   0.539  18.017  1.00  0.00     0.277 HD
HETATM   11  C7  UNL     1      24.397   1.760  19.572  1.00  0.00     0.233 C
HETATM   12  C8  UNL     1      23.748   3.026  19.054  1.00  0.00     0.055 C
HETATM   13  C9  UNL     1      24.804   4.103  18.792  1.00  0.00     0.234 C
HETATM   14  N2  UNL     1      24.487   4.781  17.550  1.00  0.00    -0.073 N
ATOM     15  H21 UNL     1      24.269   5.764  17.719  1.00  0.00     0.277 HD
ATOM     16  H22 UNL     1      23.586   4.470  17.186  1.00  0.00     0.277 HD
HETATM   17  C10 UNL     1      25.513   4.649  16.554  1.00  0.00     0.253 C
HETATM   18  C11 UNL     1      25.247   3.462  15.646  1.00  0.00     0.168 C
HETATM   19  N3  UNL     1      26.317   2.500  15.776  1.00  0.00    -0.321 N
ATOM     20  H3  UNL     1      26.145   1.630  16.280  1.00  0.00     0.181 HD
HETATM   21  N4  UNL     1      27.479   2.714  15.272  1.00  0.00    -0.251 N
ATOM     22  H4  UNL     1      27.675   3.576  14.764  1.00  0.00     0.207 HD
HETATM   23  N5  UNL     1      28.470   1.741  15.434  1.00  0.00    -0.318 N
ATOM     24  H5  UNL     1      29.424   2.029  15.647  1.00  0.00     0.182 HD
HETATM   25  C12 UNL     1      28.168   0.356  15.306  1.00  0.00     0.186 C
ENDROOT
TORSDOF 0
ENDMDL