MODEL 3
REMARK VINA RESULT: -6.584234787      1.821      2.956
REMARK  6 active torsions:
REMARK  status: ('A' for Active; 'I' for Inactive)
REMARK    1  A    between atoms: C3_3  and  O1_4
REMARK    2  A    between atoms: O1_4  and  C4_5
REMARK    3  A    between atoms: C4_5  and  C5_9
REMARK    4  A    between atoms: C5_9  and  O2_10
REMARK    5  A    between atoms: N2_12  and  O3_14
REMARK    6  A    between atoms: C12_24  and  O6_25
ROOT
HETATM    1  C1  UNL     1      25.672   4.310  15.344  1.00  0.00     0.015 C
HETATM    2  C2  UNL     1      25.553   3.319  16.032  1.00  0.00    -0.073 C
HETATM    3  C3  UNL     1      25.388   2.085  16.865  1.00  0.00     0.184 C
HETATM    4  C6  UNL     1      26.557   2.111  17.794  1.00  0.00     0.231 C
HETATM    5  O4  UNL     1      26.449   3.356  18.519  1.00  0.00    -0.344 OA
HETATM    6  C7  UNL     1      25.266   3.783  19.073  1.00  0.00     0.103 A
HETATM    7  C8  UNL     1      24.917   4.686  20.067  1.00  0.00     0.071 A
HETATM    8  C9  UNL     1      23.542   4.671  20.167  1.00  0.00     0.052 A
HETATM    9  C10 UNL     1      22.731   5.488  21.107  1.00  0.00     0.077 C
HETATM   10  O5  UNL     1      23.097   3.823  19.299  1.00  0.00    -0.314 OA
HETATM   11  C11 UNL     1      24.088   3.267  18.623  1.00  0.00     0.119 A
HETATM   12  C12 UNL     1      24.068   2.265  17.555  1.00  0.00     0.227 C
ENDROOT
BRANCH   3  13
HETATM   13  O1  UNL     1      25.286   1.047  15.971  1.00  0.00    -0.303 OA
BRANCH  13  14
HETATM   14  C4  UNL     1      25.893  -0.170  16.059  1.00  0.00     0.192 C
HETATM   15  N1  UNL     1      25.522  -0.897  17.054  1.00  0.00    -0.376 N
ATOM     16  H12 UNL     1      24.824  -0.582  17.728  1.00  0.00     0.158 HD
ATOM     17  H11 UNL     1      25.976  -1.807  17.120  1.00  0.00     0.158 HD
BRANCH  14  18
HETATM   18  C5  UNL     1      26.886  -0.618  15.100  1.00  0.00     0.212 C
HETATM   19  N2  UNL     1      26.519  -0.945  13.916  1.00  0.00    -0.244 N
ATOM     20  H2  UNL     1      27.203  -1.261  13.230  1.00  0.00     0.196 HD
BRANCH  18  21
HETATM   21  O2  UNL     1      28.237  -0.684  15.489  1.00  0.00    -0.342 OA
ATOM     22  H2  UNL     1      28.595  -1.512  15.790  1.00  0.00     0.219 HD
ENDBRANCH  18  21
BRANCH  19  23
HETATM   23  O3  UNL     1      25.192  -0.862  13.590  1.00  0.00    -0.288 OA
ATOM     24  H3  UNL     1      24.952  -0.573  12.718  1.00  0.00     0.244 HD
ENDBRANCH  19  23
ENDBRANCH  14  18
ENDBRANCH  13  14
ENDBRANCH   3  13
BRANCH  12  25
HETATM   25  O6  UNL     1      23.540   1.096  18.101  1.00  0.00    -0.385 OA
ATOM     26  H6  UNL     1      23.158   1.204  18.964  1.00  0.00     0.210 HD
ENDBRANCH  12  25
TORSDOF 6
ENDMDL