MODEL 1
REMARK VINA RESULT: -6.625354917      0.000      0.000
REMARK  2 active torsions:
REMARK  status: ('A' for Active; 'I' for Inactive)
REMARK    1  A    between atoms: C4_10  and  C5_11
REMARK    2  A    between atoms: S1_22  and  N4_23
ROOT
HETATM    1  N1  UNL     1      26.692  -1.353  13.258  1.00  0.00    -0.379 N
ATOM      2  H11 UNL     1      25.783  -1.815  13.251  1.00  0.00     0.158 HD
ATOM      3  H12 UNL     1      27.096  -1.564  12.345  1.00  0.00     0.158 HD
HETATM    4  C1  UNL     1      27.257  -0.646  14.187  1.00  0.00     0.154 C
HETATM    5  N2  UNL     1      28.513  -0.009  14.196  1.00  0.00    -0.302 N
ATOM      6  H2  UNL     1      29.239  -0.237  13.516  1.00  0.00     0.171 HD
HETATM    7  C2  UNL     1      28.709   0.957  15.194  1.00  0.00     0.265 C
HETATM    8  O1  UNL     1      29.791   1.644  15.360  1.00  0.00    -0.267 OA
HETATM    9  C3  UNL     1      27.581   1.164  16.085  1.00  0.00     0.084 C
HETATM   10  C4  UNL     1      27.308   2.119  16.921  1.00  0.00     0.030 C
HETATM   11  S1  UNL     1      26.553  -0.279  15.778  1.00  0.00    -0.024 SA
ENDROOT
BRANCH  10  12
HETATM   12  C5  UNL     1      26.071   2.093  17.723  1.00  0.00     0.149 C
HETATM   13  C6  UNL     1      26.098   3.230  18.735  1.00  0.00     0.074 C
HETATM   14  C7  UNL     1      24.766   3.555  18.135  1.00  0.00     0.067 C
HETATM   15  C8  UNL     1      24.618   5.000  17.701  1.00  0.00     0.066 C
HETATM   16  C11 UNL     1      23.653   3.240  19.099  1.00  0.00     0.066 C
HETATM   17  O2  UNL     1      24.961   2.644  17.119  1.00  0.00    -0.371 OA
HETATM   18  C9  UNL     1      23.883   5.822  18.715  1.00  0.00     0.235 C
HETATM   19  N3  UNL     1      24.169   5.438  20.075  1.00  0.00    -0.075 N
HETATM   20  C10 UNL     1      23.846   4.066  20.361  1.00  0.00     0.235 C
ATOM     21  H32 UNL     1      25.141   5.637  20.309  1.00  0.00     0.277 HD
ATOM     22  H31 UNL     1      23.704   6.063  20.733  1.00  0.00     0.277 HD
ENDBRANCH  10  12
BRANCH  11  23
HETATM   23  N4  UNL     1      27.008  -1.364  16.838  1.00  0.00    -0.373 NA
ATOM     24  H42 UNL     1      26.758  -2.268  16.435  1.00  0.00     0.164 HD
ATOM     25  H41 UNL     1      26.334  -1.413  17.603  1.00  0.00     0.164 HD
ENDBRANCH  11  23
TORSDOF 2
ENDMDL