MODEL 1
REMARK VINA RESULT: -6.283336906      0.000      0.000
REMARK  3 active torsions:
REMARK  status: ('A' for Active; 'I' for Inactive)
REMARK    1  A    between atoms: S1_2  and  C2_3
REMARK    2  A    between atoms: C2_3  and  N1_5
REMARK    3  A    between atoms: N1_5  and  C3_7
ROOT
HETATM    1  C3  UNL     1      23.073   7.123  19.772  1.00  0.00     0.138 A
HETATM    2  N2  UNL     1      22.373   7.406  20.855  1.00  0.00    -0.321 N
ATOM      3  H2  UNL     1      22.620   6.887  21.699  1.00  0.00     0.169 HD
HETATM    4  C4  UNL     1      21.376   8.295  20.978  1.00  0.00     0.145 A
HETATM    5  N3  UNL     1      20.740   8.513  22.074  1.00  0.00    -0.380 N
ATOM      6  H31 UNL     1      19.982   9.189  22.167  1.00  0.00     0.158 HD
ATOM      7  H32 UNL     1      20.961   8.014  22.935  1.00  0.00     0.158 HD
HETATM    8  S3  UNL     1      21.004   9.135  19.531  1.00  0.00    -0.034 SA
HETATM    9  C5  UNL     1      22.002   8.650  18.224  1.00  0.00     0.109 A
HETATM   10  N4  UNL     1      22.145   8.961  16.923  1.00  0.00    -0.339 N
ATOM     11  H4  UNL     1      21.585   9.652  16.424  1.00  0.00     0.168 HD
HETATM   12  C6  UNL     1      23.130   8.229  16.373  1.00  0.00     0.078 A
HETATM   13  C7  UNL     1      23.553   8.318  14.961  1.00  0.00     0.089 C
HETATM   14  N5  UNL     1      23.604   7.452  17.355  1.00  0.00    -0.341 N
ATOM     15  H5  UNL     1      24.364   6.781  17.246  1.00  0.00     0.167 HD
HETATM   16  C8  UNL     1      22.934   7.679  18.523  1.00  0.00     0.112 A
ENDROOT
BRANCH   1  17
HETATM   17  N1  UNL     1      24.009   6.210  19.890  1.00  0.00    -0.326 N
ATOM     18  H1  UNL     1      24.965   6.510  20.077  1.00  0.00     0.169 HD
BRANCH  17  19
HETATM   19  C2  UNL     1      23.742   4.825  19.767  1.00  0.00     0.139 C
HETATM   20  S2  UNL     1      24.371   4.031  18.498  1.00  0.00    -0.053 SA
BRANCH  19  21
HETATM   21  S1  UNL     1      22.736   4.033  21.005  1.00  0.00    -0.105 SA
HETATM   22  C1  UNL     1      22.315   2.341  20.520  1.00  0.00     0.098 C
ENDBRANCH  19  21
ENDBRANCH  17  19
ENDBRANCH   1  17
TORSDOF 3
ENDMDL