MODEL 4
REMARK VINA RESULT: -5.005039660      4.102      5.378
REMARK  1 active torsions:
REMARK  status: ('A' for Active; 'I' for Inactive)
REMARK    1  A    between atoms: C2_2  and  O1_3
ROOT
HETATM    1  C1  UNL     1      21.878   1.517  21.890  1.00  0.00     0.097 C
HETATM    2  C2  UNL     1      23.272   1.993  21.531  1.00  0.00     0.210 C
HETATM    3  N1  UNL     1      23.425   2.666  20.356  1.00  0.00    -0.354 N
ATOM      4  H1  UNL     1      24.211   2.211  19.891  1.00  0.00     0.163 HD
HETATM    5  C3  UNL     1      23.081   3.538  19.602  1.00  0.00     0.070 C
HETATM    6  C4  UNL     1      23.879   3.649  18.312  1.00  0.00     0.119 C
HETATM    7  S1  UNL     1      25.611   3.408  18.789  1.00  0.00    -0.143 SA
HETATM    8  C5  UNL     1      26.541   2.500  17.537  1.00  0.00     0.060 C
HETATM    9  C6  UNL     1      28.002   2.910  17.660  1.00  0.00     0.039 C
HETATM   10  C7  UNL     1      26.006   2.752  16.155  1.00  0.00     0.039 C
HETATM   11  S2  UNL     1      26.376   0.729  17.895  1.00  0.00    -0.069 SA
HETATM   12  S3  UNL     1      24.518   0.464  18.917  1.00  0.00    -0.020 SA
HETATM   13  C8  UNL     1      24.894   0.247  20.653  1.00  0.00     0.148 C
HETATM   14  N2  UNL     1      25.928  -0.492  20.889  1.00  0.00    -0.379 N
ATOM     15  H21 UNL     1      26.142  -0.616  21.879  1.00  0.00     0.158 HD
ATOM     16  H22 UNL     1      26.473  -0.910  20.135  1.00  0.00     0.158 HD
HETATM   17  N3  UNL     1      24.142   0.822  21.693  1.00  0.00    -0.322 N
ATOM     18  H3  UNL     1      24.206   0.400  22.619  1.00  0.00     0.166 HD
ENDROOT
BRANCH   2  19
HETATM   19  O1  UNL     1      23.646   2.856  22.594  1.00  0.00    -0.354 OA
ATOM     20  H1  UNL     1      24.141   2.307  23.191  1.00  0.00     0.214 HD
ENDBRANCH   2  19
TORSDOF 1
ENDMDL