MODEL 5
REMARK VINA RESULT: -5.711672965      1.906      2.681
REMARK  4 active torsions:
REMARK  status: ('A' for Active; 'I' for Inactive)
REMARK    1  A    between atoms: C2_2  and  C3_3
REMARK    2  A    between atoms: C7_9  and  O3_10
REMARK    3  A    between atoms: N1_15  and  O4_17
REMARK    4  A    between atoms: C11_19  and  O5_21
ROOT
HETATM    1  C1  UNL     1      25.637   4.639  14.875  1.00  0.00     0.054 C
HETATM    2  C2  UNL     1      25.083   4.764  16.262  1.00  0.00     0.005 C
HETATM    3  C4  UNL     1      24.856   3.778  17.078  1.00  0.00     0.067 C
HETATM    4  O2  UNL     1      24.338   3.784  18.395  1.00  0.00    -0.340 OA
HETATM    5  C5  UNL     1      25.191   2.707  18.649  1.00  0.00     0.102 C
HETATM    6  C6  UNL     1      26.544   3.233  19.007  1.00  0.00     0.050 C
HETATM    7  C7  UNL     1      24.730   1.645  19.571  1.00  0.00     0.154 C
HETATM    8  C8  UNL     1      23.969   0.513  18.972  1.00  0.00     0.041 C
HETATM    9  C9  UNL     1      24.809  -0.394  18.113  1.00  0.00     0.060 C
HETATM   10  C10 UNL     1      25.953   0.265  17.485  1.00  0.00     0.044 C
HETATM   11  N1  UNL     1      27.091  -0.238  17.701  1.00  0.00    -0.274 N
ATOM     12  H1  UNL     1      27.925   0.181  17.288  1.00  0.00     0.193 HD
HETATM   13  C11 UNL     1      25.938   1.469  16.610  1.00  0.00     0.107 C
HETATM   14  C12 UNL     1      27.272   1.966  16.244  1.00  0.00     0.053 C
HETATM   15  C13 UNL     1      24.945   2.367  17.195  1.00  0.00     0.120 C
ENDROOT
BRANCH   2  16
HETATM   16  C3  UNL     1      24.780   6.145  16.710  1.00  0.00     0.267 C
HETATM   17  O1  UNL     1      24.824   7.099  15.919  1.00  0.00    -0.302 OA
ENDBRANCH   2  16
BRANCH  13  18
HETATM   18  O5  UNL     1      25.359   0.963  15.400  1.00  0.00    -0.383 OA
ATOM     19  H5  UNL     1      25.035   1.753  14.983  1.00  0.00     0.211 HD
ENDBRANCH  13  18
BRANCH   7  20
HETATM   20  O3  UNL     1      23.986   2.157  20.658  1.00  0.00    -0.393 OA
ATOM     21  H3  UNL     1      23.946   3.107  20.657  1.00  0.00     0.210 HD
ENDBRANCH   7  20
BRANCH  11  22
HETATM   22  O4  UNL     1      27.198  -1.352  18.494  1.00  0.00    -0.290 OA
ATOM     23  H4  UNL     1      27.942  -1.441  19.077  1.00  0.00     0.244 HD
ENDBRANCH  11  22
TORSDOF 4
ENDMDL