MODEL 2
REMARK VINA RESULT: -6.542208278      6.438     10.143
REMARK  4 active torsions:
REMARK  status: ('A' for Active; 'I' for Inactive)
REMARK    1  A    between atoms: N1_1  and  O1_4
REMARK    2  A    between atoms: O1_4  and  C1_5
REMARK       I    between atoms: C1_5  and  N2_7
REMARK    3  A    between atoms: N2_7  and  C2_8
REMARK    4  A    between atoms: C2_8  and  O3_9
ROOT
HETATM    1  C2  UNL     1      21.562   5.482  24.097  1.00  0.00     0.367 C
HETATM    2  C3  UNL     1      21.622   6.636  23.121  1.00  0.00     0.109 C
HETATM    3  C4  UNL     1      21.846   6.228  21.715  1.00  0.00     0.008 C
HETATM    4  C5  UNL     1      23.229   6.478  21.203  1.00  0.00     0.000 C
HETATM    5  C6  UNL     1      23.394   5.797  19.853  1.00  0.00     0.002 C
HETATM    6  C7  UNL     1      24.046   4.437  20.006  1.00  0.00     0.026 C
HETATM    7  C8  UNL     1      23.153   3.303  19.590  1.00  0.00     0.167 C
HETATM    8  O4  UNL     1      22.556   2.629  20.654  1.00  0.00    -0.391 OA
HETATM    9  C9  UNL     1      23.391   1.642  21.171  1.00  0.00     0.167 C
HETATM   10  C10 UNL     1      22.716   1.117  22.439  1.00  0.00     0.028 C
HETATM   11  C11 UNL     1      22.920   2.067  23.589  1.00  0.00     0.030 C
HETATM   12  C12 UNL     1      21.809   3.111  23.645  1.00  0.00     0.240 C
HETATM   13  N3  UNL     1      22.437   4.392  23.637  1.00  0.00    -0.011 N
ATOM     14  H31 UNL     1      23.302   4.372  24.176  1.00  0.00     0.284 HD
ATOM     15  H32 UNL     1      22.818   4.600  22.714  1.00  0.00     0.284 HD
ENDROOT
BRANCH   1  16
HETATM   16  N2  UNL     1      22.010   5.868  25.356  1.00  0.00    -0.321 NA
HETATM   17  C1  UNL     1      22.442   6.240  26.572  1.00  0.00     0.460 C
HETATM   18  O2  UNL     1      23.593   6.114  27.090  1.00  0.00    -0.219 OA
BRANCH  17  19
HETATM   19  O1  UNL     1      21.513   6.879  27.462  1.00  0.00    -0.177 OA
BRANCH  19  20
HETATM   20  N1  UNL     1      20.159   6.900  27.155  1.00  0.00    -0.300 N
ATOM     21  H12 UNL     1      19.848   6.520  26.261  1.00  0.00     0.184 HD
ATOM     22  H11 UNL     1      19.491   7.290  27.820  1.00  0.00     0.184 HD
ENDBRANCH  19  20
ENDBRANCH  17  19
ENDBRANCH   1  16
BRANCH   1  23
HETATM   23  O3  UNL     1      20.253   4.940  24.174  1.00  0.00    -0.338 OA
ATOM     24  H3  UNL     1      19.646   5.452  23.653  1.00  0.00     0.215 HD
ENDBRANCH   1  23
TORSDOF 4
ENDMDL