MODEL 1
REMARK VINA RESULT: -6.123048666      0.000      0.000
REMARK  4 active torsions:
REMARK  status: ('A' for Active; 'I' for Inactive)
REMARK    1  A    between atoms: C6_6  and  O1_7
REMARK    2  A    between atoms: N1_11  and  O3_13
REMARK    3  A    between atoms: C8_15  and  O4_16
REMARK    4  A    between atoms: C9_18  and  O5_20
ROOT
HETATM    1  C1  UNL     1      28.418  -1.147  15.064  1.00  0.00     0.045 C
HETATM    2  C2  UNL     1      27.034  -0.630  15.383  1.00  0.00     0.058 C
HETATM    3  C3  UNL     1      26.071  -1.301  14.433  1.00  0.00     0.045 C
HETATM    4  C4  UNL     1      26.620  -0.951  16.801  1.00  0.00     0.048 C
HETATM    5  C5  UNL     1      25.598   0.170  17.041  1.00  0.00     0.068 C
HETATM    6  C6  UNL     1      26.095   1.245  16.178  1.00  0.00     0.212 C
HETATM    7  O2  UNL     1      27.037   0.730  15.290  1.00  0.00    -0.339 OA
HETATM    8  C7  UNL     1      26.771   2.364  16.878  1.00  0.00     0.103 C
HETATM    9  N1  UNL     1      27.000   3.458  16.277  1.00  0.00    -0.269 N
ATOM     10  H1  UNL     1      27.464   4.218  16.773  1.00  0.00     0.193 HD
HETATM   11  C8  UNL     1      27.157   2.142  18.296  1.00  0.00     0.206 C
HETATM   12  C9  UNL     1      25.850   1.744  18.992  1.00  0.00     0.093 C
HETATM   13  C10 UNL     1      24.866   2.868  18.860  1.00  0.00     0.050 C
HETATM   14  C11 UNL     1      25.381   0.441  18.464  1.00  0.00    -0.005 C
HETATM   15  C12 UNL     1      26.094  -0.637  19.296  1.00  0.00     0.018 C
HETATM   16  C13 UNL     1      23.896   0.290  18.825  1.00  0.00     0.018 C
ENDROOT
BRANCH   6  17
HETATM   17  O1  UNL     1      25.065   1.769  15.362  1.00  0.00    -0.360 OA
ATOM     18  H1  UNL     1      25.419   2.215  14.602  1.00  0.00     0.213 HD
ENDBRANCH   6  17
BRANCH   9  19
HETATM   19  O3  UNL     1      26.631   3.627  14.973  1.00  0.00    -0.290 OA
ATOM     20  H3  UNL     1      26.814   4.441  14.520  1.00  0.00     0.244 HD
ENDBRANCH   9  19
BRANCH  11  21
HETATM   21  O4  UNL     1      27.649   3.310  18.828  1.00  0.00    -0.386 OA
ATOM     22  H4  UNL     1      27.874   3.174  19.740  1.00  0.00     0.210 HD
ENDBRANCH  11  21
BRANCH  12  23
HETATM   23  O5  UNL     1      26.177   1.641  20.357  1.00  0.00    -0.386 OA
ATOM     24  H5  UNL     1      25.408   1.263  20.769  1.00  0.00     0.210 HD
ENDBRANCH  12  23
TORSDOF 4
ENDMDL