MODEL 2
REMARK VINA RESULT: -5.861978509      2.411      4.221
REMARK  3 active torsions:
REMARK  status: ('A' for Active; 'I' for Inactive)
REMARK    1  A    between atoms: N1_5  and  O1_7
REMARK    2  A    between atoms: C5_9  and  N2_10
REMARK    3  A    between atoms: C13_24  and  O3_25
ROOT
HETATM    1  C1  UNL     1      25.743   4.386  16.260  1.00  0.00     0.036 C
HETATM    2  C2  UNL     1      25.497   2.971  16.018  1.00  0.00    -0.019 C
HETATM    3  C3  UNL     1      25.582   1.989  16.890  1.00  0.00     0.003 C
HETATM    4  C4  UNL     1      25.273   0.639  16.361  1.00  0.00     0.090 C
HETATM    5  N1  UNL     1      25.398   0.595  15.072  1.00  0.00    -0.269 N
ATOM      6  H1  UNL     1      25.678   1.430  14.557  1.00  0.00     0.194 HD
HETATM    7  C5  UNL     1      24.867  -0.622  16.952  1.00  0.00     0.331 C
HETATM    8  N3  UNL     1      24.717  -0.777  18.309  1.00  0.00    -0.384 N
ATOM      9  H3  UNL     1      24.444  -1.691  18.673  1.00  0.00     0.156 HD
HETATM   10  C6  UNL     1      24.927   0.276  19.213  1.00  0.00     0.113 C
HETATM   11  C7  UNL     1      23.718   1.185  19.202  1.00  0.00     0.064 C
HETATM   12  C8  UNL     1      24.086   2.563  19.628  1.00  0.00     0.057 C
HETATM   13  C9  UNL     1      22.843   3.442  19.429  1.00  0.00     0.045 C
HETATM   14  C10 UNL     1      24.348   2.578  21.134  1.00  0.00     0.045 C
HETATM   15  O2  UNL     1      25.104   3.132  18.931  1.00  0.00    -0.363 OA
HETATM   16  C11 UNL     1      25.967   2.275  18.288  1.00  0.00     0.115 C
HETATM   17  C12 UNL     1      27.328   2.988  18.238  1.00  0.00     0.054 C
HETATM   18  C13 UNL     1      26.226   1.006  19.076  1.00  0.00     0.179 C
ENDROOT
BRANCH   5  19
HETATM   19  O1  UNL     1      25.153  -0.572  14.402  1.00  0.00    -0.290 OA
ATOM     20  H1  UNL     1      25.580  -1.374  14.676  1.00  0.00     0.244 HD
ENDBRANCH   5  19
BRANCH   7  21
HETATM   21  N2  UNL     1      23.604  -1.007  16.293  1.00  0.00    -0.053 N
ATOM     22  H23 UNL     1      22.833  -1.146  16.947  1.00  0.00     0.277 HD
ATOM     23  H22 UNL     1      23.180  -0.249  15.759  1.00  0.00     0.277 HD
ATOM     24  H21 UNL     1      23.811  -1.832  15.730  1.00  0.00     0.277 HD
ENDBRANCH   7  21
BRANCH  18  25
HETATM   25  O3  UNL     1      27.089   0.227  18.271  1.00  0.00    -0.390 OA
ATOM     26  H3  UNL     1      27.679  -0.250  18.842  1.00  0.00     0.210 HD
ENDBRANCH  18  25
TORSDOF 3
ENDMDL