MODEL 2
REMARK VINA RESULT: -6.050409298      2.784      5.372
REMARK  6 active torsions:
REMARK  status: ('A' for Active; 'I' for Inactive)
REMARK    1  A    between atoms: C2_2  and  N2_6
REMARK    2  A    between atoms: N2_6  and  N3_8
REMARK    3  A    between atoms: C3_10  and  N4_11
REMARK    4  A    between atoms: C3_10  and  S1_18
REMARK    5  A    between atoms: S1_18  and  S2_19
REMARK    6  A    between atoms: S2_19  and  C8_20
ROOT
HETATM    1  N3  UNL     1      22.051   8.192  22.081  1.00  0.00    -0.278 N
ATOM      2  H3  UNL     1      22.717   7.659  22.641  1.00  0.00     0.189 HD
HETATM    3  C3  UNL     1      21.940   7.979  20.828  1.00  0.00     0.172 C
ENDROOT
BRANCH   3   4
HETATM    4  N4  UNL     1      21.019   8.719  20.065  1.00  0.00    -0.319 N
HETATM    5  C4  UNL     1      21.309   9.029  18.855  1.00  0.00     0.119 C
HETATM    6  C5  UNL     1      22.564   8.674  18.149  1.00  0.00     0.086 C
HETATM    7  O1  UNL     1      20.517   9.749  17.974  1.00  0.00    -0.339 OA
HETATM    8  C6  UNL     1      22.092   8.734  16.691  1.00  0.00     0.035 C
HETATM    9  C7  UNL     1      21.208   9.988  16.758  1.00  0.00     0.177 C
ATOM     10  H4  UNL     1      20.128   9.006  20.471  1.00  0.00     0.169 HD
ENDBRANCH   3   4
BRANCH   3  11
HETATM   11  S1  UNL     1      22.977   6.732  20.099  1.00  0.00    -0.012 SA
BRANCH  11  12
HETATM   12  S2  UNL     1      23.179   5.151  21.500  1.00  0.00    -0.017 SA
BRANCH  12  13
HETATM   13  C8  UNL     1      22.453   3.696  20.792  1.00  0.00     0.159 C
HETATM   14  N5  UNL     1      22.876   3.255  19.676  1.00  0.00    -0.382 N
ATOM     15  H52 UNL     1      23.633   3.756  19.211  1.00  0.00     0.157 HD
ATOM     16  H51 UNL     1      22.458   2.418  19.269  1.00  0.00     0.157 HD
HETATM   17  N6  UNL     1      21.396   2.994  21.442  1.00  0.00    -0.074 NA
ENDBRANCH  12  13
ENDBRANCH  11  12
ENDBRANCH   3  11
BRANCH   1  18
HETATM   18  N2  UNL     1      21.247   9.165  22.672  1.00  0.00    -0.288 N
ATOM     19  H2  UNL     1      21.027  10.039  22.194  1.00  0.00     0.188 HD
BRANCH  18  20
HETATM   20  C2  UNL     1      20.741   8.879  23.987  1.00  0.00     0.085 C
HETATM   21  C1  UNL     1      20.975   7.596  24.663  1.00  0.00     0.090 C
HETATM   22  N1  UNL     1      20.066   9.808  24.551  1.00  0.00    -0.388 N
ATOM     23  H12 UNL     1      19.708   9.605  25.484  1.00  0.00     0.157 HD
ATOM     24  H11 UNL     1      19.904  10.699  24.081  1.00  0.00     0.157 HD
ENDBRANCH  18  20
ENDBRANCH   1  18
TORSDOF 6
ENDMDL