MODEL 5
REMARK VINA RESULT: -6.022189209      1.973      2.842
REMARK  5 active torsions:
REMARK  status: ('A' for Active; 'I' for Inactive)
REMARK    1  A    between atoms: C4_4  and  N1_5
REMARK    2  A    between atoms: N1_5  and  C5_7
REMARK    3  A    between atoms: C5_7  and  C6_8
REMARK    4  A    between atoms: C6_8  and  N2_9
REMARK    5  A    between atoms: N2_9  and  C7_11
ROOT
HETATM    1  C6  UNL     1     -23.115  37.422   8.079  1.00  0.00     0.157 C
ENDROOT
BRANCH   1   2
HETATM    2  C5  UNL     1     -22.132  37.478   9.232  1.00  0.00     0.141 C
BRANCH   2   3
HETATM    3  N1  UNL     1     -22.449  38.557  10.147  1.00  0.00    -0.375 N
ATOM      4  H1  UNL     1     -23.415  38.783  10.383  1.00  0.00     0.161 HD
BRANCH   3   5
HETATM    5  C4  UNL     1     -21.464  39.221  10.650  1.00  0.00     0.100 A
HETATM    6  C3  UNL     1     -21.468  40.597  10.740  1.00  0.00     0.048 A
HETATM    7  C2  UNL     1     -20.425  41.326  11.274  1.00  0.00     0.005 A
HETATM    8  C1  UNL     1     -19.335  40.618  11.737  1.00  0.00     0.017 A
HETATM    9  C11 UNL     1     -19.348  39.238  11.640  1.00  0.00     0.089 A
HETATM   10  N5  UNL     1     -20.376  38.547  11.114  1.00  0.00    -0.353 N
ATOM     11  H5  UNL     1     -20.341  37.529  11.064  1.00  0.00     0.166 HD
ENDBRANCH   3   5
ENDBRANCH   2   3
ENDBRANCH   1   2
BRANCH   1  12
HETATM   12  N2  UNL     1     -24.427  37.802   8.504  1.00  0.00    -0.224 N
ATOM     13  H2  UNL     1     -24.596  38.767   8.786  1.00  0.00     0.177 HD
BRANCH  12  14
HETATM   14  C7  UNL     1     -25.406  36.955   8.540  1.00  0.00     0.677 A
HETATM   15  N3  UNL     1     -25.506  36.070   9.541  1.00  0.00    -0.202 N
HETATM   16  C8  UNL     1     -26.519  35.207   9.562  1.00  0.00     0.107 A
ATOM     17  H3  UNL     1     -24.807  36.058  10.284  1.00  0.00     0.183 HD
HETATM   18  C9  UNL     1     -27.454  35.222   8.566  1.00  0.00     0.035 A
HETATM   19  C10 UNL     1     -27.346  36.127   7.547  1.00  0.00     0.107 A
HETATM   20  N4  UNL     1     -26.321  36.985   7.546  1.00  0.00    -0.202 N
ATOM     21  H4  UNL     1     -26.229  37.665   6.790  1.00  0.00     0.183 HD
ENDBRANCH  12  14
ENDBRANCH   1  12
TORSDOF 5
ENDMDL