MODEL 4
REMARK VINA RESULT: -6.727177948      1.874      2.388
REMARK  3 active torsions:
REMARK  status: ('A' for Active; 'I' for Inactive)
REMARK    1  A    between atoms: N2_7  and  C6_9
REMARK    2  A    between atoms: C6_9  and  C7_10
REMARK    3  A    between atoms: C7_10  and  C8_11
ROOT
HETATM    1  N1  UNL     1     -17.578  41.295  11.851  1.00  0.00    -0.191 NA
HETATM    2  C1  UNL     1     -18.699  41.022  11.966  1.00  0.00     0.101 C
HETATM    3  C2  UNL     1     -20.101  40.702  12.108  1.00  0.00     0.060 A
HETATM    4  C3  UNL     1     -20.692  40.586  13.360  1.00  0.00     0.028 A
HETATM    5  C4  UNL     1     -22.027  40.282  13.461  1.00  0.00     0.050 A
HETATM    6  C5  UNL     1     -22.781  40.090  12.295  1.00  0.00     0.100 A
HETATM    7  N2  UNL     1     -24.016  39.809  12.418  1.00  0.00    -0.376 N
ATOM      8  H2  UNL     1     -24.408  39.733  13.357  1.00  0.00     0.161 HD
HETATM    9  N5  UNL     1     -22.193  40.206  11.103  1.00  0.00    -0.351 N
ATOM     10  H5  UNL     1     -22.749  40.065  10.260  1.00  0.00     0.166 HD
HETATM   11  C11 UNL     1     -20.868  40.508  10.981  1.00  0.00     0.112 A
ENDROOT
BRANCH   7  12
HETATM   12  C6  UNL     1     -24.870  39.595  11.306  1.00  0.00     0.127 C
BRANCH  12  13
HETATM   13  C7  UNL     1     -25.068  38.117  10.970  1.00  0.00     0.078 C
BRANCH  13  14
HETATM   14  C8  UNL     1     -24.371  37.889   9.675  1.00  0.00     0.028 A
HETATM   15  C9  UNL     1     -23.223  37.138   9.529  1.00  0.00     0.045 A
HETATM   16  C10 UNL     1     -22.884  37.165   8.174  1.00  0.00     0.109 A
HETATM   17  N3  UNL     1     -23.814  37.913   7.558  1.00  0.00    -0.312 N
HETATM   18  N4  UNL     1     -24.687  38.335   8.457  1.00  0.00    -0.305 N
ATOM     19  H3  UNL     1     -23.842  38.122   6.560  1.00  0.00     0.186 HD
ATOM     20  H4  UNL     1     -25.494  38.923   8.248  1.00  0.00     0.186 HD
ENDBRANCH  13  14
ENDBRANCH  12  13
ENDBRANCH   7  12
TORSDOF 3
ENDMDL