MODEL 1
REMARK VINA RESULT: -7.185194954      0.000      0.000
REMARK  5 active torsions:
REMARK  status: ('A' for Active; 'I' for Inactive)
REMARK    1  A    between atoms: O1_2  and  C2_3
REMARK    2  A    between atoms: C6_7  and  C7_8
REMARK    3  A    between atoms: C7_8  and  N1_9
REMARK    4  A    between atoms: N1_9  and  N2_11
REMARK    5  A    between atoms: N2_11  and  C8_13
ROOT
HETATM    1  N1  UNL     1     -19.516  41.062  11.866  1.00  0.00    -0.309 N
ATOM      2  H1  UNL     1     -19.799  40.765  12.800  1.00  0.00     0.186 HD
ENDROOT
BRANCH   1   3
HETATM    3  C7  UNL     1     -20.500  41.413  11.219  1.00  0.00     0.118 C
BRANCH   3   4
HETATM    4  C6  UNL     1     -21.803  40.777  11.239  1.00  0.00    -0.017 A
HETATM    5  C5  UNL     1     -22.907  41.289  11.874  1.00  0.00     0.013 A
HETATM    6  C4  UNL     1     -24.120  40.615  11.843  1.00  0.00     0.004 A
HETATM    7  C3  UNL     1     -24.255  39.419  11.179  1.00  0.00     0.037 A
HETATM    8  C2  UNL     1     -23.148  38.870  10.522  1.00  0.00     0.069 A
HETATM    9  C11 UNL     1     -21.976  39.551  10.568  1.00  0.00     0.049 A
BRANCH   8  10
HETATM   10  O1  UNL     1     -23.263  37.664   9.845  1.00  0.00    -0.356 OA
HETATM   11  C1  UNL     1     -22.990  37.533   8.475  1.00  0.00     0.210 C
ENDBRANCH   8  10
ENDBRANCH   3   4
ENDBRANCH   1   3
BRANCH   1  12
HETATM   12  N2  UNL     1     -18.182  40.947  11.729  1.00  0.00    -0.285 N
ATOM     13  H2  UNL     1     -17.799  40.383  10.971  1.00  0.00     0.188 HD
BRANCH  12  14
HETATM   14  C8  UNL     1     -17.376  41.548  12.553  1.00  0.00     0.135 A
HETATM   15  C9  UNL     1     -17.396  41.442  13.943  1.00  0.00     0.070 A
HETATM   16  C10 UNL     1     -16.376  42.239  14.419  1.00  0.00     0.111 A
HETATM   17  N3  UNL     1     -15.760  42.806  13.370  1.00  0.00    -0.310 N
HETATM   18  N4  UNL     1     -16.364  42.387  12.278  1.00  0.00    -0.285 N
ATOM     19  H3  UNL     1     -14.967  43.447  13.412  1.00  0.00     0.186 HD
ATOM     20  H4  UNL     1     -16.095  42.665  11.334  1.00  0.00     0.188 HD
ENDBRANCH  12  14
ENDBRANCH   1  12
TORSDOF 5
ENDMDL