MODEL 5
REMARK VINA RESULT: -6.274124870      3.125      5.883
REMARK  5 active torsions:
REMARK  status: ('A' for Active; 'I' for Inactive)
REMARK    1  A    between atoms: N1_1  and  C1_5
REMARK    2  A    between atoms: C1_5  and  C2_6
REMARK    3  A    between atoms: C2_6  and  S1_7
REMARK    4  A    between atoms: S1_7  and  C3_8
REMARK    5  A    between atoms: N2_14  and  O1_15
ROOT
HETATM    1  C3  UNL     1     -20.694  40.264  12.193  1.00  0.00     0.001 A
HETATM    2  C4  UNL     1     -21.945  40.702  12.471  1.00  0.00     0.019 A
HETATM    3  C5  UNL     1     -23.039  40.261  11.757  1.00  0.00     0.013 A
HETATM    4  C6  UNL     1     -22.908  39.346  10.719  1.00  0.00    -0.023 A
HETATM    5  C7  UNL     1     -23.979  38.883   9.984  1.00  0.00     0.032 A
HETATM    6  C8  UNL     1     -23.772  37.964   8.953  1.00  0.00     0.123 A
HETATM    7  N2  UNL     1     -22.529  37.528   8.676  1.00  0.00    -0.246 N
HETATM    8  C9  UNL     1     -21.477  37.972   9.384  1.00  0.00     0.134 A
HETATM    9  C10 UNL     1     -21.638  38.892  10.424  1.00  0.00    -0.007 A
HETATM   10  C11 UNL     1     -20.556  39.342  11.146  1.00  0.00     0.032 A
ENDROOT
BRANCH   1  11
HETATM   11  S1  UNL     1     -19.207  40.720  13.018  1.00  0.00    -0.128 SA
BRANCH  11  12
HETATM   12  C2  UNL     1     -17.957  41.450  11.974  1.00  0.00     0.106 C
BRANCH  12  13
HETATM   13  C1  UNL     1     -16.784  41.908  12.805  1.00  0.00     0.240 C
BRANCH  13  14
HETATM   14  N1  UNL     1     -15.635  42.232  11.982  1.00  0.00    -0.079 N
ATOM     15  H13 UNL     1     -15.886  42.277  10.995  1.00  0.00     0.274 HD
ATOM     16  H12 UNL     1     -15.342  43.199  12.117  1.00  0.00     0.274 HD
ATOM     17  H11 UNL     1     -14.862  41.585  12.140  1.00  0.00     0.274 HD
ENDBRANCH  13  14
ENDBRANCH  12  13
ENDBRANCH  11  12
ENDBRANCH   1  11
BRANCH   7  18
HETATM   18  O1  UNL     1     -22.346  36.621   7.654  1.00  0.00    -0.284 OA
ATOM     19  H1  UNL     1     -21.613  36.018   7.694  1.00  0.00     0.245 HD
ENDBRANCH   7  18
TORSDOF 5
ENDMDL