MODEL 2
REMARK VINA RESULT: -6.766519520      1.644      2.449
REMARK  4 active torsions:
REMARK  status: ('A' for Active; 'I' for Inactive)
REMARK    1  A    between atoms: C3_3  and  C4_4
REMARK    2  A    between atoms: C4_4  and  C5_5
REMARK    3  A    between atoms: C5_5  and  N1_6
REMARK    4  A    between atoms: N1_6  and  C6_8
ROOT
HETATM    1  C6  UNL     1     -22.502  37.758   9.197  1.00  0.00     0.118 A
HETATM    2  C7  UNL     1     -22.883  38.444   8.066  1.00  0.00     0.138 A
HETATM    3  N2  UNL     1     -24.078  38.252   7.500  1.00  0.00    -0.346 N
ATOM      4  H2  UNL     1     -24.342  38.770   6.662  1.00  0.00     0.167 HD
HETATM    5  C8  UNL     1     -24.926  37.369   8.046  1.00  0.00     0.151 A
HETATM    6  N3  UNL     1     -26.158  37.015   7.659  1.00  0.00    -0.335 N
ATOM      7  H3  UNL     1     -26.666  37.378   6.853  1.00  0.00     0.168 HD
HETATM    8  C9  UNL     1     -26.597  36.098   8.526  1.00  0.00     0.183 A
HETATM    9  N4  UNL     1     -25.640  35.870   9.464  1.00  0.00    -0.335 N
ATOM     10  H4  UNL     1     -25.714  35.216  10.242  1.00  0.00     0.168 HD
HETATM   11  C10 UNL     1     -24.579  36.651   9.192  1.00  0.00     0.152 A
HETATM   12  N5  UNL     1     -23.368  36.878   9.726  1.00  0.00    -0.325 N
ATOM     13  H5  UNL     1     -23.096  36.364  10.564  1.00  0.00     0.169 HD
ENDROOT
BRANCH   1  14
HETATM   14  N1  UNL     1     -21.326  37.958   9.741  1.00  0.00    -0.375 N
ATOM     15  H1  UNL     1     -20.479  37.641   9.269  1.00  0.00     0.161 HD
BRANCH  14  16
HETATM   16  C5  UNL     1     -21.242  38.633  11.014  1.00  0.00     0.126 C
BRANCH  16  17
HETATM   17  C4  UNL     1     -21.346  40.115  10.870  1.00  0.00     0.058 C
BRANCH  17  18
HETATM   18  C3  UNL     1     -22.374  40.611  11.853  1.00  0.00    -0.057 A
HETATM   19  C2  UNL     1     -23.679  41.258  11.770  1.00  0.00     0.007 A
HETATM   20  C1  UNL     1     -23.793  41.298  13.087  1.00  0.00     0.001 A
HETATM   21  C11 UNL     1     -22.489  40.652  13.171  1.00  0.00     0.007 A
ENDBRANCH  17  18
ENDBRANCH  16  17
ENDBRANCH  14  16
ENDBRANCH   1  14
TORSDOF 4
ENDMDL