MODEL 2
REMARK VINA RESULT: -6.127406558      1.988      4.793
REMARK  5 active torsions:
REMARK  status: ('A' for Active; 'I' for Inactive)
REMARK    1  A    between atoms: C3_3  and  N1_4
REMARK    2  A    between atoms: N1_4  and  C4_6
REMARK    3  A    between atoms: C4_6  and  N2_8
REMARK    4  A    between atoms: N2_8  and  N3_10
REMARK    5  A    between atoms: C5_12  and  C6_13
ROOT
HETATM    1  C1  UNL     1     -26.465  37.302  11.877  1.00  0.00     0.014 C
HETATM    2  C2  UNL     1     -26.224  36.794  10.810  1.00  0.00    -0.098 C
HETATM    3  C3  UNL     1     -25.930  36.162   9.525  1.00  0.00     0.215 C
ENDROOT
BRANCH   3   4
HETATM    4  N1  UNL     1     -24.551  36.372   9.191  1.00  0.00    -0.356 N
ATOM      5  H1  UNL     1     -23.821  35.838   9.663  1.00  0.00     0.162 HD
BRANCH   4   6
HETATM    6  C4  UNL     1     -24.210  37.322   8.204  1.00  0.00     0.187 C
HETATM    7  S1  UNL     1     -25.384  37.948   7.227  1.00  0.00    -0.040 SA
BRANCH   6   8
HETATM    8  N2  UNL     1     -22.841  37.758   8.036  1.00  0.00    -0.277 N
ATOM      9  H2  UNL     1     -22.566  38.323   7.232  1.00  0.00     0.189 HD
BRANCH   8  10
HETATM   10  N3  UNL     1     -21.945  37.403   8.960  1.00  0.00    -0.308 N
HETATM   11  C5  UNL     1     -21.575  37.875  10.027  1.00  0.00     0.136 C
ATOM     12  H3  UNL     1     -21.458  36.538   8.723  1.00  0.00     0.186 HD
BRANCH  11  13
HETATM   13  C6  UNL     1     -22.044  39.089  10.676  1.00  0.00     0.049 A
HETATM   14  C7  UNL     1     -21.312  40.187  10.974  1.00  0.00     0.031 A
HETATM   15  C8  UNL     1     -21.882  41.300  11.604  1.00  0.00     0.004 A
HETATM   16  C9  UNL     1     -23.212  41.321  11.944  1.00  0.00     0.017 A
HETATM   17  C10 UNL     1     -23.925  40.186  11.624  1.00  0.00     0.088 A
HETATM   18  N4  UNL     1     -23.371  39.142  11.029  1.00  0.00    -0.365 N
ATOM     19  H4  UNL     1     -23.959  38.335  10.821  1.00  0.00     0.165 HD
ENDBRANCH  11  13
ENDBRANCH   8  10
ENDBRANCH   6   8
ENDBRANCH   4   6
ENDBRANCH   3   4
TORSDOF 5
ENDMDL