MODEL 4
REMARK VINA RESULT: -6.507301728      1.275      2.325
REMARK  4 active torsions:
REMARK  status: ('A' for Active; 'I' for Inactive)
REMARK    1  A    between atoms: C4_9  and  N4_10
REMARK    2  A    between atoms: N4_10  and  C5_12
REMARK    3  A    between atoms: C5_12  and  C6_13
REMARK    4  A    between atoms: C6_13  and  C7_14
ROOT
HETATM    1  N1  UNL     1     -25.433  38.382   6.619  1.00  0.00    -0.191 NA
HETATM    2  C1  UNL     1     -24.610  38.177   7.419  1.00  0.00     0.104 C
HETATM    3  C2  UNL     1     -23.601  37.899   8.400  1.00  0.00     0.106 A
HETATM    4  C3  UNL     1     -22.479  37.112   8.309  1.00  0.00     0.133 A
HETATM    5  N2  UNL     1     -21.859  37.177   9.494  1.00  0.00    -0.309 N
ATOM      6  H2  UNL     1     -20.992  36.695   9.735  1.00  0.00     0.186 HD
HETATM    7  N3  UNL     1     -22.545  37.962  10.298  1.00  0.00    -0.285 N
ATOM      8  H3  UNL     1     -22.282  38.176  11.260  1.00  0.00     0.188 HD
HETATM    9  C4  UNL     1     -23.637  38.443   9.685  1.00  0.00     0.138 A
ENDROOT
BRANCH   9  10
HETATM   10  N4  UNL     1     -24.555  39.243  10.145  1.00  0.00    -0.374 N
ATOM     11  H4  UNL     1     -25.317  39.562   9.547  1.00  0.00     0.161 HD
BRANCH  10  12
HETATM   12  C5  UNL     1     -24.468  39.665  11.513  1.00  0.00     0.126 C
BRANCH  12  13
HETATM   13  C6  UNL     1     -23.849  41.037  11.658  1.00  0.00     0.058 C
BRANCH  13  14
HETATM   14  C7  UNL     1     -22.404  40.963  12.002  1.00  0.00    -0.054 A
HETATM   15  C8  UNL     1     -21.965  40.589  13.256  1.00  0.00     0.024 A
HETATM   16  C9  UNL     1     -20.606  40.529  13.550  1.00  0.00     0.088 A
HETATM   17  N5  UNL     1     -19.676  40.833  12.625  1.00  0.00    -0.375 N
HETATM   18  C10 UNL     1     -20.079  41.200  11.394  1.00  0.00     0.088 A
ATOM     19  H5  UNL     1     -18.683  40.784  12.853  1.00  0.00     0.164 HD
HETATM   20  C11 UNL     1     -21.424  41.269  11.075  1.00  0.00     0.024 A
ENDBRANCH  13  14
ENDBRANCH  12  13
ENDBRANCH  10  12
ENDBRANCH   9  10
TORSDOF 4
ENDMDL