MODEL 1
REMARK VINA RESULT: -7.423640893      0.000      0.000
REMARK  3 active torsions:
REMARK  status: ('A' for Active; 'I' for Inactive)
REMARK    1  A    between atoms: C5_9  and  C6_10
REMARK    2  A    between atoms: C6_10  and  O2_11
REMARK    3  A    between atoms: O2_11  and  C7_12
ROOT
HETATM    1  N1  UNL     1     -25.205  38.439   6.475  1.00  0.00    -0.102 NA
HETATM    2  C1  UNL     1     -25.506  37.482   7.482  1.00  0.00     0.061 A
HETATM    3  C2  UNL     1     -26.725  36.789   7.468  1.00  0.00     0.101 A
HETATM    4  C3  UNL     1     -26.949  35.875   8.477  1.00  0.00     0.246 A
HETATM    5  O1  UNL     1     -28.058  35.249   8.457  1.00  0.00    -0.268 OA
HETATM    6  N2  UNL     1     -26.036  35.657   9.434  1.00  0.00    -0.333 N
ATOM      7  H2  UNL     1     -26.226  34.976  10.170  1.00  0.00     0.168 HD
HETATM    8  C4  UNL     1     -24.866  36.333   9.433  1.00  0.00     0.102 A
HETATM    9  C5  UNL     1     -24.576  37.255   8.464  1.00  0.00     0.006 A
ENDROOT
BRANCH   9  10
HETATM   10  C6  UNL     1     -23.295  37.983   8.479  1.00  0.00     0.217 C
BRANCH  10  11
HETATM   11  O2  UNL     1     -22.693  38.009   9.743  1.00  0.00    -0.347 OA
BRANCH  11  12
HETATM   12  C7  UNL     1     -22.830  39.141  10.533  1.00  0.00     0.069 A
HETATM   13  C8  UNL     1     -24.054  39.538  11.047  1.00  0.00     0.037 A
HETATM   14  C9  UNL     1     -24.187  40.676  11.840  1.00  0.00     0.003 A
HETATM   15  C10 UNL     1     -23.082  41.441  12.132  1.00  0.00     0.000 A
HETATM   16  C11 UNL     1     -21.855  41.063  11.631  1.00  0.00     0.003 A
HETATM   17  C12 UNL     1     -21.740  39.932  10.847  1.00  0.00     0.037 A
ENDBRANCH  11  12
ENDBRANCH  10  11
ENDBRANCH   9  10
TORSDOF 3
ENDMDL