MODEL 3
REMARK VINA RESULT: -6.737561471      1.360      1.588
REMARK  4 active torsions:
REMARK  status: ('A' for Active; 'I' for Inactive)
REMARK    1  A    between atoms: C4_9  and  N4_10
REMARK    2  A    between atoms: N4_10  and  C5_12
REMARK    3  A    between atoms: C5_12  and  C6_13
REMARK    4  A    between atoms: C6_13  and  C7_14
ROOT
HETATM    1  N1  UNL     1     -21.630  36.842   8.363  1.00  0.00    -0.191 NA
HETATM    2  C1  UNL     1     -22.671  37.331   8.430  1.00  0.00     0.104 C
HETATM    3  C2  UNL     1     -23.965  37.940   8.528  1.00  0.00     0.106 A
HETATM    4  C3  UNL     1     -24.951  37.986   7.563  1.00  0.00     0.133 A
HETATM    5  N2  UNL     1     -26.001  38.641   8.039  1.00  0.00    -0.309 N
ATOM      6  H2  UNL     1     -26.873  38.826   7.545  1.00  0.00     0.186 HD
HETATM    7  N3  UNL     1     -25.704  39.006   9.272  1.00  0.00    -0.285 N
ATOM      8  H3  UNL     1     -26.335  39.529   9.878  1.00  0.00     0.188 HD
HETATM    9  C4  UNL     1     -24.477  38.611   9.633  1.00  0.00     0.138 A
ENDROOT
BRANCH   9  10
HETATM   10  N4  UNL     1     -23.850  38.785  10.751  1.00  0.00    -0.374 N
ATOM     11  H4  UNL     1     -22.969  38.308  10.945  1.00  0.00     0.161 HD
BRANCH  10  12
HETATM   12  C5  UNL     1     -24.447  39.683  11.717  1.00  0.00     0.126 C
BRANCH  12  13
HETATM   13  C6  UNL     1     -23.789  41.047  11.689  1.00  0.00     0.059 C
BRANCH  13  14
HETATM   14  C7  UNL     1     -22.332  40.969  11.966  1.00  0.00    -0.041 A
HETATM   15  C8  UNL     1     -21.391  41.321  11.014  1.00  0.00     0.010 A
HETATM   16  C9  UNL     1     -20.034  41.244  11.282  1.00  0.00     0.018 A
HETATM   17  C10 UNL     1     -19.594  40.810  12.520  1.00  0.00     0.087 A
HETATM   18  N5  UNL     1     -20.510  40.475  13.424  1.00  0.00    -0.375 N
HETATM   19  C11 UNL     1     -21.846  40.542  13.186  1.00  0.00     0.094 A
ATOM     20  H5  UNL     1     -20.194  40.153  14.339  1.00  0.00     0.164 HD
ENDBRANCH  13  14
ENDBRANCH  12  13
ENDBRANCH  10  12
ENDBRANCH   9  10
TORSDOF 4
ENDMDL