MODEL 1
REMARK VINA RESULT: -6.610845314      0.000      0.000
REMARK  10 active torsions:
REMARK  status: ('A' for Active; 'I' for Inactive)
REMARK       I    between atoms: C1_4  and  N2_5
REMARK       I    between atoms: C1_4  and  N4_19
REMARK    1  A    between atoms: N2_5  and  C2_7
REMARK    2  A    between atoms: C2_7  and  C3_8
REMARK    3  A    between atoms: C4_9  and  C5_10
REMARK    4  A    between atoms: C5_10  and  C6_11
REMARK    5  A    between atoms: C6_11  and  C7_12
REMARK    6  A    between atoms: C8_13  and  C9_14
REMARK    7  A    between atoms: C9_14  and  N3_15
REMARK    8  A    between atoms: N3_15  and  C10_17
REMARK       I    between atoms: N5_27  and  C18_28
REMARK    9  A    between atoms: C18_28  and  C19_30
REMARK   10  A    between atoms: C19_30  and  N6_31
ROOT
HETATM    1  N1  UNL     1      -0.858  15.857 -13.448  1.00  0.00    -0.235 N
ATOM      2  H11 UNL     1      -1.520  16.633 -13.420  1.00  0.00     0.174 HD
ATOM      3  H12 UNL     1      -1.099  15.048 -14.021  1.00  0.00     0.174 HD
HETATM    4  C1  UNL     1       0.239  15.881 -12.791  1.00  0.00     0.670 C
HETATM    5  N2  UNL     1       1.155  14.808 -12.830  1.00  0.00    -0.216 N
ATOM      6  H2  UNL     1       2.156  15.005 -12.817  1.00  0.00     0.178 HD
HETATM    7  N4  UNL     1       0.578  17.021 -11.983  1.00  0.00    -0.218 N
HETATM    8  C11 UNL     1       0.581  18.346 -12.494  1.00  0.00     0.142 C
HETATM    9  C12 UNL     1       0.326  19.451 -11.533  1.00  0.00     0.032 C
HETATM   10  C13 UNL     1       0.832  19.138 -10.141  1.00  0.00    -0.020 C
HETATM   11  C14 UNL     1       0.390  17.761  -9.702  1.00  0.00     0.032 C
HETATM   12  C15 UNL     1       0.929  16.724 -10.619  1.00  0.00     0.142 C
HETATM   13  C16 UNL     1       2.338  19.265 -10.057  1.00  0.00     0.031 C
HETATM   14  C17 UNL     1       2.524  19.387  -8.559  1.00  0.00     0.126 C
HETATM   15  N5  UNL     1       1.399  20.228  -8.123  1.00  0.00    -0.350 N
HETATM   16  C18 UNL     1       1.312  20.987  -6.936  1.00  0.00     0.237 C
HETATM   17  O2  UNL     1       0.304  21.678  -6.653  1.00  0.00    -0.272 OA
HETATM   18  C24 UNL     1       0.363  20.143  -9.147  1.00  0.00     0.135 C
ENDROOT
BRANCH   5  19
HETATM   19  C2  UNL     1       0.709  13.455 -12.887  1.00  0.00     0.232 C
BRANCH  19  20
HETATM   20  C3  UNL     1       0.254  13.038 -11.562  1.00  0.00    -0.086 C
HETATM   21  C4  UNL     1      -0.120  12.719 -10.461  1.00  0.00    -0.104 C
BRANCH  21  22
HETATM   22  C5  UNL     1      -0.579  12.358  -9.096  1.00  0.00     0.106 C
BRANCH  22  23
HETATM   23  C6  UNL     1       0.653  12.083  -8.220  1.00  0.00     0.106 C
BRANCH  23  24
HETATM   24  C7  UNL     1       0.716  10.603  -8.138  1.00  0.00    -0.104 C
HETATM   25  C8  UNL     1       0.782   9.397  -8.050  1.00  0.00    -0.087 C
BRANCH  25  26
HETATM   26  C9  UNL     1       0.877   7.947  -7.920  1.00  0.00     0.216 C
BRANCH  26  27
HETATM   27  N3  UNL     1       1.098   7.373  -9.249  1.00  0.00    -0.358 N
ATOM     28  H3  UNL     1       2.029   7.385  -9.665  1.00  0.00     0.162 HD
BRANCH  27  29
HETATM   29  C10 UNL     1       0.011   6.801  -9.951  1.00  0.00     0.349 C
HETATM   30  O1  UNL     1      -0.616   5.812  -9.451  1.00  0.00    -0.284 OA
ENDBRANCH  27  29
ENDBRANCH  26  27
ENDBRANCH  25  26
ENDBRANCH  23  24
ENDBRANCH  22  23
ENDBRANCH  21  22
ENDBRANCH  19  20
ENDBRANCH   5  19
BRANCH  16  31
HETATM   31  C19 UNL     1       2.443  20.976  -5.988  1.00  0.00     0.228 C
BRANCH  31  32
HETATM   32  N6  UNL     1       2.176  20.254  -4.781  1.00  0.00    -0.343 N
HETATM   33  C20 UNL     1       2.267  20.804  -3.444  1.00  0.00     0.127 C
HETATM   34  C21 UNL     1       1.067  20.176  -2.767  1.00  0.00     0.029 C
HETATM   35  C22 UNL     1       1.009  18.802  -3.344  1.00  0.00     0.104 C
HETATM   36  C23 UNL     1       1.780  18.887  -4.609  1.00  0.00     0.220 C
HETATM   37  O3  UNL     1       2.068  17.968  -5.425  1.00  0.00    -0.273 OA
ENDBRANCH  31  32
ENDBRANCH  16  31
TORSDOF 10
ENDMDL