MODEL 4
REMARK VINA RESULT: -6.322545091      2.174      2.677
REMARK  9 active torsions:
REMARK  status: ('A' for Active; 'I' for Inactive)
REMARK    1  A    between atoms: C3_3  and  N1_4
REMARK    2  A    between atoms: N2_7  and  C6_8
REMARK    3  A    between atoms: C7_9  and  O1_10
REMARK    4  A    between atoms: C7_9  and  N3_12
REMARK    5  A    between atoms: N3_12  and  C8_14
REMARK    6  A    between atoms: C13_19  and  C14_20
REMARK    7  A    between atoms: C14_20  and  S1_21
REMARK    8  A    between atoms: S1_21  and  N4_22
REMARK    9  A    between atoms: C22_33  and  O3_34
ROOT
HETATM    1  C1  UNL     1       0.762   9.740  -8.227  1.00  0.00     0.013 C
HETATM    2  C2  UNL     1      -0.010  10.415  -8.870  1.00  0.00    -0.089 C
HETATM    3  C3  UNL     1      -0.946  11.209  -9.660  1.00  0.00     0.332 C
ENDROOT
BRANCH   3   4
HETATM    4  N1  UNL     1      -0.768  12.598  -9.544  1.00  0.00    -0.027 N
HETATM    5  C4  UNL     1      -2.003  13.368  -9.505  1.00  0.00     0.269 C
HETATM    6  C5  UNL     1      -1.408  14.778  -9.646  1.00  0.00     0.276 C
HETATM    7  N2  UNL     1      -0.122  14.581 -10.230  1.00  0.00     0.011 N
HETATM    8  C21 UNL     1      -0.167  13.229 -10.739  1.00  0.00     0.483 C
HETATM    9  C22 UNL     1       0.809  14.305  -9.090  1.00  0.00     0.357 C
HETATM   10  C23 UNL     1       0.103  13.078  -8.521  1.00  0.00     0.302 C
BRANCH   7  11
HETATM   11  C6  UNL     1       0.399  15.571 -11.067  1.00  0.00     0.263 C
HETATM   12  C7  UNL     1       1.147  16.664 -10.484  1.00  0.00     0.160 C
BRANCH  12  13
HETATM   13  O1  UNL     1       1.582  17.525 -11.373  1.00  0.00    -0.345 OA
ATOM     14  H1  UNL     1       2.528  17.524 -11.464  1.00  0.00     0.219 HD
ENDBRANCH  12  13
BRANCH  12  15
HETATM   15  N3  UNL     1       1.487  16.966  -9.158  1.00  0.00    -0.365 N
ATOM     16  H3  UNL     1       2.281  16.497  -8.723  1.00  0.00     0.162 HD
BRANCH  15  17
HETATM   17  C8  UNL     1       0.708  17.961  -8.381  1.00  0.00     0.088 C
HETATM   18  C9  UNL     1       0.340  17.284  -7.103  1.00  0.00     0.030 C
HETATM   19  C10 UNL     1      -0.509  18.079  -6.176  1.00  0.00    -0.012 C
HETATM   20  C11 UNL     1       0.109  18.406  -4.848  1.00  0.00     0.005 C
HETATM   21  C17 UNL     1      -1.159  19.280  -6.813  1.00  0.00     0.009 C
HETATM   22  C12 UNL     1       1.534  18.807  -4.883  1.00  0.00     0.011 C
HETATM   23  C13 UNL     1       1.846  19.917  -5.849  1.00  0.00    -0.027 C
HETATM   24  C15 UNL     1       0.670  20.796  -6.008  1.00  0.00     0.015 C
HETATM   25  C20 UNL     1       2.404  19.382  -7.150  1.00  0.00     0.017 C
HETATM   26  C16 UNL     1      -0.292  20.430  -7.112  1.00  0.00    -0.013 C
HETATM   27  C18 UNL     1       0.469  20.372  -8.391  1.00  0.00     0.011 C
HETATM   28  C19 UNL     1       1.464  19.236  -8.268  1.00  0.00     0.009 C
BRANCH  23  29
HETATM   29  C14 UNL     1       2.966  20.737  -5.240  1.00  0.00     0.141 C
BRANCH  29  30
HETATM   30  S1  UNL     1       3.182  22.321  -5.868  1.00  0.00     0.108 S
HETATM   31  O2  UNL     1       2.558  23.614  -5.132  1.00  0.00    -0.236 OA
BRANCH  30  32
HETATM   32  N4  UNL     1       4.150  22.523  -7.222  1.00  0.00    -0.350 N
ATOM     33  H42 UNL     1       3.893  22.070  -8.099  1.00  0.00     0.166 HD
ATOM     34  H41 UNL     1       4.952  23.150  -7.160  1.00  0.00     0.166 HD
ENDBRANCH  30  32
ENDBRANCH  29  30
ENDBRANCH  23  29
ENDBRANCH  15  17
ENDBRANCH  12  15
ENDBRANCH   7  11
BRANCH   9  35
HETATM   35  O3  UNL     1       2.023  13.888  -9.622  1.00  0.00    -0.368 OA
ATOM     36  H3  UNL     1       2.311  13.130  -9.129  1.00  0.00     0.212 HD
ENDBRANCH   9  35
ENDBRANCH   3   4
TORSDOF 9
ENDMDL