MODEL 2
REMARK VINA RESULT: -6.511355464      3.407      6.955
REMARK  8 active torsions:
REMARK  status: ('A' for Active; 'I' for Inactive)
REMARK    1  A    between atoms: C2_2  and  C3_3
REMARK    2  A    between atoms: C3_3  and  C4_4
REMARK    3  A    between atoms: C4_4  and  C5_5
REMARK    4  A    between atoms: C5_5  and  C6_6
REMARK    5  A    between atoms: C7_7  and  C8_8
REMARK    6  A    between atoms: C8_8  and  N1_9
REMARK    7  A    between atoms: C18_22  and  C19_23
REMARK    8  A    between atoms: C19_23  and  C20_24
ROOT
HETATM    1  N1  UNL     1      -1.851  15.320  -7.700  1.00  0.00    -0.348 N
HETATM    2  C9  UNL     1      -2.794  14.521  -7.122  1.00  0.00     0.106 A
HETATM    3  C10 UNL     1      -3.455  14.872  -5.964  1.00  0.00     0.021 A
HETATM    4  C11 UNL     1      -3.124  16.083  -5.397  1.00  0.00     0.053 A
HETATM    5  N2  UNL     1      -3.862  16.251  -4.289  1.00  0.00    -0.354 N
ATOM      6  H2  UNL     1      -3.823  17.062  -3.670  1.00  0.00     0.166 HD
HETATM    7  C12 UNL     1      -4.675  15.168  -4.119  1.00  0.00     0.046 A
HETATM    8  C13 UNL     1      -5.619  14.796  -3.188  1.00  0.00     0.047 A
HETATM    9  C14 UNL     1      -6.292  13.593  -3.297  1.00  0.00     0.092 A
HETATM   10  N3  UNL     1      -6.017  12.778  -4.332  1.00  0.00    -0.370 N
HETATM   11  C15 UNL     1      -6.716  11.507  -4.466  1.00  0.00     0.154 C
HETATM   12  C16 UNL     1      -5.101  13.111  -5.259  1.00  0.00     0.104 A
HETATM   13  C17 UNL     1      -4.425  14.305  -5.159  1.00  0.00     0.020 A
HETATM   14  C18 UNL     1      -2.168  16.902  -5.976  1.00  0.00    -0.006 A
HETATM   15  C22 UNL     1      -1.524  16.505  -7.149  1.00  0.00     0.017 A
HETATM   16  C23 UNL     1      -0.504  17.305  -7.820  1.00  0.00     0.069 C
ENDROOT
BRANCH  14  17
HETATM   17  C19 UNL     1      -1.842  18.179  -5.343  1.00  0.00     0.078 C
BRANCH  17  18
HETATM   18  C20 UNL     1      -0.983  17.996  -4.081  1.00  0.00     0.191 C
HETATM   19  N4  UNL     1       0.325  18.534  -4.253  1.00  0.00    -0.288 N
HETATM   20  S1  UNL     1       0.703  19.395  -2.802  1.00  0.00     0.322 S
ATOM     21  H4  UNL     1       0.922  18.430  -5.073  1.00  0.00     0.174 HD
HETATM   22  O1  UNL     1       0.812  20.870  -3.053  1.00  0.00    -0.182 OA
HETATM   23  O2  UNL     1       1.848  18.828  -2.062  1.00  0.00    -0.182 OA
HETATM   24  N5  UNL     1      -0.814  19.143  -1.965  1.00  0.00    -0.236 N
HETATM   25  C21 UNL     1      -1.677  18.650  -2.980  1.00  0.00     0.256 C
ATOM     26  H5  UNL     1      -1.027  19.311  -0.982  1.00  0.00     0.183 HD
HETATM   27  O3  UNL     1      -2.945  18.782  -2.911  1.00  0.00    -0.270 OA
ENDBRANCH  17  18
ENDBRANCH  14  17
BRANCH   1  28
HETATM   28  C8  UNL     1      -1.211  14.862  -8.921  1.00  0.00     0.221 C
BRANCH  28  29
HETATM   29  C7  UNL     1      -0.393  13.685  -8.546  1.00  0.00    -0.086 C
HETATM   30  C6  UNL     1       0.278  12.723  -8.260  1.00  0.00    -0.105 C
BRANCH  30  31
HETATM   31  C5  UNL     1       1.085  11.546  -7.938  1.00  0.00     0.094 C
BRANCH  31  32
HETATM   32  C4  UNL     1       0.371  10.322  -8.469  1.00  0.00     0.012 C
BRANCH  32  33
HETATM   33  C3  UNL     1       0.765   9.073  -7.730  1.00  0.00     0.000 C
BRANCH  33  34
HETATM   34  C2  UNL     1       1.064   7.913  -8.623  1.00  0.00    -0.005 C
HETATM   35  C1  UNL     1      -0.026   6.917  -8.752  1.00  0.00     0.005 C
ENDBRANCH  33  34
ENDBRANCH  32  33
ENDBRANCH  31  32
ENDBRANCH  30  31
ENDBRANCH  28  29
ENDBRANCH   1  28
TORSDOF 8
ENDMDL