MODEL 4
REMARK VINA RESULT: -7.262664688      2.548      8.780
REMARK  9 active torsions:
REMARK  status: ('A' for Active; 'I' for Inactive)
REMARK    1  A    between atoms: C4_4  and  C5_5
REMARK    2  A    between atoms: C5_5  and  C6_6
REMARK    3  A    between atoms: C15_17  and  C16_18
REMARK    4  A    between atoms: C16_18  and  C17_19
REMARK    5  A    between atoms: C18_20  and  C19_21
REMARK    6  A    between atoms: C19_21  and  C20_22
REMARK    7  A    between atoms: C20_22  and  C21_23
REMARK    8  A    between atoms: C21_23  and  C22_25
REMARK    9  A    between atoms: C22_25  and  C23_26
ROOT
HETATM    1  C17 UNL     1       0.496  15.597 -10.952  1.00  0.00     0.047 A
HETATM    2  C18 UNL     1       0.039  16.880 -10.995  1.00  0.00     0.027 A
HETATM    3  C26 UNL     1      -0.496  17.349 -12.202  1.00  0.00     0.267 A
HETATM    4  O2  UNL     1      -0.924  18.535 -12.270  1.00  0.00    -0.266 OA
HETATM    5  N2  UNL     1      -0.533  16.520 -13.233  1.00  0.00    -0.263 N
ATOM      6  H2  UNL     1      -0.924  16.860 -14.112  1.00  0.00     0.190 HD
HETATM    7  N3  UNL     1      -0.089  15.267 -13.186  1.00  0.00    -0.263 N
ATOM      8  H3  UNL     1      -0.144  14.676 -14.016  1.00  0.00     0.190 HD
HETATM    9  C27 UNL     1       0.430  14.781 -12.054  1.00  0.00     0.270 A
HETATM   10  O3  UNL     1       0.865  13.571 -11.993  1.00  0.00    -0.266 OA
ENDROOT
BRANCH   1  11
HETATM   11  C16 UNL     1       1.158  15.088  -9.733  1.00  0.00     0.048 C
BRANCH  11  12
HETATM   12  C15 UNL     1       0.707  13.954  -9.175  1.00  0.00     0.043 A
HETATM   13  C2  UNL     1      -0.443  13.856  -8.443  1.00  0.00    -0.017 A
HETATM   14  C1  UNL     1      -1.267  14.837  -8.154  1.00  0.00     0.026 C
HETATM   15  C3  UNL     1      -0.561  12.541  -8.069  1.00  0.00     0.042 A
HETATM   16  C4  UNL     1       0.530  11.824  -8.580  1.00  0.00     0.034 A
HETATM   17  N1  UNL     1       1.265  12.726  -9.238  1.00  0.00    -0.356 N
ATOM     18  H1  UNL     1       2.135  12.514  -9.725  1.00  0.00     0.166 HD
BRANCH  16  19
HETATM   19  C5  UNL     1       0.686  10.392  -8.356  1.00  0.00     0.041 C
BRANCH  19  20
HETATM   20  C6  UNL     1      -0.241   9.531  -8.737  1.00  0.00    -0.024 A
HETATM   21  C7  UNL     1      -1.514   9.998  -9.048  1.00  0.00     0.019 A
HETATM   22  C8  UNL     1      -2.498   9.142  -9.478  1.00  0.00    -0.061 A
HETATM   23  C9  UNL     1      -3.872   9.586  -9.815  1.00  0.00     0.048 C
HETATM   24  C10 UNL     1      -2.230   7.794  -9.610  1.00  0.00     0.014 A
HETATM   25  C11 UNL     1      -0.980   7.289  -9.314  1.00  0.00    -0.051 A
HETATM   26  C12 UNL     1      -0.696   5.823  -9.478  1.00  0.00     0.049 C
HETATM   27  C13 UNL     1      -0.007   8.189  -8.877  1.00  0.00    -0.029 A
HETATM   28  C14 UNL     1       1.164   7.666  -8.587  1.00  0.00     0.025 C
ENDBRANCH  19  20
ENDBRANCH  16  19
ENDBRANCH  11  12
ENDBRANCH   1  11
BRANCH   2  29
HETATM   29  C19 UNL     1      -0.028  17.823  -9.844  1.00  0.00     0.053 C
BRANCH  29  30
HETATM   30  C20 UNL     1       1.210  18.554  -9.512  1.00  0.00     0.083 C
BRANCH  30  31
HETATM   31  C21 UNL     1       1.804  18.453  -8.187  1.00  0.00     0.127 C
HETATM   32  O1  UNL     1       2.850  19.016  -7.933  1.00  0.00    -0.298 OA
BRANCH  31  33
HETATM   33  C22 UNL     1       1.108  17.650  -7.124  1.00  0.00     0.082 C
BRANCH  33  34
HETATM   34  C23 UNL     1       0.619  18.500  -5.981  1.00  0.00    -0.016 C
HETATM   35  C24 UNL     1      -0.769  17.990  -5.546  1.00  0.00     0.010 C
HETATM   36  C25 UNL     1       1.473  18.376  -4.734  1.00  0.00     0.010 C
ENDBRANCH  33  34
ENDBRANCH  31  33
ENDBRANCH  30  31
ENDBRANCH  29  30
ENDBRANCH   2  29
TORSDOF 9
ENDMDL