MODEL 2
REMARK VINA RESULT: -5.301004846      4.985      9.428
REMARK  11 active torsions:
REMARK  status: ('A' for Active; 'I' for Inactive)
REMARK    1  A    between atoms: C2_2  and  C3_3
REMARK    2  A    between atoms: C3_3  and  C4_4
REMARK    3  A    between atoms: N1_6  and  C6_7
REMARK    4  A    between atoms: C7_8  and  C8_9
REMARK    5  A    between atoms: C8_9  and  O1_11
REMARK    6  A    between atoms: C8_9  and  O2_13
REMARK    7  A    between atoms: C10_16  and  C11_17
REMARK    8  A    between atoms: C15_22  and  S1_23
REMARK    9  A    between atoms: C17_28  and  C18_29
REMARK   10  A    between atoms: C18_29  and  C19_30
REMARK   11  A    between atoms: C21_32  and  C22_33
ROOT
HETATM    1  C4  UNL     1       0.938  18.743  -5.639  1.00  0.00    -0.013 A
HETATM    2  C5  UNL     1       0.988  18.117  -6.909  1.00  0.00     0.139 A
HETATM    3  N1  UNL     1       0.051  17.310  -7.402  1.00  0.00    -0.217 N
HETATM    4  N2  UNL     1      -1.010  17.043  -6.703  1.00  0.00    -0.257 N
HETATM    5  C10 UNL     1      -1.940  16.314  -7.126  1.00  0.00     0.129 C
HETATM    6  C17 UNL     1      -1.147  17.615  -5.431  1.00  0.00     0.042 A
HETATM    7  C21 UNL     1      -0.188  18.465  -4.896  1.00  0.00    -0.022 A
ENDROOT
BRANCH   3   8
HETATM    8  C6  UNL     1       0.305  16.792  -8.710  1.00  0.00     0.039 C
HETATM    9  C7  UNL     1       0.564  16.406  -9.810  1.00  0.00    -0.014 C
BRANCH   9  10
HETATM   10  C8  UNL     1       0.908  15.955 -11.164  1.00  0.00     0.225 C
HETATM   11  C9  UNL     1      -0.075  16.541 -12.153  1.00  0.00     0.094 C
BRANCH  10  12
HETATM   12  O1  UNL     1       1.041  14.582 -11.265  1.00  0.00    -0.356 OA
ATOM     13  H1  UNL     1       1.800  14.315 -11.770  1.00  0.00     0.214 HD
ENDBRANCH  10  12
BRANCH  10  14
HETATM   14  O2  UNL     1       2.178  16.486 -11.497  1.00  0.00    -0.356 OA
ATOM     15  H2  UNL     1       2.376  16.241 -12.394  1.00  0.00     0.214 HD
ENDBRANCH  10  14
ENDBRANCH   9  10
ENDBRANCH   3   8
BRANCH   5  16
HETATM   16  C11 UNL     1      -2.218  15.576  -8.323  1.00  0.00    -0.017 A
HETATM   17  C12 UNL     1      -2.922  16.142  -9.392  1.00  0.00     0.015 A
HETATM   18  C13 UNL     1      -3.089  15.478 -10.581  1.00  0.00     0.029 A
HETATM   19  C14 UNL     1      -2.540  14.203 -10.726  1.00  0.00     0.070 A
HETATM   20  N3  UNL     1      -2.691  13.500 -11.940  1.00  0.00    -0.101 NA
HETATM   21  C15 UNL     1      -1.839  13.613  -9.689  1.00  0.00     0.105 A
HETATM   22  C16 UNL     1      -1.686  14.300  -8.507  1.00  0.00     0.041 A
BRANCH  21  23
HETATM   23  S1  UNL     1      -1.123  12.027  -9.819  1.00  0.00     0.139 S
HETATM   24  O3  UNL     1      -0.246  11.746  -8.659  1.00  0.00    -0.591 OA
HETATM   25  O4  UNL     1      -0.270  12.011 -11.057  1.00  0.00    -0.591 OA
HETATM   26  O5  UNL     1      -2.372  10.909  -9.923  1.00  0.00    -0.591 OA
ENDBRANCH  21  23
ENDBRANCH   5  16
BRANCH   6  27
HETATM   27  C18 UNL     1      -2.320  17.237  -4.652  1.00  0.00     0.059 C
BRANCH  27  28
HETATM   28  C19 UNL     1      -3.482  18.181  -4.653  1.00  0.00     0.002 C
HETATM   29  C20 UNL     1      -4.103  18.249  -3.236  1.00  0.00     0.005 C
ENDBRANCH  27  28
ENDBRANCH   6  27
BRANCH   7  30
HETATM   30  C22 UNL     1      -0.409  19.071  -3.576  1.00  0.00     0.037 C
HETATM   31  C23 UNL     1       0.381  18.434  -2.451  1.00  0.00     0.010 C
ENDBRANCH   7  30
BRANCH   1  32
HETATM   32  C3  UNL     1       1.945  19.477  -5.291  1.00  0.00    -0.014 C
BRANCH  32  33
HETATM   33  C2  UNL     1       2.680  20.651  -5.634  1.00  0.00     0.023 C
HETATM   34  C1  UNL     1       3.266  21.371  -4.403  1.00  0.00     0.009 C
ENDBRANCH  32  33
ENDBRANCH   1  32
TORSDOF 11
ENDMDL