MODEL 3
REMARK VINA RESULT: -5.968131324      3.718      8.725
REMARK  6 active torsions:
REMARK  status: ('A' for Active; 'I' for Inactive)
REMARK    1  A    between atoms: C8_9  and  N2_10
REMARK    2  A    between atoms: N2_10  and  S1_12
REMARK    3  A    between atoms: S1_12  and  N3_15
REMARK    4  A    between atoms: N3_15  and  C10_17
REMARK    5  A    between atoms: N4_19  and  C12_20
REMARK    6  A    between atoms: C12_20  and  C13_21
ROOT
HETATM    1  C10 UNL     1      -0.015  17.372  -7.907  1.00  0.00     0.088 A
HETATM    2  C11 UNL     1       0.676  16.423  -8.602  1.00  0.00     0.123 A
HETATM    3  N4  UNL     1       0.199  15.147  -8.803  1.00  0.00    -0.352 N
HETATM    4  C16 UNL     1      -0.969  14.741  -8.334  1.00  0.00     0.021 A
HETATM    5  C17 UNL     1      -1.498  13.390  -8.539  1.00  0.00     0.069 C
HETATM    6  C18 UNL     1      -1.713  15.686  -7.614  1.00  0.00     0.034 A
HETATM    7  C19 UNL     1      -2.947  15.578  -7.007  1.00  0.00     0.125 A
HETATM    8  N7  UNL     1      -3.212  16.768  -6.449  1.00  0.00    -0.306 N
HETATM    9  C20 UNL     1      -4.405  17.111  -5.705  1.00  0.00     0.177 C
HETATM   10  N8  UNL     1      -2.210  17.599  -6.680  1.00  0.00    -0.296 N
ATOM     11  H8  UNL     1      -2.161  18.568  -6.365  1.00  0.00     0.187 HD
HETATM   12  C21 UNL     1      -1.259  16.960  -7.402  1.00  0.00     0.090 A
ENDROOT
BRANCH   1  13
HETATM   13  N3  UNL     1       0.369  18.699  -7.646  1.00  0.00    -0.264 N
ATOM     14  H3  UNL     1      -0.082  19.436  -8.189  1.00  0.00     0.180 HD
BRANCH  13  15
HETATM   15  S1  UNL     1       1.543  19.174  -6.479  1.00  0.00     0.325 S
HETATM   16  O1  UNL     1       1.809  17.920  -5.649  1.00  0.00    -0.182 OA
HETATM   17  O2  UNL     1       2.780  19.542  -7.250  1.00  0.00    -0.182 OA
BRANCH  15  18
HETATM   18  N2  UNL     1       1.011  20.458  -5.443  1.00  0.00    -0.261 N
HETATM   19  C9  UNL     1       0.495  21.622  -6.113  1.00  0.00     0.171 C
BRANCH  18  20
HETATM   20  C8  UNL     1       1.127  20.277  -4.064  1.00  0.00     0.074 A
HETATM   21  C2  UNL     1       2.295  20.686  -3.430  1.00  0.00    -0.031 A
HETATM   22  C1  UNL     1       3.366  21.297  -4.252  1.00  0.00     0.050 C
HETATM   23  C3  UNL     1       2.416  20.510  -2.068  1.00  0.00     0.026 A
HETATM   24  C4  UNL     1       1.373  19.935  -1.380  1.00  0.00     0.091 A
HETATM   25  N1  UNL     1       0.261  19.553  -2.025  1.00  0.00    -0.363 N
HETATM   26  C5  UNL     1      -0.825  18.947  -1.267  1.00  0.00     0.155 C
HETATM   27  C6  UNL     1       0.085  19.698  -3.350  1.00  0.00     0.035 A
HETATM   28  C7  UNL     1      -1.114  19.290  -4.065  1.00  0.00     0.070 C
ENDBRANCH  18  20
ENDBRANCH  15  18
ENDBRANCH  13  15
ENDBRANCH   1  13
BRANCH   3  29
HETATM   29  C12 UNL     1       1.047  14.224  -9.563  1.00  0.00     0.186 C
BRANCH  29  30
HETATM   30  C13 UNL     1       0.722  14.199 -11.000  1.00  0.00     0.044 A
HETATM   31  C14 UNL     1       0.085  15.093 -11.820  1.00  0.00     0.115 A
HETATM   32  N5  UNL     1       0.039  14.587 -13.073  1.00  0.00    -0.360 N
HETATM   33  C15 UNL     1       0.637  13.398 -13.030  1.00  0.00     0.180 A
ATOM     34  H5  UNL     1      -0.374  15.031 -13.893  1.00  0.00     0.166 HD
HETATM   35  N6  UNL     1       1.056  13.143 -11.798  1.00  0.00    -0.353 N
ATOM     36  H6  UNL     1       1.545  12.300 -11.497  1.00  0.00     0.166 HD
ENDBRANCH  29  30
ENDBRANCH   3  29
TORSDOF 6
ENDMDL