MODEL 4
REMARK VINA RESULT: -5.309552601      5.079      9.548
REMARK  5 active torsions:
REMARK  status: ('A' for Active; 'I' for Inactive)
REMARK    1  A    between atoms: C2_2  and  C4_4
REMARK    2  A    between atoms: C4_4  and  C5_5
REMARK    3  A    between atoms: C17_22  and  N3_23
REMARK       I    between atoms: N3_23  and  C18_25
REMARK    4  A    between atoms: C18_25  and  C19_27
REMARK    5  A    between atoms: C19_27  and  N4_28
ROOT
HETATM    1  C5  UNL     1      -2.895  17.471  -4.440  1.00  0.00     0.177 C
HETATM    2  N1  UNL     1      -2.324  18.492  -5.246  1.00  0.00    -0.347 N
ATOM      3  H1  UNL     1      -2.950  18.977  -5.890  1.00  0.00     0.163 HD
HETATM    4  C6  UNL     1      -0.961  18.904  -5.241  1.00  0.00     0.223 C
HETATM    5  O1  UNL     1      -0.594  19.726  -6.130  1.00  0.00    -0.273 OA
HETATM    6  C7  UNL     1       0.025  18.426  -4.266  1.00  0.00     0.089 C
HETATM    7  C8  UNL     1       1.438  18.815  -4.606  1.00  0.00     0.015 C
HETATM    8  C9  UNL     1       1.602  19.225  -3.137  1.00  0.00     0.014 C
HETATM    9  C10 UNL     1       0.104  19.435  -3.118  1.00  0.00     0.069 C
HETATM   10  C11 UNL     1      -0.621  18.852  -1.980  1.00  0.00     0.141 C
HETATM   11  O2  UNL     1      -0.360  17.658  -1.748  1.00  0.00    -0.297 OA
HETATM   12  C12 UNL     1      -1.588  19.498  -1.116  1.00  0.00     0.131 C
HETATM   13  C13 UNL     1      -2.989  19.613  -1.576  1.00  0.00     0.125 C
HETATM   14  C14 UNL     1      -2.977  20.879  -2.382  1.00  0.00     0.265 C
HETATM   15  N2  UNL     1      -2.256  21.763  -1.443  1.00  0.00    -0.051 N
HETATM   16  C15 UNL     1      -3.201  22.197  -0.465  1.00  0.00     0.274 C
HETATM   17  C16 UNL     1      -1.815  22.890  -2.255  1.00  0.00     0.274 C
HETATM   18  C17 UNL     1      -1.174  20.972  -0.985  1.00  0.00     0.303 C
HETATM   19  N5  UNL     1      -3.630  18.476  -2.124  1.00  0.00    -0.352 N
ATOM     20  H5  UNL     1      -4.032  17.871  -1.408  1.00  0.00     0.163 HD
HETATM   21  C23 UNL     1      -3.839  17.991  -3.410  1.00  0.00     0.240 C
HETATM   22  O4  UNL     1      -5.069  17.973  -3.820  1.00  0.00    -0.271 OA
ENDROOT
BRANCH  18  23
HETATM   23  N3  UNL     1      -0.739  21.174   0.363  1.00  0.00    -0.331 N
HETATM   24  C18 UNL     1       0.586  21.194   0.809  1.00  0.00     0.245 C
HETATM   25  O3  UNL     1       1.501  21.024  -0.021  1.00  0.00    -0.272 OA
ATOM     26  H3  UNL     1      -1.465  21.317   1.065  1.00  0.00     0.164 HD
BRANCH  24  27
HETATM   27  C19 UNL     1       0.921  21.409   2.221  1.00  0.00     0.338 C
BRANCH  27  28
HETATM   28  N4  UNL     1       1.086  22.803   2.575  1.00  0.00    -0.070 N
HETATM   29  C20 UNL     1      -0.155  23.485   2.774  1.00  0.00     0.272 C
HETATM   30  C21 UNL     1       1.808  22.842   3.853  1.00  0.00     0.272 C
HETATM   31  C22 UNL     1       1.890  23.524   1.610  1.00  0.00     0.272 C
ENDBRANCH  27  28
ENDBRANCH  24  27
ENDBRANCH  18  23
BRANCH   1  32
HETATM   32  C4  UNL     1      -3.557  16.417  -5.286  1.00  0.00     0.038 C
BRANCH  32  33
HETATM   33  C2  UNL     1      -2.978  15.088  -5.389  1.00  0.00    -0.020 C
HETATM   34  C1  UNL     1      -3.141  14.420  -6.707  1.00  0.00     0.009 C
HETATM   35  C3  UNL     1      -3.735  14.193  -4.374  1.00  0.00     0.009 C
ENDBRANCH  32  33
ENDBRANCH   1  32
TORSDOF 5
ENDMDL