MODEL 5
REMARK VINA RESULT: -6.740025264      2.289      2.947
REMARK  8 active torsions:
REMARK  status: ('A' for Active; 'I' for Inactive)
REMARK    1  A    between atoms: N1_2  and  C2_5
REMARK    2  A    between atoms: C2_5  and  C3_6
REMARK    3  A    between atoms: C4_7  and  C5_8
REMARK    4  A    between atoms: C5_8  and  C6_9
REMARK       I    between atoms: N2_10  and  C7_12
REMARK    5  A    between atoms: C7_12  and  C8_14
REMARK    6  A    between atoms: C8_14  and  N3_15
REMARK    7  A    between atoms: N3_15  and  C11_18
REMARK    8  A    between atoms: C11_18  and  C12_19
ROOT
HETATM    1  C12 UNL     1       0.065  16.774  -9.742  1.00  0.00     0.227 C
HETATM    2  C13 UNL     1       1.304  17.035 -10.526  1.00  0.00     0.080 C
HETATM    3  C14 UNL     1       0.530  16.800 -11.832  1.00  0.00     0.277 C
HETATM    4  N4  UNL     1      -0.650  16.990 -11.012  1.00  0.00     0.106 N
HETATM    5  C15 UNL     1      -1.687  16.136 -11.362  1.00  0.00     0.278 C
HETATM    6  C16 UNL     1      -2.317  15.314 -10.243  1.00  0.00     0.071 C
HETATM    7  C17 UNL     1      -1.170  14.591  -9.659  1.00  0.00    -0.021 A
HETATM    8  C18 UNL     1      -0.023  15.327  -9.435  1.00  0.00     0.058 A
HETATM    9  N5  UNL     1       0.885  14.442  -8.921  1.00  0.00    -0.343 N
ATOM     10  H5  UNL     1       1.838  14.685  -8.651  1.00  0.00     0.167 HD
HETATM   11  C19 UNL     1       0.358  13.215  -8.818  1.00  0.00     0.116 A
HETATM   12  C20 UNL     1      -0.948  13.298  -9.284  1.00  0.00    -0.004 A
HETATM   13  C21 UNL     1      -1.948  12.187  -9.372  1.00  0.00     0.063 C
HETATM   14  C22 UNL     1      -1.392  10.998 -10.101  1.00  0.00     0.132 C
HETATM   15  N6  UNL     1      -0.514  10.201  -9.263  1.00  0.00    -0.338 N
HETATM   16  C23 UNL     1      -0.779   8.781  -9.133  1.00  0.00     0.154 C
HETATM   17  C24 UNL     1       0.603  10.715  -8.545  1.00  0.00     0.323 C
HETATM   18  O2  UNL     1       1.365   9.847  -8.008  1.00  0.00    -0.247 OA
HETATM   19  N7  UNL     1       1.022  12.054  -8.322  1.00  0.00    -0.294 N
ATOM     20  H7  UNL     1       1.863  12.198  -7.764  1.00  0.00     0.172 HD
ENDROOT
BRANCH   1  21
HETATM   21  C11 UNL     1      -0.409  17.692  -8.733  1.00  0.00     0.285 C
BRANCH  21  22
HETATM   22  N3  UNL     1       0.385  18.494  -7.897  1.00  0.00    -0.064 N
HETATM   23  C9  UNL     1      -0.523  18.994  -6.846  1.00  0.00     0.272 C
HETATM   24  C10 UNL     1       0.843  19.726  -8.586  1.00  0.00     0.272 C
BRANCH  22  25
HETATM   25  C8  UNL     1       1.483  17.886  -7.212  1.00  0.00     0.339 C
BRANCH  25  26
HETATM   26  C7  UNL     1       1.951  18.638  -6.013  1.00  0.00     0.247 C
HETATM   27  N2  UNL     1       1.686  18.250  -4.681  1.00  0.00    -0.339 N
HETATM   28  C6  UNL     1       1.510  19.150  -3.776  1.00  0.00     0.076 C
ATOM     29  H2  UNL     1       1.635  17.261  -4.436  1.00  0.00     0.167 HD
HETATM   30  O1  UNL     1       2.635  19.704  -6.152  1.00  0.00    -0.271 OA
BRANCH  28  31
HETATM   31  C5  UNL     1       1.230  18.725  -2.370  1.00  0.00     0.138 C
BRANCH  31  32
HETATM   32  C4  UNL     1       1.189  19.933  -1.523  1.00  0.00    -0.100 C
HETATM   33  C3  UNL     1       1.147  20.930  -0.848  1.00  0.00    -0.079 C
BRANCH  33  34
HETATM   34  C2  UNL     1       1.096  22.163  -0.045  1.00  0.00     0.325 C
BRANCH  34  35
HETATM   35  N1  UNL     1       1.709  21.855   1.240  1.00  0.00    -0.069 N
HETATM   36  C1  UNL     1       0.745  21.398   2.202  1.00  0.00     0.267 C
ATOM     37  H12 UNL     1       2.240  22.649   1.596  1.00  0.00     0.277 HD
ATOM     38  H11 UNL     1       2.472  21.186   1.134  1.00  0.00     0.277 HD
ENDBRANCH  34  35
ENDBRANCH  33  34
ENDBRANCH  31  32
ENDBRANCH  28  31
ENDBRANCH  25  26
ENDBRANCH  22  25
ENDBRANCH  21  22
ENDBRANCH   1  21
TORSDOF 8
ENDMDL