MODEL 3
REMARK VINA RESULT: -6.866379467      3.929      5.520
REMARK  9 active torsions:
REMARK  status: ('A' for Active; 'I' for Inactive)
REMARK    1  A    between atoms: N1_1  and  C1_4
REMARK    2  A    between atoms: C4_9  and  N3_10
REMARK    3  A    between atoms: N3_10  and  C5_12
REMARK    4  A    between atoms: C5_12  and  N4_13
REMARK    5  A    between atoms: C5_12  and  C6_17
REMARK    6  A    between atoms: C6_17  and  N5_18
REMARK    7  A    between atoms: N5_18  and  O1_19
REMARK    8  A    between atoms: N5_18  and  C7_21
REMARK    9  A    between atoms: N6_22  and  N7_24
ROOT
HETATM    1  C5  UNL     1      29.900   1.631  38.251  1.00  0.00     0.303 C
ENDROOT
BRANCH   1   2
HETATM    2  N3  UNL     1      29.095   2.078  37.161  1.00  0.00    -0.346 N
ATOM      3  H3  UNL     1      28.352   2.743  37.372  1.00  0.00     0.163 HD
BRANCH   2   4
HETATM    4  C4  UNL     1      29.241   1.675  35.816  1.00  0.00     0.119 A
HETATM    5  C3  UNL     1      29.968   2.418  34.910  1.00  0.00     0.136 A
HETATM    6  N2  UNL     1      30.126   2.053  33.632  1.00  0.00    -0.368 N
HETATM    7  C2  UNL     1      29.566   0.922  33.171  1.00  0.00     0.136 A
ATOM      8  H2  UNL     1      30.675   2.639  33.002  1.00  0.00     0.164 HD
HETATM    9  C1  UNL     1      28.835   0.163  34.055  1.00  0.00     0.116 A
HETATM   10  N8  UNL     1      28.689   0.546  35.334  1.00  0.00    -0.327 N
ATOM     11  H8  UNL     1      28.139  -0.041  35.964  1.00  0.00     0.169 HD
BRANCH   9  12
HETATM   12  N1  UNL     1      28.289  -0.924  33.648  1.00  0.00    -0.384 N
ATOM     13  H12 UNL     1      28.871  -1.674  33.275  1.00  0.00     0.157 HD
ATOM     14  H11 UNL     1      27.275  -1.024  33.700  1.00  0.00     0.157 HD
ENDBRANCH   9  12
ENDBRANCH   2   4
ENDBRANCH   1   2
BRANCH   1  15
HETATM   15  N4  UNL     1      29.317   0.623  39.070  1.00  0.00    -0.057 N
ATOM     16  H43 UNL     1      28.478   0.982  39.523  1.00  0.00     0.276 HD
ATOM     17  H42 UNL     1      28.910  -0.108  38.488  1.00  0.00     0.276 HD
ATOM     18  H41 UNL     1      29.939   0.209  39.765  1.00  0.00     0.276 HD
ENDBRANCH   1  15
BRANCH   1  19
HETATM   19  C6  UNL     1      30.351   2.772  39.138  1.00  0.00     0.210 C
BRANCH  19  20
HETATM   20  N5  UNL     1      29.379   3.808  39.286  1.00  0.00    -0.252 N
BRANCH  20  21
HETATM   21  O1  UNL     1      29.429   4.912  38.483  1.00  0.00    -0.287 OA
ATOM     22  H1  UNL     1      29.085   5.742  38.793  1.00  0.00     0.244 HD
ENDBRANCH  20  21
BRANCH  20  23
HETATM   23  C7  UNL     1      28.332   3.769  40.241  1.00  0.00     0.222 C
HETATM   24  N6  UNL     1      28.172   4.680  41.126  1.00  0.00    -0.301 N
ATOM     25  H6  UNL     1      27.390   4.568  41.772  1.00  0.00     0.187 HD
BRANCH  24  26
HETATM   26  N7  UNL     1      28.965   5.805  41.282  1.00  0.00    -0.344 N
ATOM     27  H72 UNL     1      29.550   5.826  42.118  1.00  0.00     0.176 HD
ATOM     28  H71 UNL     1      29.008   6.597  40.642  1.00  0.00     0.176 HD
ENDBRANCH  24  26
ENDBRANCH  20  23
ENDBRANCH  19  20
ENDBRANCH   1  19
TORSDOF 9
ENDMDL