MODEL 3
REMARK VINA RESULT: -6.795380110      1.427      1.651
REMARK  8 active torsions:
REMARK  status: ('A' for Active; 'I' for Inactive)
REMARK    1  A    between atoms: O1_1  and  C1_3
REMARK    2  A    between atoms: C1_3  and  N1_4
REMARK    3  A    between atoms: N1_4  and  C2_7
REMARK    4  A    between atoms: C2_7  and  N2_8
REMARK    5  A    between atoms: N2_8  and  N3_10
REMARK    6  A    between atoms: C3_12  and  N4_13
REMARK    7  A    between atoms: N4_13  and  N5_15
REMARK    8  A    between atoms: N5_15  and  C4_17
ROOT
HETATM    1  N3  UNL     1      29.971   0.836  35.265  1.00  0.00    -0.298 N
ATOM      2  H3  UNL     1      30.698   0.269  35.701  1.00  0.00     0.187 HD
HETATM    3  C3  UNL     1      30.434   1.712  34.491  1.00  0.00     0.214 C
ENDROOT
BRANCH   3   4
HETATM    4  N4  UNL     1      31.851   1.717  34.415  1.00  0.00    -0.281 N
ATOM      5  H4  UNL     1      32.272   1.836  33.493  1.00  0.00     0.188 HD
BRANCH   4   6
HETATM    6  N5  UNL     1      32.673   1.578  35.448  1.00  0.00    -0.129 N
ATOM      7  H5  UNL     1      32.646   0.623  35.807  1.00  0.00     0.205 HD
BRANCH   6   8
HETATM    8  C4  UNL     1      33.455   2.266  36.096  1.00  0.00     0.719 A
HETATM    9  N6  UNL     1      33.776   2.398  37.406  1.00  0.00    -0.087 N
HETATM   10  O2  UNL     1      34.696   3.297  37.585  1.00  0.00    -0.192 OA
ATOM     11  H6  UNL     1      33.347   1.858  38.157  1.00  0.00     0.214 HD
HETATM   12  C5  UNL     1      35.026   3.786  36.406  1.00  0.00     0.254 A
HETATM   13  S1  UNL     1      36.134   4.945  36.065  1.00  0.00    -0.030 SA
HETATM   14  N7  UNL     1      34.285   3.173  35.473  1.00  0.00    -0.155 N
ATOM     15  H7  UNL     1      34.329   3.348  34.469  1.00  0.00     0.187 HD
ENDBRANCH   6   8
ENDBRANCH   4   6
ENDBRANCH   3   4
BRANCH   1  16
HETATM   16  N2  UNL     1      28.741   0.484  35.641  1.00  0.00    -0.310 N
ATOM     17  H2  UNL     1      28.173  -0.108  35.033  1.00  0.00     0.182 HD
BRANCH  16  18
HETATM   18  C2  UNL     1      28.194   0.949  36.939  1.00  0.00     0.373 C
BRANCH  18  19
HETATM   19  N1  UNL     1      28.799   0.281  38.088  1.00  0.00    -0.038 N
ATOM     20  H12 UNL     1      29.284  -0.581  37.839  1.00  0.00     0.281 HD
ATOM     21  H11 UNL     1      28.111  -0.131  38.718  1.00  0.00     0.281 HD
BRANCH  19  22
HETATM   22  C1  UNL     1      29.681   1.272  38.758  1.00  0.00     0.398 C
BRANCH  22  23
HETATM   23  O1  UNL     1      30.768   1.649  38.018  1.00  0.00    -0.374 OA
ATOM     24  H1  UNL     1      31.420   0.966  37.906  1.00  0.00     0.211 HD
ENDBRANCH  22  23
ENDBRANCH  19  22
ENDBRANCH  18  19
ENDBRANCH  16  18
ENDBRANCH   1  16
TORSDOF 8
ENDMDL