MODEL 3
REMARK VINA RESULT: -6.806523494      2.444      4.703
REMARK  6 active torsions:
REMARK  status: ('A' for Active; 'I' for Inactive)
REMARK    1  A    between atoms: N1_1  and  C1_4
REMARK    2  A    between atoms: N5_11  and  C3_12
REMARK    3  A    between atoms: C3_12  and  N6_13
REMARK    4  A    between atoms: N6_13  and  C4_16
REMARK    5  A    between atoms: C4_16  and  C5_17
REMARK    6  A    between atoms: C5_17  and  N7_18
ROOT
HETATM    1  C3  UNL     1      28.841   1.334  35.026  1.00  0.00     0.384 C
ENDROOT
BRANCH   1   2
HETATM    2  N5  UNL     1      30.173   1.412  34.516  1.00  0.00    -0.234 N
HETATM    3  C1  UNL     1      31.191   2.147  34.941  1.00  0.00     0.162 A
HETATM    4  C2  UNL     1      32.281   1.882  34.128  1.00  0.00     0.177 A
HETATM    5  N2  UNL     1      33.575   2.418  34.188  1.00  0.00    -0.077 NA
HETATM    6  N3  UNL     1      31.858   0.983  33.238  1.00  0.00    -0.270 N
HETATM    7  N4  UNL     1      30.596   0.708  33.478  1.00  0.00    -0.236 N
ATOM      8  H3  UNL     1      32.423   0.575  32.493  1.00  0.00     0.190 HD
ATOM      9  H4  UNL     1      30.028   0.050  32.944  1.00  0.00     0.208 HD
BRANCH   3  10
HETATM   10  N1  UNL     1      31.180   2.955  35.916  1.00  0.00    -0.381 N
ATOM     11  H12 UNL     1      31.193   2.710  36.905  1.00  0.00     0.157 HD
ATOM     12  H11 UNL     1      31.154   3.972  35.842  1.00  0.00     0.157 HD
ENDBRANCH   3  10
ENDBRANCH   1   2
BRANCH   1  13
HETATM   13  N6  UNL     1      28.658   0.325  36.040  1.00  0.00    -0.056 N
ATOM     14  H62 UNL     1      28.072  -0.452  35.732  1.00  0.00     0.279 HD
ATOM     15  H61 UNL     1      29.502  -0.216  36.225  1.00  0.00     0.279 HD
BRANCH  13  16
HETATM   16  C4  UNL     1      28.142   0.998  37.216  1.00  0.00     0.255 C
BRANCH  16  17
HETATM   17  C5  UNL     1      29.203   1.196  38.267  1.00  0.00     0.175 C
BRANCH  17  18
HETATM   18  N7  UNL     1      29.029   2.398  39.039  1.00  0.00    -0.302 N
HETATM   19  C6  UNL     1      29.930   3.397  39.072  1.00  0.00     0.111 A
HETATM   20  C7  UNL     1      29.421   4.379  39.917  1.00  0.00     0.037 A
HETATM   21  C8  UNL     1      28.204   3.924  40.373  1.00  0.00     0.108 A
HETATM   22  N8  UNL     1      28.006   2.727  39.820  1.00  0.00    -0.310 N
ATOM     23  H8  UNL     1      27.183   2.144  39.975  1.00  0.00     0.186 HD
ENDBRANCH  17  18
ENDBRANCH  16  17
ENDBRANCH  13  16
ENDBRANCH   1  13
TORSDOF 6
ENDMDL