MODEL 3
REMARK VINA RESULT: -6.916613764      2.757      5.143
REMARK  7 active torsions:
REMARK  status: ('A' for Active; 'I' for Inactive)
REMARK    1  A    between atoms: N1_1  and  C1_4
REMARK    2  A    between atoms: N6_16  and  C5_17
REMARK    3  A    between atoms: C5_17  and  C6_18
REMARK    4  A    between atoms: C6_18  and  N7_19
REMARK    5  A    between atoms: N7_19  and  C7_22
REMARK    6  A    between atoms: C7_22  and  C8_23
REMARK    7  A    between atoms: C8_23  and  N8_24
ROOT
HETATM    1  C1  UNL     1      28.628   0.678  36.225  1.00  0.00     0.132 A
HETATM    2  N2  UNL     1      28.396   0.352  34.942  1.00  0.00    -0.337 N
ATOM      3  H2  UNL     1      27.560  -0.188  34.720  1.00  0.00     0.168 HD
HETATM    4  C2  UNL     1      29.223   0.708  33.934  1.00  0.00     0.183 A
HETATM    5  N3  UNL     1      30.326   1.418  34.231  1.00  0.00    -0.335 N
ATOM      6  H3  UNL     1      30.956   1.690  33.476  1.00  0.00     0.168 HD
HETATM    7  C3  UNL     1      30.629   1.785  35.507  1.00  0.00     0.157 A
HETATM    8  C4  UNL     1      29.776   1.415  36.524  1.00  0.00     0.139 A
HETATM    9  N4  UNL     1      30.294   1.901  37.655  1.00  0.00    -0.279 N
ATOM     10  H4  UNL     1      29.892   1.794  38.587  1.00  0.00     0.189 HD
HETATM   11  N5  UNL     1      31.416   2.543  37.369  1.00  0.00    -0.238 N
ATOM     12  H5  UNL     1      32.021   3.012  38.042  1.00  0.00     0.208 HD
HETATM   13  N6  UNL     1      31.621   2.473  36.070  1.00  0.00    -0.258 N
ENDROOT
BRANCH  13  14
HETATM   14  C5  UNL     1      32.742   3.045  35.351  1.00  0.00     0.180 C
BRANCH  14  15
HETATM   15  C6  UNL     1      33.794   2.026  35.067  1.00  0.00     0.254 C
BRANCH  15  16
HETATM   16  N7  UNL     1      35.034   2.310  35.720  1.00  0.00    -0.072 N
ATOM     17  H72 UNL     1      35.329   1.536  36.315  1.00  0.00     0.277 HD
ATOM     18  H71 UNL     1      35.813   2.308  35.062  1.00  0.00     0.277 HD
BRANCH  16  19
HETATM   19  C7  UNL     1      34.968   3.532  36.448  1.00  0.00     0.259 C
BRANCH  19  20
HETATM   20  C8  UNL     1      36.141   4.452  36.142  1.00  0.00     0.257 C
BRANCH  20  21
HETATM   21  N8  UNL     1      35.732   5.787  35.834  1.00  0.00    -0.078 N
ATOM     22  H83 UNL     1      36.130   6.097  34.948  1.00  0.00     0.274 HD
ATOM     23  H82 UNL     1      34.742   5.818  35.590  1.00  0.00     0.274 HD
ATOM     24  H81 UNL     1      35.945   6.446  36.581  1.00  0.00     0.274 HD
ENDBRANCH  20  21
ENDBRANCH  19  20
ENDBRANCH  16  19
ENDBRANCH  15  16
ENDBRANCH  14  15
ENDBRANCH  13  14
BRANCH   1  25
HETATM   25  N1  UNL     1      27.832   0.344  37.192  1.00  0.00    -0.383 N
ATOM     26  H12 UNL     1      26.956  -0.128  36.966  1.00  0.00     0.157 HD
ATOM     27  H11 UNL     1      28.044   0.527  38.173  1.00  0.00     0.157 HD
ENDBRANCH   1  25
TORSDOF 7
ENDMDL