MODEL 5
REMARK VINA RESULT: -6.949396962      1.400      1.509
REMARK  6 active torsions:
REMARK  status: ('A' for Active; 'I' for Inactive)
REMARK    1  A    between atoms: N1_1  and  C1_4
REMARK    2  A    between atoms: C4_10  and  N3_11
REMARK    3  A    between atoms: N3_11  and  C5_13
REMARK    4  A    between atoms: C5_13  and  C6_14
REMARK    5  A    between atoms: C6_14  and  C7_15
REMARK    6  A    between atoms: C7_15  and  N4_16
ROOT
HETATM    1  C1  UNL     1      31.441   1.538  34.808  1.00  0.00     0.695 A
HETATM    2  N2  UNL     1      31.946   2.104  35.922  1.00  0.00    -0.153 N
ATOM      3  H2  UNL     1      32.883   2.505  35.944  1.00  0.00     0.187 HD
HETATM    4  C2  UNL     1      31.146   2.111  37.004  1.00  0.00     0.294 A
HETATM    5  O1  UNL     1      31.563   2.624  38.070  1.00  0.00    -0.265 OA
HETATM    6  C3  UNL     1      29.875   1.572  36.996  1.00  0.00     0.190 A
HETATM    7  C4  UNL     1      28.891   1.461  37.955  1.00  0.00     0.153 A
HETATM    8  N5  UNL     1      27.872   0.833  37.329  1.00  0.00    -0.267 N
ATOM      9  H5  UNL     1      26.975   0.589  37.751  1.00  0.00     0.190 HD
HETATM   10  N6  UNL     1      28.231   0.586  36.076  1.00  0.00    -0.219 N
ATOM     11  H6  UNL     1      27.641   0.118  35.388  1.00  0.00     0.210 HD
HETATM   12  N7  UNL     1      29.438   1.021  35.842  1.00  0.00    -0.158 N
HETATM   13  N8  UNL     1      30.209   1.005  34.767  1.00  0.00    -0.109 N
ATOM     14  H8  UNL     1      29.866   0.586  33.903  1.00  0.00     0.208 HD
ENDROOT
BRANCH   7  15
HETATM   15  N3  UNL     1      28.929   1.905  39.302  1.00  0.00    -0.373 N
ATOM     16  H3  UNL     1      29.382   1.329  40.012  1.00  0.00     0.161 HD
BRANCH  15  17
HETATM   17  C5  UNL     1      28.330   3.172  39.677  1.00  0.00     0.123 C
BRANCH  17  18
HETATM   18  C6  UNL     1      29.367   4.267  39.766  1.00  0.00     0.047 C
BRANCH  18  19
HETATM   19  C7  UNL     1      29.011   5.155  40.924  1.00  0.00     0.231 C
BRANCH  19  20
HETATM   20  N4  UNL     1      27.802   4.659  41.525  1.00  0.00    -0.079 N
ATOM     21  H43 UNL     1      26.992   4.762  40.916  1.00  0.00     0.274 HD
ATOM     22  H42 UNL     1      27.792   3.642  41.603  1.00  0.00     0.274 HD
ATOM     23  H41 UNL     1      27.676   5.121  42.425  1.00  0.00     0.274 HD
ENDBRANCH  19  20
ENDBRANCH  18  19
ENDBRANCH  17  18
ENDBRANCH  15  17
ENDBRANCH   7  15
BRANCH   1  24
HETATM   24  N1  UNL     1      32.167   1.511  33.761  1.00  0.00    -0.233 N
ATOM     25  H12 UNL     1      32.032   0.765  33.079  1.00  0.00     0.174 HD
ATOM     26  H11 UNL     1      32.867   2.243  33.638  1.00  0.00     0.174 HD
ENDBRANCH   1  24
TORSDOF 6
ENDMDL