MODEL 4
REMARK VINA RESULT: -7.028791949      2.574      4.828
REMARK  7 active torsions:
REMARK  status: ('A' for Active; 'I' for Inactive)
REMARK    1  A    between atoms: N1_1  and  C1_4
REMARK    2  A    between atoms: C2_7  and  N3_8
REMARK    3  A    between atoms: N5_15  and  C5_16
REMARK    4  A    between atoms: C5_16  and  C6_17
REMARK    5  A    between atoms: C6_17  and  C7_18
REMARK    6  A    between atoms: C7_18  and  O1_19
REMARK    7  A    between atoms: O1_19  and  N6_20
ROOT
HETATM    1  C1  UNL     1      29.748   2.770  38.499  1.00  0.00     0.679 A
HETATM    2  N2  UNL     1      28.739   1.837  38.397  1.00  0.00    -0.175 N
ATOM      3  H2  UNL     1      28.102   1.698  39.180  1.00  0.00     0.186 HD
HETATM    4  C2  UNL     1      28.586   1.112  37.286  1.00  0.00     0.145 A
HETATM    5  C3  UNL     1      29.428   1.250  36.197  1.00  0.00     0.123 A
HETATM    6  N4  UNL     1      29.466   0.769  34.907  1.00  0.00    -0.346 N
ATOM      7  H4  UNL     1      28.837   0.063  34.524  1.00  0.00     0.167 HD
HETATM    8  C4  UNL     1      30.462   1.376  34.226  1.00  0.00     0.185 A
HETATM    9  N5  UNL     1      31.039   2.256  35.103  1.00  0.00    -0.327 N
HETATM   10  C8  UNL     1      30.465   2.198  36.266  1.00  0.00     0.155 A
HETATM   11  N7  UNL     1      30.592   2.915  37.397  1.00  0.00    -0.174 N
ATOM     12  H7  UNL     1      31.345   3.600  37.453  1.00  0.00     0.186 HD
ENDROOT
BRANCH   9  13
HETATM   13  C5  UNL     1      32.245   3.026  34.857  1.00  0.00     0.133 C
BRANCH  13  14
HETATM   14  C6  UNL     1      33.445   2.237  35.175  1.00  0.00     0.049 C
BRANCH  14  15
HETATM   15  C7  UNL     1      34.417   3.113  36.070  1.00  0.00     0.202 C
BRANCH  15  16
HETATM   16  O1  UNL     1      34.200   4.406  35.504  1.00  0.00    -0.287 OA
BRANCH  16  17
HETATM   17  N6  UNL     1      35.219   5.267  35.846  1.00  0.00    -0.311 N
ATOM     18  H62 UNL     1      36.193   4.981  35.951  1.00  0.00     0.184 HD
ATOM     19  H61 UNL     1      34.865   6.215  35.976  1.00  0.00     0.184 HD
ENDBRANCH  16  17
ENDBRANCH  15  16
ENDBRANCH  14  15
ENDBRANCH  13  14
ENDBRANCH   9  13
BRANCH   4  20
HETATM   20  N3  UNL     1      27.717   0.109  37.222  1.00  0.00    -0.383 N
ATOM     21  H32 UNL     1      27.082   0.020  38.017  1.00  0.00     0.157 HD
ATOM     22  H31 UNL     1      27.612  -0.456  36.380  1.00  0.00     0.157 HD
ENDBRANCH   4  20
BRANCH   1  23
HETATM   23  N1  UNL     1      29.923   3.436  39.547  1.00  0.00    -0.234 N
ATOM     24  H12 UNL     1      30.424   3.046  40.346  1.00  0.00     0.174 HD
ATOM     25  H11 UNL     1      29.547   4.378  39.651  1.00  0.00     0.174 HD
ENDBRANCH   1  23
TORSDOF 7
ENDMDL