MODEL 1
REMARK VINA RESULT: -7.337699542      0.000      0.000
REMARK  8 active torsions:
REMARK  status: ('A' for Active; 'I' for Inactive)
REMARK    1  A    between atoms: N1_1  and  C1_4
REMARK    2  A    between atoms: C2_11  and  S1_12
REMARK    3  A    between atoms: S1_12  and  N5_13
REMARK    4  A    between atoms: S1_12  and  N6_17
REMARK    5  A    between atoms: N6_17  and  C3_19
REMARK    6  A    between atoms: C3_19  and  C4_20
REMARK    7  A    between atoms: C4_20  and  C5_21
REMARK    8  A    between atoms: C5_21  and  N7_22
ROOT
HETATM    1  S1  UNL     1      32.160   2.249  35.008  1.00  0.00     0.167 S
HETATM    2  O1  UNL     1      32.742   1.608  33.794  1.00  0.00    -0.221 OA
ENDROOT
BRANCH   1   3
HETATM    3  C2  UNL     1      30.672   1.482  35.507  1.00  0.00     0.232 A
HETATM    4  N4  UNL     1      29.842   0.888  34.631  1.00  0.00    -0.260 N
HETATM    5  N3  UNL     1      28.710   0.302  34.986  1.00  0.00    -0.226 N
ATOM      6  H4  UNL     1      30.098   0.890  33.644  1.00  0.00     0.190 HD
HETATM    7  N2  UNL     1      28.362   0.290  36.260  1.00  0.00    -0.118 N
ATOM      8  H3  UNL     1      28.113  -0.135  34.284  1.00  0.00     0.209 HD
HETATM    9  C1  UNL     1      29.161   0.871  37.171  1.00  0.00     0.693 A
ATOM     10  H2  UNL     1      27.493  -0.158  36.551  1.00  0.00     0.207 HD
HETATM   11  N8  UNL     1      30.317   1.469  36.803  1.00  0.00    -0.163 N
ATOM     12  H8  UNL     1      30.914   1.907  37.504  1.00  0.00     0.186 HD
BRANCH   9  13
HETATM   13  N1  UNL     1      28.782   0.834  38.399  1.00  0.00    -0.233 N
ATOM     14  H12 UNL     1      28.602  -0.048  38.878  1.00  0.00     0.174 HD
ATOM     15  H11 UNL     1      28.667   1.726  38.881  1.00  0.00     0.174 HD
ENDBRANCH   9  13
ENDBRANCH   1   3
BRANCH   1  16
HETATM   16  N5  UNL     1      31.868   3.733  34.679  1.00  0.00    -0.339 N
ATOM     17  H52 UNL     1      31.553   4.078  33.773  1.00  0.00     0.167 HD
ATOM     18  H51 UNL     1      32.045   4.294  35.513  1.00  0.00     0.167 HD
ENDBRANCH   1  16
BRANCH   1  19
HETATM   19  N6  UNL     1      33.349   2.214  36.260  1.00  0.00    -0.330 N
ATOM     20  H6  UNL     1      33.233   1.824  37.196  1.00  0.00     0.171 HD
BRANCH  19  21
HETATM   21  C3  UNL     1      34.542   2.843  35.734  1.00  0.00     0.132 C
BRANCH  21  22
HETATM   22  C4  UNL     1      35.382   3.499  36.805  1.00  0.00     0.047 C
BRANCH  22  23
HETATM   23  C5  UNL     1      36.232   4.568  36.142  1.00  0.00     0.231 C
BRANCH  23  24
HETATM   24  N7  UNL     1      35.495   5.742  35.793  1.00  0.00    -0.079 N
ATOM     25  H73 UNL     1      35.317   6.316  36.617  1.00  0.00     0.274 HD
ATOM     26  H72 UNL     1      36.077   6.389  35.260  1.00  0.00     0.274 HD
ATOM     27  H71 UNL     1      34.628   5.543  35.295  1.00  0.00     0.274 HD
ENDBRANCH  23  24
ENDBRANCH  22  23
ENDBRANCH  21  22
ENDBRANCH  19  21
ENDBRANCH   1  19
TORSDOF 8
ENDMDL