MODEL 5
REMARK VINA RESULT: -6.435600466      3.099      4.592
REMARK  7 active torsions:
REMARK  status: ('A' for Active; 'I' for Inactive)
REMARK    1  A    between atoms: N1_1  and  C1_5
REMARK    2  A    between atoms: C1_5  and  C2_6
REMARK    3  A    between atoms: C2_6  and  C3_7
REMARK    4  A    between atoms: N2_9  and  C5_10
REMARK    5  A    between atoms: C5_10  and  C6_11
REMARK    6  A    between atoms: C8_16  and  N4_17
REMARK    7  A    between atoms: C9_21  and  O1_22
ROOT
HETATM    1  C6  UNL     1      30.880   1.395  35.147  1.00  0.00     0.236 C
HETATM    2  N3  UNL     1      29.799   0.761  35.881  1.00  0.00    -0.065 N
ATOM      3  H31 UNL     1      29.778   0.980  36.877  1.00  0.00     0.277 HD
ATOM      4  H32 UNL     1      29.900  -0.248  35.995  1.00  0.00     0.277 HD
HETATM    5  C7  UNL     1      28.618   1.167  35.153  1.00  0.00     0.268 C
HETATM    6  C8  UNL     1      29.033   0.885  33.725  1.00  0.00     0.239 C
HETATM    7  C9  UNL     1      30.444   1.427  33.702  1.00  0.00     0.182 C
ENDROOT
BRANCH   1   8
HETATM    8  C5  UNL     1      31.050   2.772  35.724  1.00  0.00     0.181 C
BRANCH   8   9
HETATM    9  N2  UNL     1      30.804   2.814  37.147  1.00  0.00    -0.283 N
HETATM   10  C4  UNL     1      29.711   3.374  37.690  1.00  0.00     0.134 A
HETATM   11  C3  UNL     1      29.775   3.250  39.071  1.00  0.00     0.042 A
HETATM   12  N6  UNL     1      30.925   2.609  39.309  1.00  0.00    -0.287 N
HETATM   13  N5  UNL     1      31.534   2.353  38.152  1.00  0.00    -0.020 NA
ATOM     14  H6  UNL     1      31.280   2.357  40.232  1.00  0.00     0.184 HD
BRANCH  11  15
HETATM   15  C2  UNL     1      28.758   3.740  40.041  1.00  0.00     0.087 C
BRANCH  15  16
HETATM   16  C1  UNL     1      29.212   5.079  40.613  1.00  0.00     0.235 C
BRANCH  16  17
HETATM   17  N1  UNL     1      28.374   5.434  41.736  1.00  0.00    -0.079 N
ATOM     18  H13 UNL     1      27.386   5.263  41.549  1.00  0.00     0.274 HD
ATOM     19  H12 UNL     1      28.488   4.791  42.519  1.00  0.00     0.274 HD
ATOM     20  H11 UNL     1      28.553   6.402  42.003  1.00  0.00     0.274 HD
ENDBRANCH  16  17
ENDBRANCH  15  16
ENDBRANCH  11  15
ENDBRANCH   8   9
ENDBRANCH   1   8
BRANCH   7  21
HETATM   21  O1  UNL     1      31.253   0.631  32.899  1.00  0.00    -0.391 OA
ATOM     22  H1  UNL     1      31.787   0.037  33.415  1.00  0.00     0.210 HD
ENDBRANCH   7  21
BRANCH   6  23
HETATM   23  N4  UNL     1      29.005  -0.562  33.555  1.00  0.00    -0.071 N
ATOM     24  H43 UNL     1      28.065  -0.956  33.613  1.00  0.00     0.274 HD
ATOM     25  H42 UNL     1      29.210  -0.858  32.600  1.00  0.00     0.274 HD
ATOM     26  H41 UNL     1      29.648  -0.953  34.243  1.00  0.00     0.274 HD
ENDBRANCH   6  23
TORSDOF 7
ENDMDL