MODEL 2
REMARK VINA RESULT: -6.574657875      3.445      6.034
REMARK  8 active torsions:
REMARK  status: ('A' for Active; 'I' for Inactive)
REMARK    1  A    between atoms: N1_1  and  C1_5
REMARK    2  A    between atoms: C1_5  and  C2_6
REMARK    3  A    between atoms: C2_6  and  N2_7
REMARK    4  A    between atoms: N2_7  and  C3_9
REMARK    5  A    between atoms: C5_15  and  N5_16
REMARK    6  A    between atoms: N5_16  and  C6_18
REMARK    7  A    between atoms: C6_18  and  C7_19
REMARK    8  A    between atoms: C7_19  and  N6_20
ROOT
HETATM    1  C3  UNL     1      31.310   2.619  35.272  1.00  0.00     0.130 A
HETATM    2  N3  UNL     1      30.830   2.364  36.527  1.00  0.00    -0.337 N
ATOM      3  H3  UNL     1      29.824   2.285  36.677  1.00  0.00     0.168 HD
HETATM    4  C4  UNL     1      31.674   2.217  37.569  1.00  0.00     0.183 A
HETATM    5  N4  UNL     1      33.004   2.316  37.397  1.00  0.00    -0.337 N
ATOM      6  H4  UNL     1      33.615   2.199  38.206  1.00  0.00     0.168 HD
HETATM    7  C5  UNL     1      33.556   2.564  36.196  1.00  0.00     0.130 A
HETATM    8  C8  UNL     1      32.664   2.712  35.137  1.00  0.00     0.133 A
HETATM    9  N7  UNL     1      33.226   2.971  33.879  1.00  0.00    -0.094 NA
ENDROOT
BRANCH   1  10
HETATM   10  N2  UNL     1      30.507   2.747  34.345  1.00  0.00    -0.373 N
ATOM     11  H2  UNL     1      30.847   3.431  33.669  1.00  0.00     0.161 HD
BRANCH  10  12
HETATM   12  C2  UNL     1      29.272   2.238  33.946  1.00  0.00     0.148 C
BRANCH  12  13
HETATM   13  C1  UNL     1      29.332   0.737  33.625  1.00  0.00     0.249 C
BRANCH  13  14
HETATM   14  N1  UNL     1      28.476  -0.027  34.496  1.00  0.00    -0.078 N
ATOM     15  H13 UNL     1      29.016  -0.533  35.198  1.00  0.00     0.274 HD
ATOM     16  H12 UNL     1      27.940   0.579  35.117  1.00  0.00     0.274 HD
ATOM     17  H11 UNL     1      27.868  -0.654  33.971  1.00  0.00     0.274 HD
ENDBRANCH  13  14
ENDBRANCH  12  13
ENDBRANCH  10  12
ENDBRANCH   1  10
BRANCH   7  18
HETATM   18  N5  UNL     1      34.952   2.682  35.990  1.00  0.00    -0.373 N
ATOM     19  H5  UNL     1      35.411   2.019  35.366  1.00  0.00     0.161 HD
BRANCH  18  20
HETATM   20  C6  UNL     1      35.741   3.685  36.615  1.00  0.00     0.148 C
BRANCH  20  21
HETATM   21  C7  UNL     1      35.468   5.034  36.028  1.00  0.00     0.249 C
BRANCH  21  22
HETATM   22  N6  UNL     1      36.701   5.683  35.599  1.00  0.00    -0.078 N
ATOM     23  H63 UNL     1      36.594   6.696  35.553  1.00  0.00     0.274 HD
ATOM     24  H62 UNL     1      37.420   5.634  36.321  1.00  0.00     0.274 HD
ATOM     25  H61 UNL     1      37.033   5.300  34.714  1.00  0.00     0.274 HD
ENDBRANCH  21  22
ENDBRANCH  20  21
ENDBRANCH  18  20
ENDBRANCH   7  18
TORSDOF 8
ENDMDL