MODEL 3
REMARK VINA RESULT: -6.551342630      1.407      4.800
REMARK  6 active torsions:
REMARK  status: ('A' for Active; 'I' for Inactive)
REMARK    1  A    between atoms: N1_1  and  C1_5
REMARK    2  A    between atoms: C1_5  and  C2_6
REMARK    3  A    between atoms: C2_6  and  C3_7
REMARK    4  A    between atoms: C3_7  and  N2_8
REMARK    5  A    between atoms: C3_7  and  C7_17
REMARK    6  A    between atoms: N2_8  and  C4_10
ROOT
HETATM    1  C3  UNL     1      30.777   1.848  35.000  1.00  0.00     0.150 C
ENDROOT
BRANCH   1   2
HETATM    2  C2  UNL     1      30.648   1.095  33.728  1.00  0.00     0.060 C
BRANCH   2   3
HETATM    3  C1  UNL     1      29.263   0.949  33.164  1.00  0.00     0.232 C
BRANCH   3   4
HETATM    4  N1  UNL     1      28.676  -0.210  33.824  1.00  0.00    -0.079 N
ATOM      5  H13 UNL     1      28.960  -1.099  33.411  1.00  0.00     0.274 HD
ATOM      6  H12 UNL     1      29.052  -0.380  34.756  1.00  0.00     0.274 HD
ATOM      7  H11 UNL     1      27.667  -0.062  33.813  1.00  0.00     0.274 HD
ENDBRANCH   3   4
ENDBRANCH   2   3
ENDBRANCH   1   2
BRANCH   1   8
HETATM    8  N2  UNL     1      30.405   1.074  36.146  1.00  0.00    -0.389 N
ATOM      9  H2  UNL     1      30.823   0.162  36.326  1.00  0.00     0.156 HD
BRANCH   8  10
HETATM   10  C4  UNL     1      29.431   1.625  37.025  1.00  0.00     0.196 C
HETATM   11  C5  UNL     1      29.295   0.791  38.317  1.00  0.00     0.166 C
HETATM   12  N3  UNL     1      28.671   1.832  39.142  1.00  0.00    -0.383 N
HETATM   13  C6  UNL     1      29.392   3.017  38.775  1.00  0.00     0.173 C
ATOM     14  H3  UNL     1      27.909   1.737  39.813  1.00  0.00     0.160 HD
HETATM   15  N4  UNL     1      29.816   2.893  37.587  1.00  0.00    -0.364 N
ATOM     16  H4  UNL     1      30.361   3.600  37.093  1.00  0.00     0.162 HD
ENDBRANCH   8  10
ENDBRANCH   1   8
BRANCH   1  17
HETATM   17  C7  UNL     1      32.237   2.180  35.207  1.00  0.00     0.136 A
HETATM   18  N5  UNL     1      32.750   3.431  35.218  1.00  0.00    -0.270 N
HETATM   19  N6  UNL     1      34.074   3.366  35.445  1.00  0.00    -0.227 N
ATOM     20  H5  UNL     1      32.216   4.289  35.078  1.00  0.00     0.190 HD
HETATM   21  N7  UNL     1      34.398   2.095  35.576  1.00  0.00    -0.227 N
ATOM     22  H6  UNL     1      34.712   4.159  35.504  1.00  0.00     0.210 HD
HETATM   23  N8  UNL     1      33.279   1.382  35.430  1.00  0.00    -0.270 N
ATOM     24  H7  UNL     1      35.332   1.725  35.756  1.00  0.00     0.210 HD
ATOM     25  H8  UNL     1      33.229   0.364  35.483  1.00  0.00     0.190 HD
ENDBRANCH   1  17
TORSDOF 6
ENDMDL