MODEL 4
REMARK VINA RESULT: -5.047506263      2.288      6.321
REMARK  6 active torsions:
REMARK  status: ('A' for Active; 'I' for Inactive)
REMARK    1  A    between atoms: N1_1  and  C1_4
REMARK    2  A    between atoms: C6_15  and  N5_16
REMARK    3  A    between atoms: N6_19  and  C7_20
REMARK    4  A    between atoms: C7_20  and  C8_21
REMARK    5  A    between atoms: C8_21  and  N7_22
REMARK       I    between atoms: N7_22  and  C9_24
REMARK       I    between atoms: C9_24  and  N8_26
REMARK    6  A    between atoms: N8_26  and  N9_28
ROOT
HETATM    1  C1  UNL     1      43.475  45.944  20.794  1.00  0.00     0.130 A
HETATM    2  N2  UNL     1      44.229  46.530  19.834  1.00  0.00    -0.337 N
ATOM      3  H2  UNL     1      44.849  47.305  20.072  1.00  0.00     0.168 HD
HETATM    4  C2  UNL     1      44.159  46.088  18.564  1.00  0.00     0.183 A
HETATM    5  N3  UNL     1      43.333  45.066  18.279  1.00  0.00    -0.336 N
ATOM      6  H3  UNL     1      43.286  44.739  17.314  1.00  0.00     0.168 HD
HETATM    7  C3  UNL     1      42.565  44.453  19.197  1.00  0.00     0.141 A
HETATM    8  C4  UNL     1      42.623  44.896  20.522  1.00  0.00     0.121 A
HETATM    9  N4  UNL     1      41.863  44.297  21.458  1.00  0.00    -0.356 N
ATOM     10  H4  UNL     1      41.906  44.623  22.424  1.00  0.00     0.165 HD
HETATM   11  C5  UNL     1      41.037  43.263  21.135  1.00  0.00     0.137 A
HETATM   12  C6  UNL     1      40.978  42.824  19.828  1.00  0.00     0.118 A
HETATM   13  N6  UNL     1      41.741  43.431  18.904  1.00  0.00    -0.315 N
ENDROOT
BRANCH  13  14
HETATM   14  C7  UNL     1      41.694  42.984  17.522  1.00  0.00     0.152 C
BRANCH  14  15
HETATM   15  C8  UNL     1      42.855  42.139  17.148  1.00  0.00     0.144 C
BRANCH  15  16
HETATM   16  N7  UNL     1      42.421  40.939  16.478  1.00  0.00    -0.340 N
HETATM   17  C9  UNL     1      42.159  39.745  17.201  1.00  0.00     0.334 C
HETATM   18  O1  UNL     1      42.288  39.633  18.450  1.00  0.00    -0.246 OA
HETATM   19  N8  UNL     1      41.720  38.605  16.438  1.00  0.00    -0.258 N
ATOM     20  H8  UNL     1      41.604  38.653  15.427  1.00  0.00     0.191 HD
ATOM     21  H7  UNL     1      42.300  40.948  15.465  1.00  0.00     0.164 HD
BRANCH  19  22
HETATM   22  N9  UNL     1      41.463  37.429  17.149  1.00  0.00    -0.341 N
ATOM     23  H92 UNL     1      42.214  36.943  17.638  1.00  0.00     0.177 HD
ATOM     24  H91 UNL     1      40.500  37.092  17.150  1.00  0.00     0.177 HD
ENDBRANCH  19  22
ENDBRANCH  15  16
ENDBRANCH  14  15
ENDBRANCH  13  14
BRANCH  12  25
HETATM   25  N5  UNL     1      40.224  41.853  19.436  1.00  0.00    -0.384 N
ATOM     26  H52 UNL     1      40.189  41.017  20.018  1.00  0.00     0.157 HD
ATOM     27  H51 UNL     1      39.668  41.882  18.582  1.00  0.00     0.157 HD
ENDBRANCH  12  25
BRANCH   1  28
HETATM   28  N1  UNL     1      43.558  46.382  22.000  1.00  0.00    -0.383 N
ATOM     29  H12 UNL     1      44.479  46.570  22.394  1.00  0.00     0.157 HD
ATOM     30  H11 UNL     1      42.699  46.529  22.530  1.00  0.00     0.157 HD
ENDBRANCH   1  28
TORSDOF 6
ENDMDL