MODEL 1
REMARK VINA RESULT: -5.508780862      0.000      0.000
REMARK  7 active torsions:
REMARK  status: ('A' for Active; 'I' for Inactive)
REMARK    1  A    between atoms: C2_2  and  N1_3
REMARK    2  A    between atoms: C2_2  and  C3_7
REMARK    3  A    between atoms: C3_7  and  N2_8
REMARK    4  A    between atoms: C3_7  and  C4_12
REMARK       I    between atoms: C4_12  and  N3_14
REMARK    5  A    between atoms: N3_14  and  C5_16
REMARK    6  A    between atoms: C6_19  and  N5_20
REMARK    7  A    between atoms: N5_20  and  N6_22
ROOT
HETATM    1  C5  UNL     1      41.225  41.253  18.728  1.00  0.00     0.169 A
HETATM    2  N4  UNL     1      42.521  41.432  18.507  1.00  0.00    -0.168 N
ATOM      3  H4  UNL     1      42.923  42.321  18.802  1.00  0.00     0.186 HD
HETATM    4  C6  UNL     1      43.360  40.534  17.921  1.00  0.00     0.700 A
HETATM    5  N7  UNL     1      43.023  39.336  17.477  1.00  0.00    -0.169 N
ATOM      6  H7  UNL     1      43.773  38.782  17.064  1.00  0.00     0.186 HD
HETATM    7  C7  UNL     1      41.811  38.761  17.506  1.00  0.00     0.160 A
HETATM    8  N8  UNL     1      41.603  37.572  17.035  1.00  0.00    -0.379 N
ATOM      9  H81 UNL     1      40.682  37.135  17.057  1.00  0.00     0.158 HD
ATOM     10  H82 UNL     1      42.321  36.984  16.613  1.00  0.00     0.158 HD
HETATM   11  S1  UNL     1      40.597  39.755  18.220  1.00  0.00    -0.017 SA
ENDROOT
BRANCH   1  12
HETATM   12  N3  UNL     1      40.462  42.141  19.291  1.00  0.00    -0.305 N
HETATM   13  C4  UNL     1      40.771  42.796  20.483  1.00  0.00     0.256 C
HETATM   14  O1  UNL     1      40.766  42.109  21.553  1.00  0.00    -0.271 OA
ATOM     15  H3  UNL     1      39.581  42.373  18.833  1.00  0.00     0.171 HD
BRANCH  13  16
HETATM   16  C3  UNL     1      41.099  44.243  20.539  1.00  0.00     0.304 C
BRANCH  16  17
HETATM   17  C2  UNL     1      41.331  44.739  19.129  1.00  0.00     0.219 C
HETATM   18  C1  UNL     1      40.527  45.961  18.837  1.00  0.00     0.042 C
BRANCH  17  19
HETATM   19  N1  UNL     1      42.719  45.001  18.862  1.00  0.00    -0.073 N
ATOM     20  H13 UNL     1      42.872  45.329  17.908  1.00  0.00     0.274 HD
ATOM     21  H12 UNL     1      43.056  45.827  19.356  1.00  0.00     0.274 HD
ATOM     22  H11 UNL     1      43.270  44.171  19.077  1.00  0.00     0.274 HD
ENDBRANCH  17  19
ENDBRANCH  16  17
BRANCH  16  23
HETATM   23  N2  UNL     1      42.244  44.405  21.380  1.00  0.00    -0.064 N
ATOM     24  H23 UNL     1      42.706  43.511  21.545  1.00  0.00     0.275 HD
ATOM     25  H22 UNL     1      42.993  44.891  20.887  1.00  0.00     0.275 HD
ATOM     26  H21 UNL     1      42.025  44.871  22.260  1.00  0.00     0.275 HD
ENDBRANCH  16  23
ENDBRANCH  13  16
ENDBRANCH   1  12
BRANCH   4  27
HETATM   27  N5  UNL     1      44.603  40.919  17.803  1.00  0.00    -0.138 N
ATOM     28  H5  UNL     1      45.332  40.521  18.394  1.00  0.00     0.205 HD
BRANCH  27  29
HETATM   29  N6  UNL     1      44.903  41.878  16.854  1.00  0.00    -0.331 N
ATOM     30  H62 UNL     1      44.299  42.693  16.746  1.00  0.00     0.177 HD
ATOM     31  H61 UNL     1      45.734  41.744  16.278  1.00  0.00     0.177 HD
ENDBRANCH  27  29
ENDBRANCH   4  27
TORSDOF 7
ENDMDL