MODEL 1
REMARK VINA RESULT: -5.591616448      0.000      0.000
REMARK  8 active torsions:
REMARK  status: ('A' for Active; 'I' for Inactive)
REMARK    1  A    between atoms: C2_5  and  C3_6
REMARK    2  A    between atoms: C2_5  and  N8_18
REMARK    3  A    between atoms: C3_6  and  N3_7
REMARK    4  A    between atoms: N3_7  and  C4_9
REMARK    5  A    between atoms: N8_18  and  N9_20
REMARK    6  A    between atoms: N9_20  and  C5_22
REMARK    7  A    between atoms: C5_22  and  N10_24
REMARK    8  A    between atoms: N10_24  and  N11_26
ROOT
HETATM    1  N1  UNL     1      38.983  43.733  21.257  1.00  0.00    -0.172 NA
HETATM    2  C1  UNL     1      40.101  43.541  21.022  1.00  0.00     0.183 C
HETATM    3  N2  UNL     1      41.443  43.319  20.761  1.00  0.00    -0.280 N
ATOM      4  H2  UNL     1      42.122  43.623  21.459  1.00  0.00     0.179 HD
HETATM    5  C2  UNL     1      41.888  42.756  19.696  1.00  0.00     0.123 C
ENDROOT
BRANCH   5   6
HETATM    6  C3  UNL     1      40.976  42.286  18.634  1.00  0.00     0.216 C
BRANCH   6   7
HETATM    7  N3  UNL     1      40.520  40.923  18.880  1.00  0.00    -0.216 N
ATOM      8  H3  UNL     1      39.804  40.720  19.579  1.00  0.00     0.178 HD
BRANCH   7   9
HETATM    9  C4  UNL     1      41.060  39.984  18.178  1.00  0.00     0.710 A
HETATM   10  N4  UNL     1      40.701  38.679  18.177  1.00  0.00    -0.115 N
HETATM   11  N5  UNL     1      41.505  38.049  17.319  1.00  0.00    -0.213 N
ATOM     12  H4  UNL     1      39.956  38.256  18.730  1.00  0.00     0.207 HD
HETATM   13  N6  UNL     1      42.345  38.889  16.784  1.00  0.00    -0.213 N
ATOM     14  H5  UNL     1      41.467  37.051  17.110  1.00  0.00     0.210 HD
HETATM   15  N7  UNL     1      42.094  40.079  17.295  1.00  0.00    -0.115 N
ATOM     16  H6  UNL     1      43.066  38.667  16.096  1.00  0.00     0.210 HD
ATOM     17  H7  UNL     1      42.596  40.937  17.064  1.00  0.00     0.207 HD
ENDBRANCH   7   9
ENDBRANCH   6   7
ENDBRANCH   5   6
BRANCH   5  18
HETATM   18  N8  UNL     1      43.285  42.570  19.514  1.00  0.00    -0.285 N
ATOM     19  H8  UNL     1      43.840  43.269  19.019  1.00  0.00     0.188 HD
BRANCH  18  20
HETATM   20  N9  UNL     1      43.885  41.427  20.019  1.00  0.00    -0.274 N
ATOM     21  H9  UNL     1      43.731  40.535  19.549  1.00  0.00     0.189 HD
BRANCH  20  22
HETATM   22  C5  UNL     1      44.709  41.470  21.174  1.00  0.00     0.204 C
HETATM   23  S1  UNL     1      45.183  42.908  21.759  1.00  0.00    -0.038 SA
BRANCH  22  24
HETATM   24  N10 UNL     1      45.100  40.254  21.794  1.00  0.00    -0.282 N
ATOM     25  H10 UNL     1      44.730  39.373  21.436  1.00  0.00     0.189 HD
BRANCH  24  26
HETATM   26  N11 UNL     1      45.977  40.231  22.881  1.00  0.00    -0.343 N
ATOM     27 2H11 UNL     1      45.841  39.513  23.594  1.00  0.00     0.176 HD
ATOM     28 1H11 UNL     1      46.737  40.905  22.973  1.00  0.00     0.176 HD
ENDBRANCH  24  26
ENDBRANCH  22  24
ENDBRANCH  20  22
ENDBRANCH  18  20
ENDBRANCH   5  18
TORSDOF 8
ENDMDL