MODEL 3
REMARK VINA RESULT: -6.046332757      2.079      2.771
REMARK  5 active torsions:
REMARK  status: ('A' for Active; 'I' for Inactive)
REMARK       I    between atoms: N1_1  and  C1_4
REMARK       I    between atoms: C1_4  and  N3_6
REMARK    1  A    between atoms: N3_6  and  N4_8
REMARK    2  A    between atoms: N4_8  and  C2_10
REMARK    3  A    between atoms: C2_10  and  C3_11
REMARK    4  A    between atoms: C4_14  and  C5_15
REMARK       I    between atoms: C5_15  and  N6_17
REMARK    5  A    between atoms: N6_17  and  N7_19
REMARK       I    between atoms: N7_19  and  C6_21
ROOT
HETATM    1  C3  UNL     1      40.906  38.829  13.743  1.00  0.00     0.189 A
HETATM    2  N5  UNL     1      40.987  38.451  15.057  1.00  0.00    -0.314 N
ATOM      3  H5  UNL     1      40.598  37.593  15.449  1.00  0.00     0.170 HD
HETATM    4  C4  UNL     1      41.658  39.387  15.747  1.00  0.00     0.198 A
HETATM    5  N9  UNL     1      41.979  40.338  14.824  1.00  0.00    -0.238 N
ATOM      6  H9  UNL     1      42.495  41.197  15.012  1.00  0.00     0.197 HD
HETATM    7  O3  UNL     1      41.517  39.968  13.655  1.00  0.00    -0.216 OA
ENDROOT
BRANCH   1   8
HETATM    8  C2  UNL     1      40.236  38.040  12.688  1.00  0.00     0.165 C
BRANCH   8   9
HETATM    9  N4  UNL     1      39.199  37.326  12.918  1.00  0.00    -0.305 N
ATOM     10  H4  UNL     1      39.215  36.318  12.758  1.00  0.00     0.186 HD
BRANCH   9  11
HETATM   11  N3  UNL     1      38.045  37.950  13.390  1.00  0.00    -0.274 N
HETATM   12  C1  UNL     1      36.864  38.063  12.641  1.00  0.00     0.200 C
HETATM   13  N1  UNL     1      36.260  37.010  12.247  1.00  0.00    -0.372 N
HETATM   14  N2  UNL     1      36.344  39.336  12.322  1.00  0.00    -0.062 NA
ATOM     15  H12 UNL     1      35.401  37.092  11.702  1.00  0.00     0.158 HD
ATOM     16  H11 UNL     1      36.636  36.090  12.478  1.00  0.00     0.158 HD
ATOM     17  H3  UNL     1      38.060  38.345  14.330  1.00  0.00     0.189 HD
ENDBRANCH   9  11
ENDBRANCH   8   9
ENDBRANCH   1   8
BRANCH   4  18
HETATM   18  C5  UNL     1      42.006  39.449  17.174  1.00  0.00     0.305 C
HETATM   19  O1  UNL     1      41.366  38.747  17.984  1.00  0.00    -0.263 OA
HETATM   20  N6  UNL     1      43.039  40.282  17.618  1.00  0.00    -0.260 N
ATOM     21  H6  UNL     1      43.557  40.853  16.950  1.00  0.00     0.190 HD
BRANCH  20  22
HETATM   22  N7  UNL     1      43.366  40.333  18.988  1.00  0.00    -0.251 N
HETATM   23  C6  UNL     1      44.581  39.699  19.386  1.00  0.00     0.347 C
HETATM   24  N8  UNL     1      45.018  39.680  20.695  1.00  0.00    -0.038 NA
HETATM   25  O2  UNL     1      45.254  39.143  18.449  1.00  0.00    -0.249 OA
ATOM     26  H7  UNL     1      42.762  40.801  19.664  1.00  0.00     0.191 HD
ENDBRANCH  20  22
ENDBRANCH   4  18
TORSDOF 5
ENDMDL