MODEL 5
REMARK VINA RESULT: -4.718453669      2.491      5.752
REMARK  6 active torsions:
REMARK  status: ('A' for Active; 'I' for Inactive)
REMARK    1  A    between atoms: C2_2  and  N1_3
REMARK    2  A    between atoms: C3_4  and  N2_5
REMARK    3  A    between atoms: N2_5  and  N3_7
REMARK    4  A    between atoms: C4_12  and  C5_13
REMARK    5  A    between atoms: C5_13  and  N5_14
REMARK    6  A    between atoms: C5_13  and  C6_18
REMARK       I    between atoms: C6_18  and  N6_20
ROOT
HETATM    1  N1  UNL     1      41.909  40.824  17.933  1.00  0.00    -0.119 N
HETATM    2  C3  UNL     1      43.043  41.479  18.172  1.00  0.00     0.706 A
HETATM    3  N4  UNL     1      43.061  42.521  19.053  1.00  0.00    -0.189 N
ATOM      4  H4  UNL     1      43.941  43.009  19.219  1.00  0.00     0.184 HD
HETATM    5  C4  UNL     1      41.969  42.928  19.704  1.00  0.00     0.096 A
HETATM    6  C8  UNL     1      40.784  42.269  19.477  1.00  0.00     0.141 A
HETATM    7  N7  UNL     1      39.590  42.663  20.146  1.00  0.00    -0.094 NA
HETATM    8  C9  UNL     1      40.767  41.225  18.593  1.00  0.00     0.292 A
HETATM    9  O2  UNL     1      39.695  40.590  18.355  1.00  0.00    -0.265 OA
ENDROOT
BRANCH   5  10
HETATM   10  C5  UNL     1      42.023  44.083  20.671  1.00  0.00     0.326 C
BRANCH  10  11
HETATM   11  N5  UNL     1      43.258  44.105  21.409  1.00  0.00    -0.061 N
ATOM     12  H53 UNL     1      43.650  43.168  21.503  1.00  0.00     0.275 HD
ATOM     13  H52 UNL     1      44.006  44.537  20.867  1.00  0.00     0.275 HD
ATOM     14  H51 UNL     1      43.149  44.555  22.317  1.00  0.00     0.275 HD
ENDBRANCH  10  11
BRANCH  10  15
HETATM   15  C6  UNL     1      41.751  45.371  19.987  1.00  0.00     0.254 C
HETATM   16  O1  UNL     1      42.408  46.430  20.229  1.00  0.00    -0.271 OA
HETATM   17  N6  UNL     1      40.727  45.462  19.021  1.00  0.00    -0.363 N
HETATM   18  C7  UNL     1      40.404  46.687  18.311  1.00  0.00     0.149 C
ATOM     19  H6  UNL     1      40.185  44.623  18.810  1.00  0.00     0.161 HD
ENDBRANCH  10  15
ENDBRANCH   5  10
BRANCH   2  20
HETATM   20  N2  UNL     1      44.130  41.170  17.575  1.00  0.00    -0.138 N
ATOM     21  H2  UNL     1      44.524  40.234  17.673  1.00  0.00     0.205 HD
BRANCH  20  22
HETATM   22  N3  UNL     1      44.772  42.125  16.789  1.00  0.00    -0.331 N
ATOM     23  H32 UNL     1      44.239  42.628  16.079  1.00  0.00     0.177 HD
ATOM     24  H31 UNL     1      45.765  42.306  16.935  1.00  0.00     0.177 HD
ENDBRANCH  20  22
ENDBRANCH   2  20
BRANCH   1  25
HETATM   25  C2  UNL     1      41.828  39.736  17.068  1.00  0.00     0.108 C
HETATM   26  C1  UNL     1      42.055  38.492  17.281  1.00  0.00     0.031 C
ENDBRANCH   1  25
TORSDOF 6
ENDMDL