MODEL 3
REMARK VINA RESULT: -5.685318874      3.575      5.191
REMARK  6 active torsions:
REMARK  status: ('A' for Active; 'I' for Inactive)
REMARK    1  A    between atoms: C2_2  and  N1_3
REMARK    2  A    between atoms: C2_2  and  C3_7
REMARK    3  A    between atoms: C3_7  and  N2_8
REMARK    4  A    between atoms: N2_8  and  C4_10
REMARK    5  A    between atoms: C7_19  and  N6_20
REMARK    6  A    between atoms: C8_23  and  C9_24
ROOT
HETATM    1  C4  UNL     1      40.941  39.023  13.516  1.00  0.00     0.137 A
HETATM    2  N3  UNL     1      41.209  39.693  12.391  1.00  0.00    -0.337 N
ATOM      3  H3  UNL     1      40.869  39.298  11.514  1.00  0.00     0.168 HD
HETATM    4  C5  UNL     1      41.897  40.855  12.330  1.00  0.00     0.183 A
HETATM    5  N4  UNL     1      42.359  41.407  13.458  1.00  0.00    -0.337 N
ATOM      6  H4  UNL     1      42.880  42.284  13.434  1.00  0.00     0.168 HD
HETATM    7  C6  UNL     1      42.122  40.781  14.625  1.00  0.00     0.139 A
HETATM    8  N5  UNL     1      42.611  41.375  15.759  1.00  0.00    -0.325 N
ATOM      9  H5  UNL     1      43.128  42.253  15.706  1.00  0.00     0.169 HD
HETATM   10  C7  UNL     1      42.392  40.775  16.941  1.00  0.00     0.133 A
HETATM   11  C8  UNL     1      41.692  39.589  17.015  1.00  0.00     0.142 A
HETATM   12  N8  UNL     1      41.204  38.994  15.891  1.00  0.00    -0.343 N
ATOM     13  H8  UNL     1      40.685  38.117  15.944  1.00  0.00     0.166 HD
HETATM   14  C10 UNL     1      41.426  39.601  14.704  1.00  0.00     0.122 A
ENDROOT
BRANCH   1  15
HETATM   15  N2  UNL     1      40.302  37.930  13.631  1.00  0.00    -0.352 N
ATOM     16  H2  UNL     1      39.687  37.823  14.437  1.00  0.00     0.166 HD
BRANCH  15  17
HETATM   17  C3  UNL     1      40.382  36.862  12.729  1.00  0.00     0.094 C
BRANCH  17  18
HETATM   18  C2  UNL     1      40.872  35.562  13.324  1.00  0.00     0.217 C
HETATM   19  C1  UNL     1      39.906  34.427  13.086  1.00  0.00     0.045 C
BRANCH  18  20
HETATM   20  N1  UNL     1      41.199  35.701  14.726  1.00  0.00    -0.071 N
ATOM     21  H13 UNL     1      41.527  34.819  15.120  1.00  0.00     0.275 HD
ATOM     22  H12 UNL     1      42.042  36.258  14.858  1.00  0.00     0.275 HD
ATOM     23  H11 UNL     1      40.416  36.077  15.260  1.00  0.00     0.275 HD
ENDBRANCH  18  20
ENDBRANCH  17  18
ENDBRANCH  15  17
ENDBRANCH   1  15
BRANCH  11  24
HETATM   24  C9  UNL     1      41.484  38.983  18.326  1.00  0.00     0.285 C
HETATM   25  N7  UNL     1      42.451  38.124  18.892  1.00  0.00    -0.056 NA
HETATM   26  O1  UNL     1      40.435  39.238  18.937  1.00  0.00    -0.269 OA
ENDBRANCH  11  24
BRANCH  10  27
HETATM   27  N6  UNL     1      42.831  41.291  18.055  1.00  0.00    -0.383 N
ATOM     28  H62 UNL     1      43.727  40.957  18.413  1.00  0.00     0.157 HD
ATOM     29  H61 UNL     1      42.301  42.004  18.556  1.00  0.00     0.157 HD
ENDBRANCH  10  27
TORSDOF 6
ENDMDL