MODEL 1
REMARK VINA RESULT: -4.806353420      0.000      0.000
REMARK  7 active torsions:
REMARK  status: ('A' for Active; 'I' for Inactive)
REMARK    1  A    between atoms: N1_2  and  C2_4
REMARK    2  A    between atoms: C3_7  and  N3_8
REMARK    3  A    between atoms: C4_14  and  N6_15
REMARK    4  A    between atoms: C5_20  and  N8_21
REMARK    5  A    between atoms: N8_21  and  C6_23
REMARK    6  A    between atoms: C6_23  and  C7_24
REMARK    7  A    between atoms: C7_24  and  N9_25
ROOT
HETATM    1  C2  UNL     1      40.335  33.356  12.825  1.00  0.00     0.164 A
HETATM    2  N2  UNL     1      41.207  32.464  12.271  1.00  0.00    -0.172 N
ATOM      3  H2  UNL     1      41.084  31.468  12.455  1.00  0.00     0.186 HD
HETATM    4  C3  UNL     1      42.222  32.864  11.489  1.00  0.00     0.693 A
HETATM    5  N4  UNL     1      42.395  34.171  11.238  1.00  0.00    -0.109 N
ATOM      6  H4  UNL     1      43.166  34.474  10.644  1.00  0.00     0.207 HD
HETATM    7  N5  UNL     1      41.574  35.064  11.754  1.00  0.00    -0.051 N
HETATM    8  C4  UNL     1      41.734  36.391  11.510  1.00  0.00     0.714 A
HETATM    9  N7  UNL     1      40.886  37.261  12.049  1.00  0.00    -0.021 N
ATOM     10  H7  UNL     1      41.026  38.252  11.853  1.00  0.00     0.203 HD
HETATM   11  C5  UNL     1      39.841  36.907  12.847  1.00  0.00     0.694 A
HETATM   12  N10 UNL     1      39.697  35.603  13.078  1.00  0.00    -0.170 N
ATOM     13  H10 UNL     1      38.931  35.288  13.672  1.00  0.00     0.186 HD
HETATM   14  C9  UNL     1      40.531  34.690  12.553  1.00  0.00     0.205 A
ENDROOT
BRANCH  11  15
HETATM   15  N8  UNL     1      39.055  37.807  13.338  1.00  0.00    -0.224 N
ATOM     16  H8  UNL     1      39.129  38.080  14.317  1.00  0.00     0.177 HD
BRANCH  15  17
HETATM   17  C6  UNL     1      38.079  38.411  12.488  1.00  0.00     0.165 C
BRANCH  17  18
HETATM   18  C7  UNL     1      36.837  37.567  12.324  1.00  0.00     0.252 C
BRANCH  18  19
HETATM   19  N9  UNL     1      35.722  38.042  13.087  1.00  0.00    -0.077 N
HETATM   20  C8  UNL     1      35.035  39.044  12.302  1.00  0.00     0.267 C
ATOM     21  H92 UNL     1      35.105  37.289  13.394  1.00  0.00     0.276 HD
ATOM     22  H91 UNL     1      35.992  38.381  14.010  1.00  0.00     0.276 HD
ENDBRANCH  18  19
ENDBRANCH  17  18
ENDBRANCH  15  17
ENDBRANCH  11  15
BRANCH   8  23
HETATM   23  N6  UNL     1      42.721  36.770  10.751  1.00  0.00    -0.232 N
ATOM     24  H62 UNL     1      43.681  36.811  11.092  1.00  0.00     0.174 HD
ATOM     25  H61 UNL     1      42.521  37.032   9.785  1.00  0.00     0.174 HD
ENDBRANCH   8  23
BRANCH   1  26
HETATM   26  N1  UNL     1      39.417  32.863  13.545  1.00  0.00    -0.377 N
HETATM   27  C1  UNL     1      39.462  31.771  14.454  1.00  0.00     0.148 C
ATOM     28  H1  UNL     1      38.508  33.318  13.459  1.00  0.00     0.160 HD
ENDBRANCH   1  26
BRANCH   4  29
HETATM   29  N3  UNL     1      43.037  31.994  10.975  1.00  0.00    -0.233 N
ATOM     30  H32 UNL     1      42.967  31.012  11.242  1.00  0.00     0.174 HD
ATOM     31  H31 UNL     1      43.747  32.286  10.305  1.00  0.00     0.174 HD
ENDBRANCH   4  29
TORSDOF 7
ENDMDL