MODEL 5
REMARK VINA RESULT: -5.402155180      1.084      2.393
REMARK  4 active torsions:
REMARK  status: ('A' for Active; 'I' for Inactive)
REMARK    1  A    between atoms: S1_2  and  N1_5
REMARK       I    between atoms: N1_5  and  C2_7
REMARK    2  A    between atoms: C2_7  and  C3_9
REMARK    3  A    between atoms: C5_14  and  N4_15
REMARK    4  A    between atoms: C6_20  and  N6_21
ROOT
HETATM    1  C3  UNL     1      41.896  41.065  18.635  1.00  0.00     0.118 A
HETATM    2  C4  UNL     1      43.044  40.449  18.157  1.00  0.00     0.151 A
HETATM    3  N2  UNL     1      44.324  41.035  18.412  1.00  0.00    -0.081 NA
HETATM    4  N3  UNL     1      42.953  39.312  17.459  1.00  0.00    -0.178 N
ATOM      5  H3  UNL     1      43.816  38.886  17.121  1.00  0.00     0.185 HD
HETATM    6  C5  UNL     1      41.795  38.698  17.178  1.00  0.00     0.678 A
HETATM    7  N5  UNL     1      40.688  39.284  17.634  1.00  0.00    -0.176 N
ATOM      8  H5  UNL     1      39.788  38.846  17.438  1.00  0.00     0.186 HD
HETATM    9  C6  UNL     1      40.705  40.442  18.350  1.00  0.00     0.134 A
ENDROOT
BRANCH   1  10
HETATM   10  C2  UNL     1      42.042  42.284  19.379  1.00  0.00     0.272 C
HETATM   11  N1  UNL     1      42.337  43.574  18.900  1.00  0.00    -0.250 N
ATOM     12  H1  UNL     1      42.477  43.741  17.904  1.00  0.00     0.181 HD
HETATM   13  O3  UNL     1      41.891  42.224  20.658  1.00  0.00    -0.266 OA
BRANCH  11  14
HETATM   14  S1  UNL     1      42.455  44.884  20.050  1.00  0.00     0.229 S
HETATM   15  C1  UNL     1      42.886  46.400  19.227  1.00  0.00     0.186 C
HETATM   16  O1  UNL     1      43.479  44.524  21.108  1.00  0.00    -0.206 OA
HETATM   17  O2  UNL     1      41.135  45.022  20.738  1.00  0.00    -0.206 OA
ENDBRANCH  11  14
ENDBRANCH   1  10
BRANCH   9  18
HETATM   18  N6  UNL     1      39.594  40.932  18.749  1.00  0.00    -0.384 N
ATOM     19  H62 UNL     1      39.282  41.820  18.355  1.00  0.00     0.157 HD
ATOM     20  H61 UNL     1      39.027  40.450  19.446  1.00  0.00     0.157 HD
ENDBRANCH   9  18
BRANCH   6  21
HETATM   21  N4  UNL     1      41.749  37.587  16.493  1.00  0.00    -0.234 N
ATOM     22  H42 UNL     1      42.341  36.790  16.727  1.00  0.00     0.174 HD
ATOM     23  H41 UNL     1      41.121  37.468  15.699  1.00  0.00     0.174 HD
ENDBRANCH   6  21
TORSDOF 4
ENDMDL