MODEL 3
REMARK VINA RESULT: -5.362132745      1.338      1.499
REMARK  5 active torsions:
REMARK  status: ('A' for Active; 'I' for Inactive)
REMARK    1  A    between atoms: N1_1  and  C1_4
REMARK    2  A    between atoms: C2_7  and  N3_8
REMARK    3  A    between atoms: C6_15  and  N5_16
REMARK       I    between atoms: N5_16  and  C7_18
REMARK    4  A    between atoms: C7_18  and  C8_20
REMARK    5  A    between atoms: C8_20  and  N6_21
ROOT
HETATM    1  C1  UNL     1      41.444  38.942  17.759  1.00  0.00     0.680 A
HETATM    2  N2  UNL     1      42.517  39.686  18.067  1.00  0.00    -0.174 N
ATOM      3  H2  UNL     1      43.441  39.272  17.942  1.00  0.00     0.186 HD
HETATM    4  C2  UNL     1      42.443  40.954  18.537  1.00  0.00     0.153 A
HETATM    5  C6  UNL     1      41.174  41.458  18.684  1.00  0.00     0.149 A
HETATM    6  C9  UNL     1      40.090  40.703  18.371  1.00  0.00     0.290 A
HETATM    7  O2  UNL     1      38.947  41.200  18.521  1.00  0.00    -0.265 OA
HETATM    8  N7  UNL     1      40.193  39.459  17.912  1.00  0.00    -0.154 N
ATOM      9  H7  UNL     1      39.364  38.911  17.683  1.00  0.00     0.187 HD
ENDROOT
BRANCH   5  10
HETATM   10  N5  UNL     1      40.979  42.791  19.155  1.00  0.00    -0.318 N
HETATM   11  C7  UNL     1      40.949  43.848  18.226  1.00  0.00     0.247 C
HETATM   12  O1  UNL     1      41.088  43.614  17.011  1.00  0.00    -0.271 OA
ATOM     13  H5  UNL     1      40.862  42.976  20.152  1.00  0.00     0.169 HD
BRANCH  11  14
HETATM   14  C8  UNL     1      40.753  45.229  18.701  1.00  0.00     0.332 C
BRANCH  14  15
HETATM   15  N6  UNL     1      42.060  45.839  18.868  1.00  0.00    -0.071 N
ATOM     16  H63 UNL     1      42.751  45.193  19.250  1.00  0.00     0.274 HD
ATOM     17  H62 UNL     1      42.525  46.025  17.980  1.00  0.00     0.274 HD
ATOM     18  H61 UNL     1      41.949  46.677  19.438  1.00  0.00     0.274 HD
ENDBRANCH  14  15
ENDBRANCH  11  14
ENDBRANCH   5  10
BRANCH   4  19
HETATM   19  N3  UNL     1      43.597  41.703  18.874  1.00  0.00    -0.340 N
HETATM   20  C3  UNL     1      44.236  41.962  20.149  1.00  0.00     0.154 C
HETATM   21  C4  UNL     1      44.523  43.449  20.033  1.00  0.00     0.254 C
HETATM   22  N4  UNL     1      44.969  43.555  18.657  1.00  0.00    -0.058 N
HETATM   23  C5  UNL     1      44.460  42.431  17.925  1.00  0.00     0.358 C
ATOM     24  H42 UNL     1      44.715  44.447  18.231  1.00  0.00     0.279 HD
ATOM     25  H41 UNL     1      45.981  43.647  18.580  1.00  0.00     0.279 HD
ENDBRANCH   4  19
BRANCH   1  26
HETATM   26  N1  UNL     1      41.534  37.745  17.313  1.00  0.00    -0.234 N
ATOM     27  H12 UNL     1      42.388  37.496  16.813  1.00  0.00     0.174 HD
ATOM     28  H11 UNL     1      40.798  37.051  17.441  1.00  0.00     0.174 HD
ENDBRANCH   1  26
TORSDOF 5
ENDMDL