MODEL 2
REMARK VINA RESULT: -6.463097991      1.903      1.922
REMARK  6 active torsions:
REMARK  status: ('A' for Active; 'I' for Inactive)
REMARK    1  A    between atoms: N1_1  and  C1_4
REMARK    2  A    between atoms: N4_13  and  C5_14
REMARK    3  A    between atoms: C5_14  and  C6_15
REMARK    4  A    between atoms: C6_15  and  N5_16
REMARK    5  A    between atoms: C6_15  and  C7_20
REMARK    6  A    between atoms: C9_26  and  N8_27
ROOT
HETATM    1  C1  UNL     1      41.651  39.292  16.515  1.00  0.00     0.146 C
HETATM    2  N2  UNL     1      42.057  40.083  15.517  1.00  0.00    -0.305 N
ATOM      3  H2  UNL     1      41.987  39.676  14.585  1.00  0.00     0.171 HD
HETATM    4  C2  UNL     1      42.550  41.348  15.559  1.00  0.00     0.277 C
HETATM    5  O1  UNL     1      42.829  41.907  14.479  1.00  0.00    -0.265 OA
HETATM    6  C3  UNL     1      42.795  42.135  16.676  1.00  0.00     0.146 A
HETATM    7  N3  UNL     1      43.492  43.261  16.729  1.00  0.00    -0.345 N
ATOM      8  H3  UNL     1      43.955  43.717  15.943  1.00  0.00     0.167 HD
HETATM    9  C4  UNL     1      43.483  43.702  18.010  1.00  0.00     0.185 A
HETATM   10  N4  UNL     1      42.784  42.862  18.775  1.00  0.00    -0.325 N
HETATM   11  C8  UNL     1      42.340  41.870  17.968  1.00  0.00     0.143 A
HETATM   12  N7  UNL     1      41.591  40.826  18.378  1.00  0.00    -0.324 N
ATOM     13  H7  UNL     1      41.174  40.949  19.301  1.00  0.00     0.169 HD
HETATM   14  C9  UNL     1      41.295  39.662  17.800  1.00  0.00     0.145 C
ENDROOT
BRANCH  10  15
HETATM   15  C5  UNL     1      42.508  42.920  20.173  1.00  0.00     0.173 C
BRANCH  15  16
HETATM   16  C6  UNL     1      41.486  43.958  20.554  1.00  0.00     0.290 C
BRANCH  16  17
HETATM   17  N5  UNL     1      42.032  45.023  21.358  1.00  0.00    -0.065 N
ATOM     18  H53 UNL     1      42.556  44.648  22.148  1.00  0.00     0.275 HD
ATOM     19  H52 UNL     1      42.789  45.499  20.866  1.00  0.00     0.275 HD
ATOM     20  H51 UNL     1      41.328  45.690  21.672  1.00  0.00     0.275 HD
ENDBRANCH  16  17
BRANCH  16  21
HETATM   21  C7  UNL     1      40.414  43.266  21.290  1.00  0.00     0.263 C
HETATM   22  N6  UNL     1      39.116  43.813  21.303  1.00  0.00    -0.060 NA
HETATM   23  O2  UNL     1      40.644  42.206  21.898  1.00  0.00    -0.275 OA
ENDBRANCH  16  21
ENDBRANCH  15  16
ENDBRANCH  10  15
BRANCH  14  24
HETATM   24  N8  UNL     1      40.624  38.818  18.507  1.00  0.00    -0.382 N
ATOM     25  H82 UNL     1      40.470  37.897  18.097  1.00  0.00     0.157 HD
ATOM     26  H81 UNL     1      40.289  39.121  19.421  1.00  0.00     0.157 HD
ENDBRANCH  14  24
BRANCH   1  27
HETATM   27  N1  UNL     1      41.574  38.038  16.280  1.00  0.00    -0.382 N
ATOM     28  H12 UNL     1      41.748  37.776  15.310  1.00  0.00     0.157 HD
ATOM     29  H11 UNL     1      41.349  37.425  17.063  1.00  0.00     0.157 HD
ENDBRANCH   1  27
TORSDOF 6
ENDMDL