MODEL 4
REMARK VINA RESULT: -7.780165483      2.490      7.216
REMARK  13 active torsions:
REMARK  status: ('A' for Active; 'I' for Inactive)
REMARK    1  A    between atoms: N1_1  and  S1_4
REMARK    2  A    between atoms: S1_4  and  N2_7
REMARK    3  A    between atoms: C3_12  and  C4_13
REMARK    4  A    between atoms: C4_13  and  N4_14
REMARK    5  A    between atoms: N4_14  and  C5_16
REMARK    6  A    between atoms: C7_18  and  N5_19
REMARK    7  A    between atoms: C9_21  and  O3_22
REMARK    8  A    between atoms: C10_24  and  O4_25
REMARK    9  A    between atoms: C10_24  and  C11_27
REMARK   10  A    between atoms: C11_27  and  O5_28
REMARK   11  A    between atoms: C13_33  and  N7_34
REMARK   12  A    between atoms: C16_38  and  C17_39
REMARK   13  A    between atoms: C17_39  and  O6_40
ROOT
HETATM    1  C5  UNL     1      -8.263  25.732  34.499  1.00  0.00     0.120 A
HETATM    2  C6  UNL     1      -7.309  24.739  34.543  1.00  0.00     0.097 A
HETATM    3  C7  UNL     1      -7.306  23.693  33.616  1.00  0.00     0.122 A
HETATM    4  N6  UNL     1      -8.260  23.669  32.670  1.00  0.00    -0.176 N
ATOM      5  H6  UNL     1      -8.276  22.915  31.984  1.00  0.00     0.186 HD
HETATM    6  C13 UNL     1      -9.199  24.644  32.627  1.00  0.00     0.686 A
HETATM    7  N10 UNL     1      -9.185  25.643  33.525  1.00  0.00    -0.177 N
ATOM      8  H10 UNL     1      -9.905  26.363  33.467  1.00  0.00     0.186 HD
ENDROOT
BRANCH   1   9
HETATM    9  N4  UNL     1      -8.298  26.709  35.331  1.00  0.00    -0.370 N
ATOM     10  H4  UNL     1      -7.717  27.522  35.124  1.00  0.00     0.161 HD
BRANCH   9  11
HETATM   11  C4  UNL     1      -9.094  26.753  36.536  1.00  0.00     0.181 C
BRANCH  11  12
HETATM   12  C3  UNL     1     -10.051  27.884  36.492  1.00  0.00     0.063 A
HETATM   13  N2  UNL     1     -11.283  27.885  35.971  1.00  0.00    -0.220 N
HETATM   14  C1  UNL     1     -11.808  29.111  36.141  1.00  0.00     0.201 A
HETATM   15  N3  UNL     1     -10.904  29.884  36.772  1.00  0.00    -0.359 N
HETATM   16  C2  UNL     1      -9.811  29.132  36.994  1.00  0.00     0.117 A
ATOM     17  H3  UNL     1     -11.027  30.862  37.034  1.00  0.00     0.166 HD
BRANCH  13  18
HETATM   18  S1  UNL     1     -12.012  26.521  35.223  1.00  0.00     0.324 S
HETATM   19  O1  UNL     1     -11.838  26.656  33.736  1.00  0.00    -0.182 OA
HETATM   20  O2  UNL     1     -11.375  25.240  35.677  1.00  0.00    -0.182 OA
BRANCH  18  21
HETATM   21  N1  UNL     1     -13.699  26.409  35.580  1.00  0.00    -0.311 N
ATOM     22  H12 UNL     1     -14.229  25.538  35.622  1.00  0.00     0.170 HD
ATOM     23  H11 UNL     1     -14.066  27.348  35.737  1.00  0.00     0.170 HD
ENDBRANCH  18  21
ENDBRANCH  13  18
ENDBRANCH  11  12
ENDBRANCH   9  11
ENDBRANCH   1   9
BRANCH   3  24
HETATM   24  N5  UNL     1      -6.334  22.670  33.651  1.00  0.00    -0.361 N
HETATM   25  C8  UNL     1      -5.011  22.797  34.192  1.00  0.00     0.159 C
HETATM   26  C9  UNL     1      -4.801  21.474  34.870  1.00  0.00     0.174 C
HETATM   27  C10 UNL     1      -5.546  20.513  33.982  1.00  0.00     0.122 C
HETATM   28  C12 UNL     1      -6.510  21.335  33.150  1.00  0.00     0.167 C
BRANCH  26  29
HETATM   29  O3  UNL     1      -3.442  21.108  34.913  1.00  0.00    -0.391 OA
ATOM     30  H3  UNL     1      -3.317  20.233  35.261  1.00  0.00     0.210 HD
ENDBRANCH  26  29
BRANCH  27  31
HETATM   31  O4  UNL     1      -4.625  19.859  33.175  1.00  0.00    -0.383 OA
ATOM     32  H4  UNL     1      -4.533  18.966  33.487  1.00  0.00     0.210 HD
ENDBRANCH  27  31
BRANCH  27  33
HETATM   33  C11 UNL     1      -6.334  19.548  34.839  1.00  0.00     0.206 C
BRANCH  33  34
HETATM   34  O5  UNL     1      -6.050  19.695  36.178  1.00  0.00    -0.398 OA
ATOM     35  H5  UNL     1      -5.336  19.132  36.455  1.00  0.00     0.209 HD
ENDBRANCH  33  34
ENDBRANCH  27  33
ENDBRANCH   3  24
BRANCH   6  36
HETATM   36  N7  UNL     1     -10.180  24.569  31.610  1.00  0.00    -0.176 N
HETATM   37  C14 UNL     1     -11.331  24.051  31.859  1.00  0.00     0.123 A
HETATM   38  C15 UNL     1     -12.243  24.014  30.804  1.00  0.00     0.076 A
HETATM   39  N9  UNL     1     -11.680  23.558  33.062  1.00  0.00    -0.338 N
HETATM   40  C16 UNL     1     -13.496  23.481  30.970  1.00  0.00     0.037 A
HETATM   41  N8  UNL     1     -13.802  22.999  32.190  1.00  0.00    -0.354 N
HETATM   42  C18 UNL     1     -12.907  23.040  33.210  1.00  0.00     0.182 A
ATOM     43  H8  UNL     1     -14.725  22.596  32.352  1.00  0.00     0.166 HD
ATOM     44  H9  UNL     1     -11.025  23.578  33.844  1.00  0.00     0.168 HD
ATOM     45  H7  UNL     1      -9.975  24.927  30.677  1.00  0.00     0.186 HD
BRANCH  40  46
HETATM   46  C17 UNL     1     -14.501  23.421  29.875  1.00  0.00     0.221 C
BRANCH  46  47
HETATM   47  O6  UNL     1     -13.829  23.370  28.646  1.00  0.00    -0.395 OA
ATOM     48  H6  UNL     1     -14.104  22.591  28.178  1.00  0.00     0.209 HD
ENDBRANCH  46  47
ENDBRANCH  40  46
ENDBRANCH   6  36
TORSDOF 13
ENDMDL