MODEL 4
REMARK VINA RESULT: -9.353543856      2.894      5.191
REMARK  10 active torsions:
REMARK  status: ('A' for Active; 'I' for Inactive)
REMARK    1  A    between atoms: N1_2  and  C2_3
REMARK    2  A    between atoms: N1_2  and  C16_37
REMARK    3  A    between atoms: C4_9  and  N4_10
REMARK    4  A    between atoms: N4_10  and  C5_12
REMARK    5  A    between atoms: C8_15  and  O1_16
REMARK    6  A    between atoms: O1_16  and  N5_17
REMARK    7  A    between atoms: C9_19  and  C10_20
REMARK    8  A    between atoms: C14_26  and  S1_27
REMARK    9  A    between atoms: S1_27  and  N7_28
REMARK   10  A    between atoms: C17_40  and  N10_41
ROOT
HETATM    1  C2  UNL     1      -5.195  19.091  35.207  1.00  0.00     0.714 A
HETATM    2  N2  UNL     1      -4.363  18.402  35.977  1.00  0.00    -0.186 N
ATOM      3  H2  UNL     1      -4.613  17.444  36.223  1.00  0.00     0.185 HD
HETATM    4  C3  UNL     1      -3.221  18.894  36.444  1.00  0.00     0.215 A
HETATM    5  N3  UNL     1      -2.875  20.160  36.129  1.00  0.00    -0.187 N
ATOM      6  H3  UNL     1      -2.003  20.559  36.477  1.00  0.00     0.185 HD
HETATM    7  C4  UNL     1      -3.694  20.889  35.351  1.00  0.00     0.694 A
HETATM    8  N8  UNL     1      -4.837  20.356  34.899  1.00  0.00    -0.021 N
ATOM      9  H8  UNL     1      -5.450  20.917  34.309  1.00  0.00     0.203 HD
ENDROOT
BRANCH   7  10
HETATM   10  N4  UNL     1      -3.388  22.129  35.036  1.00  0.00    -0.214 N
ATOM     11  H4  UNL     1      -2.825  22.700  35.667  1.00  0.00     0.178 HD
BRANCH  10  12
HETATM   12  C5  UNL     1      -3.856  22.661  33.797  1.00  0.00     0.172 C
HETATM   13  C6  UNL     1      -3.070  23.922  33.492  1.00  0.00     0.036 C
HETATM   14  C7  UNL     1      -3.710  25.001  34.325  1.00  0.00     0.045 C
HETATM   15  C8  UNL     1      -5.101  24.515  34.686  1.00  0.00     0.223 C
HETATM   16  C15 UNL     1      -5.211  23.217  34.018  1.00  0.00     0.181 C
HETATM   17  O4  UNL     1      -6.239  22.664  33.687  1.00  0.00    -0.293 OA
BRANCH  15  18
HETATM   18  O1  UNL     1      -6.074  25.449  34.205  1.00  0.00    -0.268 OA
BRANCH  18  19
HETATM   19  N5  UNL     1      -7.220  25.635  34.901  1.00  0.00    -0.276 N
HETATM   20  C9  UNL     1      -8.407  25.357  34.456  1.00  0.00     0.127 C
ATOM     21  H5  UNL     1      -7.146  26.020  35.842  1.00  0.00     0.193 HD
BRANCH  20  22
HETATM   22  C10 UNL     1      -9.544  25.618  35.334  1.00  0.00     0.007 A
HETATM   23  C11 UNL     1      -9.455  26.547  36.343  1.00  0.00     0.031 A
HETATM   24  C12 UNL     1     -10.510  26.814  37.185  1.00  0.00     0.088 A
HETATM   25  N6  UNL     1     -11.654  26.146  37.010  1.00  0.00    -0.374 N
HETATM   26  C13 UNL     1     -11.796  25.229  36.040  1.00  0.00     0.113 A
ATOM     27  H6  UNL     1     -12.440  26.338  37.629  1.00  0.00     0.164 HD
HETATM   28  C14 UNL     1     -10.735  24.943  35.175  1.00  0.00     0.106 A
BRANCH  28  29
HETATM   29  S1  UNL     1     -10.916  23.748  33.905  1.00  0.00     0.259 S
HETATM   30  O2  UNL     1     -12.017  22.802  34.301  1.00  0.00    -0.201 OA
HETATM   31  O3  UNL     1      -9.667  22.937  33.774  1.00  0.00    -0.201 OA
BRANCH  29  32
HETATM   32  N7  UNL     1     -11.320  24.452  32.398  1.00  0.00    -0.324 N
ATOM     33  H72 UNL     1     -12.121  25.069  32.271  1.00  0.00     0.169 HD
ATOM     34  H71 UNL     1     -10.673  24.183  31.657  1.00  0.00     0.169 HD
ENDBRANCH  29  32
ENDBRANCH  28  29
ENDBRANCH  20  22
ENDBRANCH  18  19
ENDBRANCH  15  18
ENDBRANCH  10  12
ENDBRANCH   7  10
BRANCH   1  35
HETATM   35  N1  UNL     1      -6.394  18.531  34.748  1.00  0.00    -0.017 N
HETATM   36  C1  UNL     1      -6.576  17.101  35.125  1.00  0.00     0.195 C
BRANCH  35  37
HETATM   37  C16 UNL     1      -7.419  19.105  33.993  1.00  0.00     0.727 A
HETATM   38  N9  UNL     1      -8.670  19.261  34.561  1.00  0.00    -0.021 N
HETATM   39  C17 UNL     1      -9.711  19.781  33.950  1.00  0.00     0.705 A
ATOM     40  H9  UNL     1      -8.794  18.950  35.524  1.00  0.00     0.203 HD
HETATM   41  N11 UNL     1      -9.569  20.195  32.684  1.00  0.00    -0.022 N
HETATM   42  C18 UNL     1      -8.396  20.086  32.048  1.00  0.00     0.705 A
ATOM     43  H11 UNL     1     -10.368  20.599  32.197  1.00  0.00     0.203 HD
HETATM   44  N12 UNL     1      -8.232  20.476  30.831  1.00  0.00    -0.234 N
HETATM   45  N13 UNL     1      -7.341  19.535  32.734  1.00  0.00    -0.021 N
ATOM     46 2H12 UNL     1      -9.015  20.885  30.321  1.00  0.00     0.174 HD
ATOM     47 1H12 UNL     1      -7.338  20.393  30.346  1.00  0.00     0.174 HD
ATOM     48  H13 UNL     1      -6.446  19.451  32.251  1.00  0.00     0.203 HD
BRANCH  39  49
HETATM   49  N10 UNL     1     -10.880  19.915  34.504  1.00  0.00    -0.234 N
ATOM     50 2H10 UNL     1     -11.007  19.537  35.443  1.00  0.00     0.174 HD
ATOM     51 1H10 UNL     1     -11.669  20.379  34.055  1.00  0.00     0.174 HD
ENDBRANCH  39  49
ENDBRANCH  35  37
ENDBRANCH   1  35
TORSDOF 10
ENDMDL