MODEL 1
REMARK VINA RESULT: -8.930998763      0.000      0.000
REMARK  11 active torsions:
REMARK  status: ('A' for Active; 'I' for Inactive)
REMARK    1  A    between atoms: N2_5  and  C3_6
REMARK    2  A    between atoms: C4_7  and  O1_8
REMARK    3  A    between atoms: C6_11  and  S1_12
REMARK    4  A    between atoms: S1_12  and  N3_13
REMARK    5  A    between atoms: S1_12  and  N4_17
REMARK    6  A    between atoms: N4_17  and  C7_19
REMARK    7  A    between atoms: C7_19  and  C8_20
REMARK    8  A    between atoms: C10_22  and  O3_23
REMARK    9  A    between atoms: C10_22  and  C11_25
REMARK   10  A    between atoms: C16_34  and  N7_35
REMARK   11  A    between atoms: C18_42  and  N9_43
ROOT
HETATM    1  C3  UNL     1     -10.012  26.669  35.625  1.00  0.00     0.127 A
HETATM    2  C4  UNL     1      -8.791  26.753  36.259  1.00  0.00     0.098 A
HETATM    3  C5  UNL     1      -7.682  26.013  35.819  1.00  0.00     0.062 A
HETATM    4  C6  UNL     1      -7.868  25.218  34.750  1.00  0.00     0.063 A
HETATM    5  C15 UNL     1      -9.027  25.088  34.086  1.00  0.00     0.062 A
HETATM    6  C16 UNL     1     -10.127  25.833  34.537  1.00  0.00     0.136 A
ENDROOT
BRANCH   4   7
HETATM    7  S1  UNL     1      -6.333  24.184  34.065  1.00  0.00     0.133 S
HETATM    8  O2  UNL     1      -4.975  23.804  35.069  1.00  0.00    -0.224 OA
BRANCH   7   9
HETATM    9  N3  UNL     1      -5.578  25.690  33.516  1.00  0.00    -0.341 N
ATOM     10  H32 UNL     1      -5.705  26.677  33.739  1.00  0.00     0.167 HD
ATOM     11  H31 UNL     1      -4.976  25.153  32.893  1.00  0.00     0.167 HD
ENDBRANCH   7   9
BRANCH   7  12
HETATM   12  N4  UNL     1      -6.518  23.535  32.325  1.00  0.00    -0.330 N
ATOM     13  H4  UNL     1      -6.079  23.941  31.498  1.00  0.00     0.170 HD
BRANCH  12  14
HETATM   14  C7  UNL     1      -7.356  22.397  32.324  1.00  0.00     0.166 C
BRANCH  14  15
HETATM   15  C8  UNL     1      -7.042  21.497  33.521  1.00  0.00     0.245 C
HETATM   16  C9  UNL     1      -5.674  20.925  33.438  1.00  0.00     0.093 C
HETATM   17  C10 UNL     1      -5.562  19.467  33.746  1.00  0.00     0.200 C
HETATM   18  C12 UNL     1      -6.754  18.685  33.342  1.00  0.00     0.198 C
HETATM   19  O5  UNL     1      -6.834  17.475  33.395  1.00  0.00    -0.292 OA
HETATM   20  C13 UNL     1      -7.937  19.434  32.839  1.00  0.00     0.354 C
HETATM   21  N6  UNL     1      -8.090  20.559  33.737  1.00  0.00     0.097 N
HETATM   22  C14 UNL     1      -9.370  21.183  33.647  1.00  0.00     0.310 C
BRANCH  17  23
HETATM   23  O3  UNL     1      -4.466  18.897  33.100  1.00  0.00    -0.373 OA
ATOM     24  H3  UNL     1      -4.158  18.125  33.561  1.00  0.00     0.211 HD
ENDBRANCH  17  23
BRANCH  17  25
HETATM   25  C11 UNL     1      -5.373  19.251  35.202  1.00  0.00     0.273 C
HETATM   26  N5  UNL     1      -4.092  18.979  35.748  1.00  0.00    -0.059 NA
HETATM   27  O4  UNL     1      -6.360  19.306  35.981  1.00  0.00    -0.273 OA
ENDBRANCH  17  25
ENDBRANCH  14  15
ENDBRANCH  12  14
ENDBRANCH   7  12
ENDBRANCH   4   7
BRANCH   2  28
HETATM   28  O1  UNL     1      -8.660  27.588  37.352  1.00  0.00    -0.358 OA
ATOM     29  H1  UNL     1      -7.834  27.607  37.821  1.00  0.00     0.217 HD
ENDBRANCH   2  28
BRANCH   6  30
HETATM   30  N7  UNL     1     -11.375  25.738  33.882  1.00  0.00    -0.113 N
HETATM   31  O6  UNL     1     -12.051  24.696  33.958  1.00  0.00    -0.532 OA
HETATM   32  O7  UNL     1     -11.873  26.780  33.154  1.00  0.00    -0.532 OA
ENDBRANCH   6  30
BRANCH   1  33
HETATM   33  N2  UNL     1     -11.071  27.459  36.149  1.00  0.00    -0.200 N
HETATM   34  N1  UNL     1     -11.248  28.721  35.777  1.00  0.00    -0.290 N
HETATM   35  C2  UNL     1     -12.231  29.469  36.267  1.00  0.00     0.066 A
ATOM     36  H1  UNL     1     -10.610  29.129  35.094  1.00  0.00     0.187 HD
HETATM   37  C1  UNL     1     -12.445  30.899  35.856  1.00  0.00     0.074 C
HETATM   38  C18 UNL     1     -13.083  28.896  37.188  1.00  0.00     0.127 A
HETATM   39  N8  UNL     1     -12.907  27.624  37.565  1.00  0.00    -0.292 N
HETATM   40  C17 UNL     1     -11.916  26.910  37.055  1.00  0.00     0.347 A
ATOM     41  H8  UNL     1     -13.539  27.204  38.246  1.00  0.00     0.172 HD
HETATM   42  O8  UNL     1     -11.704  25.693  37.380  1.00  0.00    -0.245 OA
BRANCH  38  43
HETATM   43  N9  UNL     1     -14.078  29.556  37.722  1.00  0.00    -0.384 N
ATOM     44  H92 UNL     1     -13.880  30.475  38.119  1.00  0.00     0.157 HD
ATOM     45  H91 UNL     1     -15.026  29.180  37.750  1.00  0.00     0.157 HD
ENDBRANCH  38  43
ENDBRANCH   1  33
TORSDOF 11
ENDMDL