MODEL 2
REMARK VINA RESULT: -10.073490154      1.607      2.180
REMARK  9 active torsions:
REMARK  status: ('A' for Active; 'I' for Inactive)
REMARK    1  A    between atoms: N1_1  and  C1_4
REMARK    2  A    between atoms: C6_12  and  C7_13
REMARK    3  A    between atoms: C7_13  and  C8_14
REMARK    4  A    between atoms: C8_14  and  C9_16
REMARK       I    between atoms: C9_16  and  N3_18
REMARK    5  A    between atoms: C12_21  and  N4_22
REMARK    6  A    between atoms: N4_22  and  C13_25
REMARK    7  A    between atoms: C13_25  and  C14_26
REMARK    8  A    between atoms: N8_33  and  C15_34
REMARK    9  A    between atoms: C16_40  and  N11_41
ROOT
HETATM    1  C9  UNL     1      -9.843  22.987  31.955  1.00  0.00     0.297 C
HETATM    2  O3  UNL     1     -10.482  22.146  31.249  1.00  0.00    -0.264 OA
HETATM    3  N3  UNL     1      -8.475  22.810  32.170  1.00  0.00    -0.263 N
HETATM    4  C10 UNL     1      -7.700  23.716  32.972  1.00  0.00     0.141 C
HETATM    5  C11 UNL     1      -6.238  23.427  33.049  1.00  0.00     0.075 C
HETATM    6  C12 UNL     1      -5.848  21.983  32.919  1.00  0.00     0.289 C
HETATM    7  N12 UNL     1      -6.429  21.479  31.694  1.00  0.00    -0.314 N
ATOM      8  H12 UNL     1      -5.867  21.016  30.979  1.00  0.00     0.166 HD
HETATM    9  C17 UNL     1      -7.830  21.666  31.547  1.00  0.00     0.327 C
HETATM   10  O5  UNL     1      -8.552  20.883  30.894  1.00  0.00    -0.247 OA
ENDROOT
BRANCH   6  11
HETATM   11  N4  UNL     1      -6.335  21.166  34.003  1.00  0.00    -0.047 N
ATOM     12  H42 UNL     1      -6.465  21.718  34.851  1.00  0.00     0.280 HD
ATOM     13  H41 UNL     1      -7.300  20.881  33.844  1.00  0.00     0.280 HD
BRANCH  11  14
HETATM   14  C13 UNL     1      -5.493  20.029  34.250  1.00  0.00     0.314 C
BRANCH  14  15
HETATM   15  C14 UNL     1      -4.253  20.310  34.973  1.00  0.00     0.148 A
HETATM   16  N5  UNL     1      -3.362  21.294  34.883  1.00  0.00    -0.270 N
HETATM   17  N6  UNL     1      -2.399  21.106  35.761  1.00  0.00    -0.226 N
ATOM     18  H5  UNL     1      -3.418  22.076  34.231  1.00  0.00     0.190 HD
HETATM   19  N7  UNL     1      -2.669  20.003  36.416  1.00  0.00    -0.218 N
ATOM     20  H6  UNL     1      -1.589  21.709  35.905  1.00  0.00     0.210 HD
HETATM   21  N8  UNL     1      -3.780  19.497  35.967  1.00  0.00    -0.203 N
ATOM     22  H7  UNL     1      -2.097  19.605  37.160  1.00  0.00     0.210 HD
BRANCH  21  23
HETATM   23  C15 UNL     1      -4.413  18.306  36.418  1.00  0.00     0.197 A
HETATM   24  N9  UNL     1      -5.042  18.039  37.582  1.00  0.00    -0.220 N
HETATM   25  O4  UNL     1      -5.472  16.808  37.558  1.00  0.00    -0.153 OA
ATOM     26  H9  UNL     1      -5.161  18.694  38.356  1.00  0.00     0.198 HD
HETATM   27  N10 UNL     1      -5.168  16.226  36.442  1.00  0.00    -0.222 N
HETATM   28  C16 UNL     1      -4.506  17.130  35.705  1.00  0.00     0.169 A
ATOM     29  H10 UNL     1      -5.389  15.266  36.175  1.00  0.00     0.198 HD
BRANCH  28  30
HETATM   30  N11 UNL     1      -4.030  16.937  34.515  1.00  0.00    -0.381 N
ATOM     31 2H11 UNL     1      -3.903  17.652  33.799  1.00  0.00     0.157 HD
ATOM     32 1H11 UNL     1      -3.721  16.038  34.143  1.00  0.00     0.157 HD
ENDBRANCH  28  30
ENDBRANCH  21  23
ENDBRANCH  14  15
ENDBRANCH  11  14
ENDBRANCH   6  11
BRANCH   1  33
HETATM   33  C8  UNL     1     -10.607  24.081  32.485  1.00  0.00     0.221 C
HETATM   34  O2  UNL     1     -10.585  25.204  31.928  1.00  0.00    -0.287 OA
BRANCH  33  35
HETATM   35  C7  UNL     1     -11.458  23.926  33.713  1.00  0.00     0.127 C
BRANCH  35  36
HETATM   36  C6  UNL     1     -11.010  24.911  34.718  1.00  0.00    -0.049 A
HETATM   37  C5  UNL     1      -9.681  25.107  35.023  1.00  0.00     0.009 A
HETATM   38  C4  UNL     1      -9.319  26.022  35.962  1.00  0.00     0.020 A
HETATM   39  C3  UNL     1     -10.311  26.762  36.612  1.00  0.00     0.060 A
HETATM   40  C2  UNL     1     -10.008  27.699  37.568  1.00  0.00     0.272 A
HETATM   41  C19 UNL     1     -11.652  26.555  36.295  1.00  0.00     0.065 A
HETATM   42  N2  UNL     1     -10.943  28.424  38.212  1.00  0.00    -0.156 N
HETATM   43  O1  UNL     1      -8.794  27.885  37.853  1.00  0.00    -0.267 OA
HETATM   44  C1  UNL     1     -12.228  28.199  37.880  1.00  0.00     0.679 A
ATOM     45  H2  UNL     1     -10.688  29.114  38.919  1.00  0.00     0.187 HD
HETATM   46  N13 UNL     1     -12.573  27.294  36.952  1.00  0.00    -0.191 N
ATOM     47  H13 UNL     1     -13.560  27.158  36.737  1.00  0.00     0.184 HD
HETATM   48  C18 UNL     1     -12.022  25.631  35.348  1.00  0.00     0.038 A
BRANCH  44  49
HETATM   49  N1  UNL     1     -13.146  28.895  38.497  1.00  0.00    -0.234 N
ATOM     50  H12 UNL     1     -12.949  29.845  38.811  1.00  0.00     0.174 HD
ATOM     51  H11 UNL     1     -14.055  28.455  38.647  1.00  0.00     0.174 HD
ENDBRANCH  44  49
ENDBRANCH  35  36
ENDBRANCH  33  35
ENDBRANCH   1  33
TORSDOF 9
ENDMDL