MODEL 2
REMARK VINA RESULT: -8.313354366      3.819      5.600
REMARK  9 active torsions:
REMARK  status: ('A' for Active; 'I' for Inactive)
REMARK    1  A    between atoms: C2_5  and  C3_6
REMARK    2  A    between atoms: C3_6  and  C4_7
REMARK    3  A    between atoms: C4_7  and  S1_8
REMARK    4  A    between atoms: S1_8  and  C5_9
REMARK    5  A    between atoms: C5_9  and  C6_10
REMARK    6  A    between atoms: C6_10  and  C7_11
REMARK    7  A    between atoms: N7_24  and  N8_26
REMARK       I    between atoms: N8_26  and  C10_28
REMARK    8  A    between atoms: C10_28  and  C11_30
REMARK    9  A    between atoms: C14_36  and  N9_37
ROOT
HETATM    1  C1  UNL     1      -3.113  23.875  34.292  1.00  0.00     0.180 C
HETATM    2  N1  UNL     1      -3.834  22.575  34.286  1.00  0.00    -0.273 N
HETATM    3  N2  UNL     1      -3.448  21.602  35.001  1.00  0.00    -0.294 N
ATOM      4  H2  UNL     1      -2.627  21.704  35.598  1.00  0.00     0.187 HD
HETATM    5  C2  UNL     1      -4.106  20.452  34.977  1.00  0.00     0.070 A
HETATM    6  S2  UNL     1      -5.349  20.800  33.858  1.00  0.00    -0.036 SA
HETATM    7  C9  UNL     1      -4.916  22.416  33.508  1.00  0.00     0.181 A
HETATM    8  N7  UNL     1      -5.456  23.301  32.709  1.00  0.00    -0.276 N
ATOM      9  H7  UNL     1      -5.076  24.242  32.605  1.00  0.00     0.189 HD
ENDROOT
BRANCH   8  10
HETATM   10  N8  UNL     1      -6.597  22.869  32.001  1.00  0.00    -0.266 N
HETATM   11  C10 UNL     1      -7.830  23.464  32.339  1.00  0.00     0.260 C
HETATM   12  O1  UNL     1      -7.911  24.347  33.235  1.00  0.00    -0.269 OA
ATOM     13  H8  UNL     1      -6.533  22.156  31.275  1.00  0.00     0.190 HD
BRANCH  11  14
HETATM   14  C11 UNL     1      -9.061  23.030  31.615  1.00  0.00     0.211 C
HETATM   15  C12 UNL     1      -9.200  21.526  31.575  1.00  0.00     0.178 C
HETATM   16  S3  UNL     1     -10.581  21.236  32.648  1.00  0.00     0.172 S
HETATM   17  O2  UNL     1     -11.805  20.990  31.829  1.00  0.00    -0.226 OA
HETATM   18  O3  UNL     1     -10.321  20.213  33.679  1.00  0.00    -0.226 OA
HETATM   19  C13 UNL     1     -10.630  22.897  33.362  1.00  0.00     0.276 C
HETATM   20  C14 UNL     1     -12.025  23.307  33.659  1.00  0.00     0.335 C
HETATM   21  N12 UNL     1     -10.194  23.635  32.217  1.00  0.00    -0.182 N
HETATM   22  N10 UNL     1     -12.229  24.520  32.923  1.00  0.00    -0.194 N
HETATM   23  C15 UNL     1     -11.091  24.741  32.110  1.00  0.00     0.673 C
ATOM     24  H10 UNL     1     -13.052  25.121  32.976  1.00  0.00     0.180 HD
HETATM   25  N11 UNL     1     -10.923  25.809  31.386  1.00  0.00    -0.235 N
ATOM     26 2H11 UNL     1     -11.564  26.598  31.311  1.00  0.00     0.174 HD
ATOM     27 1H11 UNL     1     -10.103  25.967  30.801  1.00  0.00     0.174 HD
BRANCH  20  28
HETATM   28  N9  UNL     1     -12.093  23.667  35.076  1.00  0.00    -0.055 N
ATOM     29  H93 UNL     1     -13.049  23.712  35.427  1.00  0.00     0.276 HD
ATOM     30  H92 UNL     1     -11.757  22.924  35.690  1.00  0.00     0.276 HD
ATOM     31  H91 UNL     1     -11.584  24.542  35.199  1.00  0.00     0.276 HD
ENDBRANCH  20  28
ENDBRANCH  11  14
ENDBRANCH   8  10
BRANCH   5  32
HETATM   32  C3  UNL     1      -3.827  19.186  35.737  1.00  0.00     0.076 C
BRANCH  32  33
HETATM   33  C4  UNL     1      -5.134  18.525  36.168  1.00  0.00     0.080 C
BRANCH  33  34
HETATM   34  S1  UNL     1      -4.972  16.797  36.469  1.00  0.00    -0.168 SA
BRANCH  34  35
HETATM   35  C5  UNL     1      -4.322  15.751  35.226  1.00  0.00     0.081 C
BRANCH  35  36
HETATM   36  C6  UNL     1      -5.270  15.236  34.218  1.00  0.00     0.088 C
BRANCH  36  37
HETATM   37  C7  UNL     1      -6.139  16.188  33.539  1.00  0.00     0.113 A
HETATM   38  N3  UNL     1      -5.811  17.215  32.714  1.00  0.00    -0.274 N
HETATM   39  N4  UNL     1      -6.919  17.838  32.310  1.00  0.00    -0.131 N
ATOM     40  H3  UNL     1      -4.862  17.470  32.443  1.00  0.00     0.189 HD
HETATM   41  C8  UNL     1      -7.966  17.223  32.867  1.00  0.00     0.691 A
ATOM     42  H4  UNL     1      -6.959  18.643  31.685  1.00  0.00     0.205 HD
HETATM   43  N5  UNL     1      -9.216  17.586  32.676  1.00  0.00    -0.233 N
HETATM   44  N6  UNL     1      -7.501  16.232  33.607  1.00  0.00    -0.178 N
ATOM     45  H52 UNL     1      -9.575  18.351  32.105  1.00  0.00     0.174 HD
ATOM     46  H51 UNL     1     -10.015  17.116  33.101  1.00  0.00     0.174 HD
ATOM     47  H6  UNL     1      -8.078  15.590  34.152  1.00  0.00     0.185 HD
ENDBRANCH  36  37
ENDBRANCH  35  36
ENDBRANCH  34  35
ENDBRANCH  33  34
ENDBRANCH  32  33
ENDBRANCH   5  32
TORSDOF 9
ENDMDL