MODEL 1
REMARK VINA RESULT: -9.198776999      0.000      0.000
REMARK  13 active torsions:
REMARK  status: ('A' for Active; 'I' for Inactive)
REMARK    1  A    between atoms: C4_4  and  O1_5
REMARK    2  A    between atoms: C5_7  and  C6_8
REMARK    3  A    between atoms: C6_8  and  C7_9
REMARK    4  A    between atoms: C7_9  and  N1_10
REMARK    5  A    between atoms: N1_10  and  C8_12
REMARK    6  A    between atoms: C8_12  and  O2_13
REMARK    7  A    between atoms: C8_12  and  N2_15
REMARK    8  A    between atoms: C9_17  and  O3_18
REMARK    9  A    between atoms: C9_17  and  C10_20
REMARK   10  A    between atoms: C10_20  and  O4_21
REMARK       I    between atoms: N5_28  and  C13_29
REMARK   11  A    between atoms: C13_29  and  C14_31
REMARK   12  A    between atoms: C14_31  and  N6_32
REMARK   13  A    between atoms: C17_38  and  O7_39
ROOT
HETATM    1  C10 UNL     1      -5.338  18.988  35.321  1.00  0.00     0.223 C
HETATM    2  C11 UNL     1      -4.357  18.184  36.199  1.00  0.00     0.205 C
HETATM    3  N3  UNL     1      -5.170  17.370  37.069  1.00  0.00    -0.135 NA
HETATM    4  N4  UNL     1      -5.630  16.250  36.356  1.00  0.00    -0.299 N
ATOM      5  H4  UNL     1      -5.410  15.282  36.590  1.00  0.00     0.183 HD
HETATM    6  C12 UNL     1      -6.459  16.660  35.243  1.00  0.00     0.202 C
HETATM    7  N5  UNL     1      -6.323  17.999  34.816  1.00  0.00    -0.270 N
HETATM    8  C13 UNL     1      -7.175  18.507  33.807  1.00  0.00     0.247 C
HETATM    9  O5  UNL     1      -7.078  19.754  33.472  1.00  0.00    -0.271 OA
ENDROOT
BRANCH   1  10
HETATM   10  C9  UNL     1      -4.633  19.564  34.188  1.00  0.00     0.178 C
HETATM   11  N2  UNL     1      -4.165  20.769  33.761  1.00  0.00    -0.302 N
ATOM     12  H2  UNL     1      -3.769  20.681  32.825  1.00  0.00     0.171 HD
BRANCH  11  13
HETATM   13  C8  UNL     1      -4.060  22.079  34.203  1.00  0.00     0.218 C
BRANCH  13  14
HETATM   14  N1  UNL     1      -4.580  23.246  33.674  1.00  0.00    -0.356 N
ATOM     15  H1  UNL     1      -4.451  23.475  32.688  1.00  0.00     0.163 HD
BRANCH  14  16
HETATM   16  C7  UNL     1      -5.334  24.161  34.578  1.00  0.00     0.128 C
BRANCH  16  17
HETATM   17  C6  UNL     1      -6.175  25.059  33.725  1.00  0.00     0.067 C
BRANCH  17  18
HETATM   18  C5  UNL     1      -7.612  24.714  33.919  1.00  0.00     0.052 A
HETATM   19  C4  UNL     1      -8.358  25.432  34.810  1.00  0.00     0.080 A
HETATM   20  C3  UNL     1      -9.687  25.102  34.959  1.00  0.00     0.069 A
HETATM   21  C2  UNL     1     -10.166  24.049  34.176  1.00  0.00     0.056 A
HETATM   22  C1  UNL     1     -11.578  23.640  34.280  1.00  0.00     0.077 C
HETATM   23  O9  UNL     1      -9.391  23.397  33.334  1.00  0.00    -0.280 OA
HETATM   24  C20 UNL     1      -8.122  23.668  33.154  1.00  0.00     0.297 A
HETATM   25  O8  UNL     1      -7.382  23.054  32.358  1.00  0.00    -0.259 OA
BRANCH  19  26
HETATM   26  O1  UNL     1      -7.784  26.457  35.538  1.00  0.00    -0.360 OA
ATOM     27  H1  UNL     1      -8.235  27.282  35.674  1.00  0.00     0.217 HD
ENDBRANCH  19  26
ENDBRANCH  17  18
ENDBRANCH  16  17
ENDBRANCH  14  16
ENDBRANCH  13  14
BRANCH  13  28
HETATM   28  O2  UNL     1      -3.355  22.266  35.308  1.00  0.00    -0.332 OA
ATOM     29  H2  UNL     1      -3.414  21.545  35.923  1.00  0.00     0.220 HD
ENDBRANCH  13  28
ENDBRANCH  11  13
BRANCH  10  30
HETATM   30  O3  UNL     1      -4.363  18.583  33.277  1.00  0.00    -0.345 OA
ATOM     31  H3  UNL     1      -3.528  18.167  33.461  1.00  0.00     0.219 HD
ENDBRANCH  10  30
ENDBRANCH   1  10
BRANCH   1  32
HETATM   32  O4  UNL     1      -5.980  19.830  36.158  1.00  0.00    -0.362 OA
ATOM     33  H4  UNL     1      -5.759  19.794  37.081  1.00  0.00     0.213 HD
ENDBRANCH   1  32
BRANCH   8  34
HETATM   34  C14 UNL     1      -8.214  17.800  33.029  1.00  0.00     0.252 C
BRANCH  34  35
HETATM   35  N6  UNL     1      -9.403  18.613  32.980  1.00  0.00    -0.285 N
HETATM   36  N7  UNL     1     -10.107  18.728  34.134  1.00  0.00    -0.305 N
HETATM   37  C15 UNL     1     -11.256  19.391  34.227  1.00  0.00     0.165 A
ATOM     38  H7  UNL     1      -9.735  18.283  34.974  1.00  0.00     0.186 HD
HETATM   39  C16 UNL     1     -11.761  19.992  33.099  1.00  0.00     0.223 A
HETATM   40  O6  UNL     1     -12.845  20.628  33.149  1.00  0.00    -0.284 OA
HETATM   41  C17 UNL     1     -11.099  19.918  31.891  1.00  0.00     0.141 A
HETATM   42  C18 UNL     1      -9.892  19.198  31.892  1.00  0.00     0.062 A
HETATM   43  C19 UNL     1      -9.157  19.178  30.621  1.00  0.00     0.073 C
BRANCH  41  44
HETATM   44  O7  UNL     1     -11.556  20.500  30.727  1.00  0.00    -0.355 OA
ATOM     45  H7  UNL     1     -12.098  20.052  30.088  1.00  0.00     0.218 HD
ENDBRANCH  41  44
ENDBRANCH  34  35
ENDBRANCH   8  34
TORSDOF 13
ENDMDL