MODEL 1
REMARK VINA RESULT: -7.595078263      0.000      0.000
REMARK  13 active torsions:
REMARK  status: ('A' for Active; 'I' for Inactive)
REMARK    1  A    between atoms: N1_1  and  C1_4
REMARK    2  A    between atoms: C1_4  and  N2_5
REMARK    3  A    between atoms: N2_5  and  N3_7
REMARK    4  A    between atoms: C2_9  and  C3_10
REMARK    5  A    between atoms: C2_9  and  C4_17
REMARK       I    between atoms: C3_10  and  N4_12
REMARK    6  A    between atoms: N4_12  and  N5_14
REMARK    7  A    between atoms: C5_19  and  C6_20
REMARK    8  A    between atoms: C6_20  and  O3_21
REMARK    9  A    between atoms: C8_24  and  N6_25
REMARK   10  A    between atoms: C8_24  and  N10_39
REMARK   11  A    between atoms: N7_28  and  C11_29
REMARK   12  A    between atoms: C11_29  and  C12_30
REMARK   13  A    between atoms: C19_44  and  N12_45
ROOT
HETATM    1  C4  UNL     1     -11.202  23.444  33.144  1.00  0.00     0.130 C
HETATM    2  O2  UNL     1     -11.852  24.162  32.156  1.00  0.00    -0.341 OA
HETATM    3  C5  UNL     1     -10.923  24.987  31.564  1.00  0.00     0.156 C
HETATM    4  C7  UNL     1      -9.639  24.258  31.680  1.00  0.00     0.096 C
HETATM    5  C8  UNL     1      -9.758  23.497  33.058  1.00  0.00     0.169 C
ENDROOT
BRANCH   5   6
HETATM    6  N6  UNL     1      -8.933  22.395  32.834  1.00  0.00    -0.358 N
HETATM    7  C9  UNL     1      -8.606  21.425  33.769  1.00  0.00     0.080 C
HETATM    8  C10 UNL     1      -7.431  20.572  33.316  1.00  0.00     0.161 C
HETATM    9  N7  UNL     1      -7.787  19.948  32.072  1.00  0.00    -0.401 N
HETATM   10  C15 UNL     1      -8.527  20.791  31.167  1.00  0.00     0.137 C
HETATM   11  C16 UNL     1      -8.199  22.228  31.645  1.00  0.00     0.144 C
BRANCH   9  12
HETATM   12  C11 UNL     1      -8.178  18.590  32.130  1.00  0.00     0.175 C
BRANCH  12  13
HETATM   13  C12 UNL     1      -7.245  17.850  33.026  1.00  0.00     0.043 A
HETATM   14  C13 UNL     1      -7.413  17.414  34.325  1.00  0.00     0.115 A
HETATM   15  N8  UNL     1      -6.328  16.782  34.777  1.00  0.00    -0.360 N
HETATM   16  C14 UNL     1      -5.445  16.806  33.764  1.00  0.00     0.180 A
ATOM     17  H8  UNL     1      -6.196  16.367  35.699  1.00  0.00     0.166 HD
HETATM   18  N9  UNL     1      -5.989  17.448  32.702  1.00  0.00    -0.353 N
ATOM     19  H9  UNL     1      -5.529  17.605  31.804  1.00  0.00     0.166 HD
ENDBRANCH  12  13
ENDBRANCH   9  12
ENDBRANCH   5   6
BRANCH   5  20
HETATM   20  N10 UNL     1      -9.251  24.507  33.979  1.00  0.00    -0.293 N
HETATM   21  C17 UNL     1      -8.006  25.024  34.000  1.00  0.00     0.188 A
HETATM   22  N11 UNL     1      -7.853  25.936  34.969  1.00  0.00    -0.346 N
HETATM   23  C18 UNL     1      -9.002  26.040  35.613  1.00  0.00     0.122 A
ATOM     24  H11 UNL     1      -7.001  26.457  35.174  1.00  0.00     0.167 HD
HETATM   25  C19 UNL     1      -9.449  26.794  36.675  1.00  0.00     0.131 A
HETATM   26  C21 UNL     1      -9.877  25.140  34.987  1.00  0.00     0.142 A
HETATM   27  N13 UNL     1     -10.721  26.702  37.150  1.00  0.00    -0.337 N
HETATM   28  C20 UNL     1     -11.548  25.831  36.534  1.00  0.00     0.183 A
ATOM     29  H13 UNL     1     -11.036  27.268  37.938  1.00  0.00     0.168 HD
HETATM   30  N14 UNL     1     -11.087  25.114  35.508  1.00  0.00    -0.336 N
ATOM     31  H14 UNL     1     -11.750  24.470  35.075  1.00  0.00     0.168 HD
BRANCH  25  32
HETATM   32  N12 UNL     1      -8.616  27.614  37.229  1.00  0.00    -0.383 N
ATOM     33 2H12 UNL     1      -7.631  27.586  36.968  1.00  0.00     0.157 HD
ATOM     34 1H12 UNL     1      -8.979  28.270  37.920  1.00  0.00     0.157 HD
ENDBRANCH  25  32
ENDBRANCH   5  20
BRANCH   1  35
HETATM   35  C2  UNL     1     -11.973  22.215  33.367  1.00  0.00     0.152 C
HETATM   36  N3  UNL     1     -12.836  22.253  34.318  1.00  0.00    -0.285 N
ATOM     37  H3  UNL     1     -12.921  23.104  34.874  1.00  0.00     0.188 HD
BRANCH  36  38
HETATM   38  N2  UNL     1     -13.646  21.186  34.607  1.00  0.00    -0.250 N
ATOM     39  H2  UNL     1     -14.128  20.746  33.823  1.00  0.00     0.198 HD
BRANCH  38  40
HETATM   40  C1  UNL     1     -13.853  20.696  35.757  1.00  0.00     0.060 C
BRANCH  40  41
HETATM   41  N1  UNL     1     -13.766  20.281  36.942  1.00  0.00    -0.351 N
ATOM     42  H12 UNL     1     -13.661  21.227  37.309  1.00  0.00     0.167 HD
ATOM     43  H11 UNL     1     -13.723  19.724  37.796  1.00  0.00     0.167 HD
ENDBRANCH  40  41
ENDBRANCH  38  40
ENDBRANCH  36  38
BRANCH  35  44
HETATM   44  C3  UNL     1     -11.858  21.010  32.580  1.00  0.00     0.290 C
HETATM   45  O1  UNL     1     -11.624  19.905  33.154  1.00  0.00    -0.264 OA
HETATM   46  N4  UNL     1     -12.001  21.045  31.156  1.00  0.00    -0.271 N
ATOM     47  H4  UNL     1     -12.190  21.919  30.664  1.00  0.00     0.189 HD
BRANCH  46  48
HETATM   48  N5  UNL     1     -11.872  19.828  30.458  1.00  0.00    -0.342 N
ATOM     49  H52 UNL     1     -12.693  19.372  30.062  1.00  0.00     0.176 HD
ATOM     50  H51 UNL     1     -10.936  19.432  30.371  1.00  0.00     0.176 HD
ENDBRANCH  46  48
ENDBRANCH  35  44
ENDBRANCH   1  35
BRANCH   3  51
HETATM   51  C6  UNL     1     -11.212  25.121  30.051  1.00  0.00     0.196 C
BRANCH  51  52
HETATM   52  O3  UNL     1     -10.548  26.266  29.633  1.00  0.00    -0.398 OA
ATOM     53  H3  UNL     1     -10.787  26.391  28.722  1.00  0.00     0.209 HD
ENDBRANCH  51  52
ENDBRANCH   3  51
TORSDOF 13
ENDMDL