MODEL 2
REMARK VINA RESULT: -8.029824072      0.935      1.165
REMARK  11 active torsions:
REMARK  status: ('A' for Active; 'I' for Inactive)
REMARK    1  A    between atoms: S1_2  and  C2_3
REMARK    2  A    between atoms: C3_6  and  C4_7
REMARK    3  A    between atoms: N3_10  and  C5_11
REMARK    4  A    between atoms: C8_14  and  S2_15
REMARK    5  A    between atoms: S2_15  and  N4_16
REMARK    6  A    between atoms: C11_25  and  C12_26
REMARK    7  A    between atoms: N8_32  and  C14_34
REMARK    8  A    between atoms: C14_34  and  C15_35
REMARK    9  A    between atoms: C16_38  and  C17_39
REMARK   10  A    between atoms: C17_39  and  N11_43
REMARK   11  A    between atoms: N11_43  and  N12_45
ROOT
HETATM    1  C2  UNL     1      -5.235  21.850  33.934  1.00  0.00     0.088 A
HETATM    2  N1  UNL     1      -6.154  22.758  33.603  1.00  0.00    -0.334 N
ATOM      3  H1  UNL     1      -5.848  23.729  33.535  1.00  0.00     0.168 HD
HETATM    4  C3  UNL     1      -7.428  22.506  33.356  1.00  0.00     0.139 A
HETATM    5  N7  UNL     1      -7.848  21.199  33.446  1.00  0.00    -0.326 N
ATOM      6  H7  UNL     1      -8.822  20.959  33.264  1.00  0.00     0.169 HD
HETATM    7  C13 UNL     1      -6.964  20.237  33.777  1.00  0.00     0.120 A
HETATM    8  N8  UNL     1      -7.307  19.008  33.872  1.00  0.00    -0.367 N
ATOM      9  H8  UNL     1      -6.579  18.341  34.125  1.00  0.00     0.161 HD
HETATM   10  C16 UNL     1      -5.629  20.535  34.031  1.00  0.00     0.086 A
ENDROOT
BRANCH   4  11
HETATM   11  C4  UNL     1      -8.447  23.474  32.994  1.00  0.00     0.127 A
HETATM   12  N2  UNL     1      -9.348  23.297  31.959  1.00  0.00    -0.273 N
HETATM   13  N3  UNL     1     -10.147  24.330  31.866  1.00  0.00    -0.196 N
ATOM     14  H2  UNL     1      -9.384  22.478  31.352  1.00  0.00     0.189 HD
HETATM   15  N5  UNL     1      -9.810  25.180  32.799  1.00  0.00    -0.272 N
HETATM   16  C11 UNL     1      -8.742  24.681  33.535  1.00  0.00     0.147 A
ATOM     17  H5  UNL     1     -10.264  26.078  32.963  1.00  0.00     0.189 HD
BRANCH  13  18
HETATM   18  C5  UNL     1     -11.218  24.538  30.923  1.00  0.00     0.075 A
HETATM   19  C6  UNL     1     -11.105  25.468  29.929  1.00  0.00     0.035 A
HETATM   20  C7  UNL     1     -12.152  25.648  29.033  1.00  0.00     0.027 A
HETATM   21  C8  UNL     1     -13.292  24.889  29.158  1.00  0.00     0.079 A
HETATM   22  C9  UNL     1     -13.441  23.938  30.153  1.00  0.00     0.027 A
HETATM   23  C10 UNL     1     -12.376  23.791  31.020  1.00  0.00     0.035 A
BRANCH  21  24
HETATM   24  S2  UNL     1     -14.644  25.088  28.038  1.00  0.00     0.256 S
HETATM   25  O1  UNL     1     -15.398  23.788  27.955  1.00  0.00    -0.201 OA
HETATM   26  O2  UNL     1     -14.124  25.493  26.694  1.00  0.00    -0.201 OA
BRANCH  24  27
HETATM   27  N4  UNL     1     -15.636  26.346  28.694  1.00  0.00    -0.324 N
ATOM     28  H42 UNL     1     -15.715  26.598  29.679  1.00  0.00     0.169 HD
ATOM     29  H41 UNL     1     -16.116  26.774  27.902  1.00  0.00     0.169 HD
ENDBRANCH  24  27
ENDBRANCH  21  24
ENDBRANCH  13  18
BRANCH  16  30
HETATM   30  C12 UNL     1      -8.133  25.377  34.638  1.00  0.00     0.285 C
HETATM   31  N6  UNL     1      -9.023  25.995  35.606  1.00  0.00    -0.056 NA
HETATM   32  O3  UNL     1      -6.943  25.524  34.881  1.00  0.00    -0.269 OA
ENDBRANCH  16  30
ENDBRANCH   4  11
BRANCH   1  33
HETATM   33  S1  UNL     1      -3.560  22.327  34.237  1.00  0.00    -0.116 SA
HETATM   34  C1  UNL     1      -3.450  24.136  34.184  1.00  0.00     0.097 C
ENDBRANCH   1  33
BRANCH  10  35
HETATM   35  C17 UNL     1      -4.701  19.467  34.386  1.00  0.00     0.130 C
HETATM   36  N10 UNL     1      -4.346  18.661  33.429  1.00  0.00    -0.384 N
ATOM     37 2H10 UNL     1      -4.718  18.797  32.489  1.00  0.00     0.157 HD
ATOM     38 1H10 UNL     1      -3.697  17.914  33.677  1.00  0.00     0.157 HD
BRANCH  35  39
HETATM   39  N11 UNL     1      -4.186  19.279  35.688  1.00  0.00    -0.292 N
ATOM     40  H11 UNL     1      -3.230  19.558  35.908  1.00  0.00     0.188 HD
BRANCH  39  41
HETATM   41  N12 UNL     1      -4.996  18.710  36.667  1.00  0.00    -0.344 N
ATOM     42 2H12 UNL     1      -4.580  18.090  37.361  1.00  0.00     0.176 HD
ATOM     43 1H12 UNL     1      -5.994  18.922  36.678  1.00  0.00     0.176 HD
ENDBRANCH  39  41
ENDBRANCH  35  39
ENDBRANCH  10  35
BRANCH   8  44
HETATM   44  C14 UNL     1      -8.623  18.484  33.655  1.00  0.00     0.220 C
BRANCH  44  45
HETATM   45  C15 UNL     1      -8.747  17.953  32.263  1.00  0.00     0.248 C
HETATM   46  N9  UNL     1      -8.666  18.855  31.172  1.00  0.00    -0.061 NA
HETATM   47  O4  UNL     1      -8.919  16.737  32.037  1.00  0.00    -0.275 OA
ENDBRANCH  44  45
ENDBRANCH   8  44
TORSDOF 11
ENDMDL