MODEL 1
REMARK VINA RESULT: -7.825270526      0.000      0.000
REMARK  14 active torsions:
REMARK  status: ('A' for Active; 'I' for Inactive)
REMARK    1  A    between atoms: C2_2  and  C5_5
REMARK    2  A    between atoms: C5_5  and  C6_7
REMARK       I    between atoms: C6_7  and  N1_9
REMARK    3  A    between atoms: N1_9  and  C7_11
REMARK    4  A    between atoms: C7_11  and  C8_12
REMARK       I    between atoms: C8_12  and  N2_14
REMARK    5  A    between atoms: N2_14  and  C9_16
REMARK    6  A    between atoms: C9_16  and  C10_17
REMARK    7  A    between atoms: C12_20  and  C13_21
REMARK    8  A    between atoms: C13_21  and  N3_22
REMARK    9  A    between atoms: N3_22  and  C14_25
REMARK   10  A    between atoms: C14_25  and  C15_26
REMARK   11  A    between atoms: C15_26  and  N4_27
REMARK   12  A    between atoms: N4_27  and  C16_29
REMARK   13  A    between atoms: C16_29  and  C17_33
REMARK   14  A    between atoms: C17_33  and  N6_34
ROOT
HETATM    1  C10 UNL     1      18.517  -0.221  21.563  1.00  0.00     0.166 C
HETATM    2  C11 UNL     1      17.624  -0.611  20.385  1.00  0.00     0.204 C
HETATM    3  O4  UNL     1      18.310   0.057  19.363  1.00  0.00    -0.357 OA
HETATM    4  C12 UNL     1      19.650  -0.089  19.681  1.00  0.00     0.285 C
HETATM    5  O5  UNL     1      19.785  -0.339  21.019  1.00  0.00    -0.351 OA
ENDROOT
BRANCH   4   6
HETATM    6  C13 UNL     1      20.381   1.178  19.313  1.00  0.00     0.292 C
BRANCH   6   7
HETATM    7  N3  UNL     1      20.950   1.185  18.004  1.00  0.00    -0.069 N
ATOM      8  H32 UNL     1      21.155   0.244  17.667  1.00  0.00     0.277 HD
ATOM      9  H31 UNL     1      20.273   1.451  17.290  1.00  0.00     0.277 HD
BRANCH   7  10
HETATM   10  C14 UNL     1      22.121   2.037  17.991  1.00  0.00     0.252 C
BRANCH  10  11
HETATM   11  C15 UNL     1      23.190   1.623  18.962  1.00  0.00     0.148 C
BRANCH  11  12
HETATM   12  N4  UNL     1      23.511   2.671  19.902  1.00  0.00    -0.377 N
ATOM     13  H4  UNL     1      23.788   3.579  19.530  1.00  0.00     0.160 HD
BRANCH  12  14
HETATM   14  C16 UNL     1      23.465   2.514  21.303  1.00  0.00     0.096 C
HETATM   15  N5  UNL     1      23.717   3.564  22.002  1.00  0.00    -0.388 N
ATOM     16  H52 UNL     1      23.934   4.436  21.519  1.00  0.00     0.157 HD
ATOM     17  H51 UNL     1      23.684   3.451  23.016  1.00  0.00     0.157 HD
BRANCH  14  18
HETATM   18  C17 UNL     1      23.154   1.263  21.997  1.00  0.00     0.304 C
BRANCH  18  19
HETATM   19  N6  UNL     1      21.925   1.324  22.760  1.00  0.00    -0.073 N
ATOM     20  H63 UNL     1      22.118   1.495  23.747  1.00  0.00     0.274 HD
ATOM     21  H62 UNL     1      21.403   2.173  22.542  1.00  0.00     0.274 HD
ATOM     22  H61 UNL     1      21.337   0.498  22.642  1.00  0.00     0.274 HD
ENDBRANCH  18  19
ENDBRANCH  14  18
ENDBRANCH  12  14
ENDBRANCH  11  12
ENDBRANCH  10  11
ENDBRANCH   7  10
ENDBRANCH   6   7
ENDBRANCH   4   6
BRANCH   1  23
HETATM   23  C9  UNL     1      18.308  -1.115  22.735  1.00  0.00     0.156 C
BRANCH  23  24
HETATM   24  N2  UNL     1      19.153  -0.776  23.839  1.00  0.00    -0.357 N
HETATM   25  C8  UNL     1      20.376  -1.397  24.119  1.00  0.00     0.235 C
HETATM   26  O3  UNL     1      20.763  -2.337  23.357  1.00  0.00    -0.272 OA
ATOM     27  H2  UNL     1      18.843  -0.031  24.464  1.00  0.00     0.162 HD
BRANCH  25  28
HETATM   28  C7  UNL     1      21.244  -1.041  25.243  1.00  0.00     0.225 C
BRANCH  28  29
HETATM   29  N1  UNL     1      20.531  -0.536  26.363  1.00  0.00    -0.346 N
HETATM   30  C6  UNL     1      20.088   0.794  26.555  1.00  0.00     0.288 C
HETATM   31  O2  UNL     1      20.340   1.650  25.677  1.00  0.00    -0.264 OA
ATOM     32  H1  UNL     1      20.317  -1.202  27.106  1.00  0.00     0.163 HD
BRANCH  30  33
HETATM   33  C5  UNL     1      19.354   1.162  27.747  1.00  0.00     0.224 C
HETATM   34  O1  UNL     1      19.921   1.878  28.611  1.00  0.00    -0.286 OA
BRANCH  33  35
HETATM   35  C2  UNL     1      17.953   0.692  27.936  1.00  0.00     0.019 C
HETATM   36  C1  UNL     1      17.208   0.592  26.630  1.00  0.00     0.023 C
HETATM   37  C3  UNL     1      17.220   1.760  28.760  1.00  0.00     0.023 C
HETATM   38  C4  UNL     1      17.893  -0.595  28.701  1.00  0.00     0.023 C
ENDBRANCH  33  35
ENDBRANCH  30  33
ENDBRANCH  28  29
ENDBRANCH  25  28
ENDBRANCH  23  24
ENDBRANCH   1  23
TORSDOF 14
ENDMDL