MODEL 5
REMARK VINA RESULT: -8.210104690      1.996      2.486
REMARK  14 active torsions:
REMARK  status: ('A' for Active; 'I' for Inactive)
REMARK    1  A    between atoms: C2_2  and  C3_3
REMARK    2  A    between atoms: C3_3  and  C5_5
REMARK    3  A    between atoms: C5_5  and  N1_6
REMARK    4  A    between atoms: C5_5  and  C6_10
REMARK       I    between atoms: C6_10  and  N2_12
REMARK    5  A    between atoms: N2_12  and  C7_14
REMARK    6  A    between atoms: C7_14  and  C9_16
REMARK    7  A    between atoms: C10_18  and  C11_19
REMARK    8  A    between atoms: C11_19  and  C12_20
REMARK    9  A    between atoms: C12_20  and  N3_21
REMARK   10  A    between atoms: C13_25  and  C14_26
REMARK       I    between atoms: C14_26  and  N4_28
REMARK   11  A    between atoms: N4_28  and  C15_30
REMARK   12  A    between atoms: C15_30  and  C16_31
REMARK   13  A    between atoms: C15_30  and  C17_36
REMARK   14  A    between atoms: C16_31  and  N5_32
ROOT
HETATM    1  C9  UNL     1      20.532  -0.216  25.560  1.00  0.00     0.283 C
HETATM    2  O2  UNL     1      19.257  -0.740  25.514  1.00  0.00    -0.351 OA
HETATM    3  C10 UNL     1      18.449   0.358  25.202  1.00  0.00     0.164 C
HETATM    4  C13 UNL     1      19.100   1.389  26.061  1.00  0.00     0.245 C
HETATM    5  O5  UNL     1      20.458   1.183  25.611  1.00  0.00    -0.342 OA
ENDROOT
BRANCH   1   6
HETATM    6  C7  UNL     1      21.420  -0.675  24.435  1.00  0.00     0.135 C
HETATM    7  C8  UNL     1      20.961  -1.956  23.830  1.00  0.00     0.037 C
BRANCH   6   8
HETATM    8  N2  UNL     1      21.374   0.325  23.363  1.00  0.00    -0.350 N
HETATM    9  C6  UNL     1      22.501   0.619  22.560  1.00  0.00     0.249 C
HETATM   10  O1  UNL     1      23.566  -0.025  22.807  1.00  0.00    -0.271 OA
ATOM     11  H2  UNL     1      20.501   0.825  23.191  1.00  0.00     0.163 HD
BRANCH   9  12
HETATM   12  C5  UNL     1      22.395   1.627  21.506  1.00  0.00     0.278 C
BRANCH  12  13
HETATM   13  C3  UNL     1      22.257   1.075  20.130  1.00  0.00     0.021 C
HETATM   14  C4  UNL     1      20.843   0.554  19.974  1.00  0.00     0.012 C
BRANCH  13  15
HETATM   15  C2  UNL     1      22.603   2.075  19.051  1.00  0.00     0.002 C
HETATM   16  C1  UNL     1      21.596   2.089  17.938  1.00  0.00     0.005 C
ENDBRANCH  13  15
ENDBRANCH  12  13
BRANCH  12  17
HETATM   17  N1  UNL     1      23.504   2.559  21.626  1.00  0.00    -0.066 N
ATOM     18  H13 UNL     1      24.279   2.141  22.141  1.00  0.00     0.275 HD
ATOM     19  H12 UNL     1      23.962   2.701  20.725  1.00  0.00     0.275 HD
ATOM     20  H11 UNL     1      23.226   3.449  22.039  1.00  0.00     0.275 HD
ENDBRANCH  12  17
ENDBRANCH   9  12
ENDBRANCH   6   8
ENDBRANCH   1   6
BRANCH   3  21
HETATM   21  C11 UNL     1      17.011   0.102  25.383  1.00  0.00     0.062 C
BRANCH  21  22
HETATM   22  C12 UNL     1      16.651  -1.322  25.651  1.00  0.00     0.232 C
BRANCH  22  23
HETATM   23  N3  UNL     1      17.041  -2.277  24.667  1.00  0.00    -0.079 N
ATOM     24  H33 UNL     1      17.220  -1.802  23.782  1.00  0.00     0.274 HD
ATOM     25  H32 UNL     1      17.975  -2.628  24.884  1.00  0.00     0.274 HD
ATOM     26  H31 UNL     1      16.408  -3.061  24.513  1.00  0.00     0.274 HD
ENDBRANCH  22  23
ENDBRANCH  21  22
ENDBRANCH   3  21
BRANCH   4  27
HETATM   27  C14 UNL     1      19.108   1.210  27.502  1.00  0.00     0.250 C
HETATM   28  O3  UNL     1      19.853   1.921  28.224  1.00  0.00    -0.271 OA
HETATM   29  N4  UNL     1      18.298   0.237  28.186  1.00  0.00    -0.344 N
ATOM     30  H4  UNL     1      17.692  -0.360  27.624  1.00  0.00     0.163 HD
BRANCH  29  31
HETATM   31  C15 UNL     1      18.290   0.054  29.595  1.00  0.00     0.199 C
BRANCH  31  32
HETATM   32  C16 UNL     1      19.648  -0.270  30.177  1.00  0.00     0.264 C
BRANCH  32  33
HETATM   33  N5  UNL     1      20.392  -1.178  29.305  1.00  0.00    -0.077 N
ATOM     34  H53 UNL     1      19.977  -1.230  28.375  1.00  0.00     0.274 HD
ATOM     35  H52 UNL     1      21.301  -0.792  29.050  1.00  0.00     0.274 HD
ATOM     36  H51 UNL     1      20.483  -2.103  29.728  1.00  0.00     0.274 HD
ENDBRANCH  32  33
ENDBRANCH  31  32
BRANCH  31  37
HETATM   37  C17 UNL     1      17.291  -0.935  30.072  1.00  0.00     0.255 C
HETATM   38  N6  UNL     1      17.087  -2.100  29.290  1.00  0.00    -0.060 NA
HETATM   39  O4  UNL     1      16.621  -0.806  31.114  1.00  0.00    -0.275 OA
ENDBRANCH  31  37
ENDBRANCH  29  31
ENDBRANCH   4  27
TORSDOF 14
ENDMDL