MODEL 5
REMARK VINA RESULT: -8.257270309      2.173      6.419
REMARK  13 active torsions:
REMARK  status: ('A' for Active; 'I' for Inactive)
REMARK       I    between atoms: C1_4  and  N2_5
REMARK       I    between atoms: C1_4  and  N7_33
REMARK    1  A    between atoms: N2_5  and  C2_7
REMARK    2  A    between atoms: C2_7  and  C3_8
REMARK    3  A    between atoms: C3_8  and  C4_9
REMARK    4  A    between atoms: C4_9  and  C5_10
REMARK    5  A    between atoms: C5_10  and  N3_11
REMARK    6  A    between atoms: C5_10  and  C15_30
REMARK       I    between atoms: N3_11  and  C6_13
REMARK    7  A    between atoms: C6_13  and  C7_15
REMARK    8  A    between atoms: C7_15  and  C8_16
REMARK    9  A    between atoms: C8_16  and  C9_17
REMARK   10  A    between atoms: C9_17  and  N4_18
REMARK   11  A    between atoms: C12_21  and  O2_22
REMARK   12  A    between atoms: C13_24  and  N5_25
REMARK   13  A    between atoms: N7_33  and  N8_35
ROOT
HETATM    1  N3  UNL     1      19.531   0.149  26.934  1.00  0.00    -0.348 N
ATOM      2  H3  UNL     1      19.429  -0.788  27.325  1.00  0.00     0.163 HD
HETATM    3  C6  UNL     1      20.543   0.417  25.994  1.00  0.00     0.218 C
HETATM    4  O1  UNL     1      20.707   1.550  25.486  1.00  0.00    -0.274 OA
ENDROOT
BRANCH   1   5
HETATM    5  C5  UNL     1      18.594   1.263  27.363  1.00  0.00     0.173 C
BRANCH   5   6
HETATM    6  C4  UNL     1      17.263   0.916  26.808  1.00  0.00     0.036 C
BRANCH   6   7
HETATM    7  C3  UNL     1      16.998   0.804  25.375  1.00  0.00     0.023 C
BRANCH   7   8
HETATM    8  C2  UNL     1      17.088  -0.492  24.676  1.00  0.00     0.138 C
BRANCH   8   9
HETATM    9  N2  UNL     1      17.263  -0.332  23.235  1.00  0.00    -0.225 N
HETATM   10  C1  UNL     1      16.656  -1.180  22.288  1.00  0.00     0.691 C
HETATM   11  N1  UNL     1      15.628  -1.862  22.609  1.00  0.00    -0.233 N
HETATM   12  N7  UNL     1      17.187  -1.274  20.987  1.00  0.00    -0.072 N
ATOM     13  H12 UNL     1      15.243  -1.794  23.551  1.00  0.00     0.174 HD
ATOM     14  H11 UNL     1      15.188  -2.476  21.924  1.00  0.00     0.174 HD
ATOM     15  H7  UNL     1      17.647  -2.127  20.671  1.00  0.00     0.212 HD
ATOM     16  H2  UNL     1      17.853   0.430  22.898  1.00  0.00     0.177 HD
BRANCH  12  17
HETATM   17  N8  UNL     1      17.066  -0.165  20.137  1.00  0.00    -0.024 N
HETATM   18  O4  UNL     1      16.036   0.548  20.104  1.00  0.00    -0.516 OA
HETATM   19  O5  UNL     1      18.089   0.191  19.291  1.00  0.00    -0.516 OA
ENDBRANCH  12  17
ENDBRANCH   8   9
ENDBRANCH   7   8
ENDBRANCH   6   7
ENDBRANCH   5   6
BRANCH   5  20
HETATM   20  C15 UNL     1      18.711   1.374  28.821  1.00  0.00     0.254 C
HETATM   21  N6  UNL     1      19.538   0.515  29.614  1.00  0.00    -0.060 NA
HETATM   22  O3  UNL     1      18.056   2.260  29.471  1.00  0.00    -0.275 OA
ENDBRANCH   5  20
ENDBRANCH   1   5
BRANCH   3  23
HETATM   23  C7  UNL     1      21.442  -0.682  25.594  1.00  0.00     0.104 C
BRANCH  23  24
HETATM   24  C8  UNL     1      20.960  -1.494  24.449  1.00  0.00     0.039 C
BRANCH  24  25
HETATM   25  C9  UNL     1      22.020  -2.161  23.658  1.00  0.00     0.273 C
BRANCH  25  26
HETATM   26  N4  UNL     1      22.195  -1.444  22.380  1.00  0.00     0.090 N
HETATM   27  C10 UNL     1      23.443  -0.801  22.391  1.00  0.00     0.275 C
HETATM   28  C11 UNL     1      23.549   0.471  21.613  1.00  0.00     0.064 C
HETATM   29  C12 UNL     1      22.328   1.330  21.687  1.00  0.00     0.152 C
HETATM   30  C13 UNL     1      21.168   0.470  21.211  1.00  0.00     0.240 C
HETATM   31  C14 UNL     1      21.035  -0.689  22.145  1.00  0.00     0.307 C
BRANCH  29  32
HETATM   32  O2  UNL     1      22.100   1.761  22.984  1.00  0.00    -0.393 OA
ATOM     33  H2  UNL     1      22.508   2.604  23.142  1.00  0.00     0.210 HD
ENDBRANCH  29  32
BRANCH  30  34
HETATM   34  N5  UNL     1      21.340   0.110  19.840  1.00  0.00    -0.071 N
ATOM     35  H53 UNL     1      20.486   0.251  19.302  1.00  0.00     0.274 HD
ATOM     36  H52 UNL     1      21.941   0.771  19.347  1.00  0.00     0.274 HD
ATOM     37  H51 UNL     1      21.685  -0.847  19.762  1.00  0.00     0.274 HD
ENDBRANCH  30  34
ENDBRANCH  25  26
ENDBRANCH  24  25
ENDBRANCH  23  24
ENDBRANCH   3  23
TORSDOF 13
ENDMDL