MODEL 2
REMARK VINA RESULT: -6.865516032      1.621      2.191
REMARK  15 active torsions:
REMARK  status: ('A' for Active; 'I' for Inactive)
REMARK    1  A    between atoms: C2_2  and  O1_3
REMARK    2  A    between atoms: C2_2  and  C3_5
REMARK    3  A    between atoms: C3_5  and  N1_6
REMARK    4  A    between atoms: C3_5  and  C15_35
REMARK       I    between atoms: N1_6  and  C4_8
REMARK    5  A    between atoms: C4_8  and  C5_10
REMARK    6  A    between atoms: C5_10  and  N2_11
REMARK    7  A    between atoms: C5_10  and  C11_31
REMARK       I    between atoms: N2_11  and  C6_13
REMARK    8  A    between atoms: C6_13  and  C7_15
REMARK    9  A    between atoms: C7_15  and  N3_16
REMARK   10  A    between atoms: C7_15  and  C8_20
REMARK   11  A    between atoms: C8_20  and  N4_21
REMARK   12  A    between atoms: C8_20  and  C9_25
REMARK   13  A    between atoms: C9_25  and  C10_26
REMARK   14  A    between atoms: C10_26  and  N5_27
REMARK       I    between atoms: C15_35  and  N6_37
REMARK   15  A    between atoms: N6_37  and  C16_39
ROOT
HETATM    1  C5  UNL     1      18.396   0.396  25.061  1.00  0.00     0.184 C
ENDROOT
BRANCH   1   2
HETATM    2  C4  UNL     1      18.325  -0.399  23.828  1.00  0.00     0.242 C
HETATM    3  N1  UNL     1      17.884   0.043  22.569  1.00  0.00    -0.344 N
ATOM      4  H1  UNL     1      17.578   1.011  22.467  1.00  0.00     0.163 HD
HETATM    5  O2  UNL     1      18.711  -1.624  23.909  1.00  0.00    -0.271 OA
BRANCH   3   6
HETATM    6  C3  UNL     1      17.846  -0.832  21.403  1.00  0.00     0.205 C
BRANCH   6   7
HETATM    7  C2  UNL     1      16.425  -1.129  20.976  1.00  0.00     0.146 C
HETATM    8  C1  UNL     1      15.651  -1.812  22.086  1.00  0.00     0.042 C
BRANCH   7   9
HETATM    9  O1  UNL     1      15.741   0.029  20.666  1.00  0.00    -0.393 OA
ATOM     10  H1  UNL     1      16.145   0.387  19.884  1.00  0.00     0.210 HD
ENDBRANCH   7   9
ENDBRANCH   6   7
BRANCH   6  11
HETATM   11  C15 UNL     1      18.523  -0.161  20.251  1.00  0.00     0.243 C
HETATM   12  O4  UNL     1      17.904  -0.049  19.163  1.00  0.00    -0.271 OA
HETATM   13  N6  UNL     1      19.836   0.351  20.341  1.00  0.00    -0.355 N
ATOM     14  H6  UNL     1      20.351   0.267  21.218  1.00  0.00     0.162 HD
BRANCH  13  15
HETATM   15  C16 UNL     1      20.456   0.992  19.210  1.00  0.00     0.084 A
HETATM   16  C17 UNL     1      21.672   0.321  18.556  1.00  0.00     0.027 A
HETATM   17  C18 UNL     1      21.846   1.559  19.356  1.00  0.00     0.027 A
ENDBRANCH  13  15
ENDBRANCH   6  11
ENDBRANCH   3   6
ENDBRANCH   1   2
BRANCH   1  18
HETATM   18  N2  UNL     1      19.253  -0.278  26.056  1.00  0.00    -0.345 N
HETATM   19  C6  UNL     1      20.515   0.260  26.422  1.00  0.00     0.251 C
HETATM   20  O3  UNL     1      20.879   1.327  25.872  1.00  0.00    -0.271 OA
ATOM     21  H2  UNL     1      18.934  -1.145  26.488  1.00  0.00     0.163 HD
BRANCH  19  22
HETATM   22  C7  UNL     1      21.427  -0.358  27.408  1.00  0.00     0.304 C
BRANCH  22  23
HETATM   23  N3  UNL     1      21.284  -1.808  27.435  1.00  0.00    -0.064 N
ATOM     24  H33 UNL     1      20.420  -2.089  27.900  1.00  0.00     0.275 HD
ATOM     25  H32 UNL     1      21.092  -2.182  26.506  1.00  0.00     0.275 HD
ATOM     26  H31 UNL     1      22.097  -2.258  27.856  1.00  0.00     0.275 HD
ENDBRANCH  22  23
BRANCH  22  27
HETATM   27  C8  UNL     1      21.316   0.242  28.777  1.00  0.00     0.224 C
BRANCH  27  28
HETATM   28  N4  UNL     1      20.766   1.574  28.670  1.00  0.00    -0.072 N
ATOM     29  H43 UNL     1      21.158   2.211  29.363  1.00  0.00     0.274 HD
ATOM     30  H42 UNL     1      21.086   2.058  27.831  1.00  0.00     0.274 HD
ATOM     31  H41 UNL     1      19.749   1.523  28.723  1.00  0.00     0.274 HD
ENDBRANCH  27  28
BRANCH  27  32
HETATM   32  C9  UNL     1      20.574  -0.621  29.745  1.00  0.00     0.062 C
BRANCH  32  33
HETATM   33  C10 UNL     1      19.219  -0.039  30.109  1.00  0.00     0.231 C
BRANCH  33  34
HETATM   34  N5  UNL     1      18.208  -1.096  30.164  1.00  0.00    -0.079 N
ATOM     35  H53 UNL     1      17.939  -1.413  29.233  1.00  0.00     0.274 HD
ATOM     36  H52 UNL     1      18.593  -1.973  30.517  1.00  0.00     0.274 HD
ATOM     37  H51 UNL     1      17.402  -0.790  30.709  1.00  0.00     0.274 HD
ENDBRANCH  33  34
ENDBRANCH  32  33
ENDBRANCH  27  32
ENDBRANCH  22  27
ENDBRANCH  19  22
ENDBRANCH   1  18
BRANCH   1  38
HETATM   38  C11 UNL     1      17.065   0.723  25.688  1.00  0.00    -0.022 C
HETATM   39  C12 UNL     1      15.970  -0.232  25.319  1.00  0.00     0.017 C
HETATM   40  C13 UNL     1      16.605   2.120  25.281  1.00  0.00     0.017 C
HETATM   41  C14 UNL     1      17.145   0.716  27.208  1.00  0.00     0.017 C
ENDBRANCH   1  38
TORSDOF 15
ENDMDL