MODEL 4
REMARK VINA RESULT: -7.368631069      2.248      3.576
REMARK  17 active torsions:
REMARK  status: ('A' for Active; 'I' for Inactive)
REMARK    1  A    between atoms: N1_1  and  C1_5
REMARK    2  A    between atoms: C1_5  and  C2_6
REMARK    3  A    between atoms: C2_6  and  C3_7
REMARK    4  A    between atoms: C3_7  and  C4_8
REMARK    5  A    between atoms: C4_8  and  C5_9
REMARK    6  A    between atoms: C5_9  and  C6_10
REMARK    7  A    between atoms: C6_10  and  C7_11
REMARK    8  A    between atoms: C7_11  and  C8_12
REMARK    9  A    between atoms: C8_12  and  C9_13
REMARK   10  A    between atoms: C9_13  and  N2_14
REMARK       I    between atoms: N2_14  and  C10_16
REMARK   11  A    between atoms: C10_16  and  C11_18
REMARK   12  A    between atoms: C12_19  and  C13_20
REMARK   13  A    between atoms: C13_20  and  N3_21
REMARK   14  A    between atoms: C14_26  and  O3_27
REMARK   15  A    between atoms: C15_29  and  O4_30
REMARK   16  A    between atoms: C16_32  and  C17_33
REMARK       I    between atoms: C17_33  and  N4_35
REMARK   17  A    between atoms: N4_35  and  N5_37
ROOT
HETATM    1  C11 UNL     1      17.186  -0.443  25.449  1.00  0.00     0.124 C
HETATM    2  C12 UNL     1      16.959  -1.872  25.892  1.00  0.00     0.164 C
HETATM    3  O2  UNL     1      17.047  -2.027  27.258  1.00  0.00    -0.351 OA
HETATM    4  C14 UNL     1      18.087  -1.329  27.857  1.00  0.00     0.286 C
HETATM    5  C15 UNL     1      17.899   0.180  27.756  1.00  0.00     0.187 C
HETATM    6  C16 UNL     1      17.030   0.528  26.568  1.00  0.00     0.128 C
ENDROOT
BRANCH   1   7
HETATM    7  C10 UNL     1      18.537  -0.339  24.781  1.00  0.00     0.225 C
HETATM    8  N2  UNL     1      19.695  -0.862  25.400  1.00  0.00    -0.361 N
ATOM      9  H2  UNL     1      19.624  -1.317  26.310  1.00  0.00     0.162 HD
HETATM   10  O1  UNL     1      18.639   0.218  23.664  1.00  0.00    -0.273 OA
BRANCH   8  11
HETATM   11  C9  UNL     1      20.974  -0.753  24.750  1.00  0.00     0.122 C
BRANCH  11  12
HETATM   12  C8  UNL     1      21.188  -1.875  23.741  1.00  0.00     0.020 C
BRANCH  12  13
HETATM   13  C7  UNL     1      22.000  -1.386  22.582  1.00  0.00     0.002 C
BRANCH  13  14
HETATM   14  C6  UNL     1      22.015   0.119  22.553  1.00  0.00     0.000 C
BRANCH  14  15
HETATM   15  C5  UNL     1      22.195   0.624  21.167  1.00  0.00     0.000 C
BRANCH  15  16
HETATM   16  C4  UNL     1      20.918   0.364  20.360  1.00  0.00     0.000 C
BRANCH  16  17
HETATM   17  C3  UNL     1      21.188   0.555  18.890  1.00  0.00     0.002 C
BRANCH  17  18
HETATM   18  C2  UNL     1      21.871   1.878  18.642  1.00  0.00     0.027 C
BRANCH  18  19
HETATM   19  C1  UNL     1      21.397   2.367  17.280  1.00  0.00     0.229 C
BRANCH  19  20
HETATM   20  N1  UNL     1      22.206   3.507  16.870  1.00  0.00    -0.079 N
ATOM     21  H13 UNL     1      22.395   4.145  17.642  1.00  0.00     0.274 HD
ATOM     22  H12 UNL     1      23.169   3.243  16.661  1.00  0.00     0.274 HD
ATOM     23  H11 UNL     1      21.754   3.975  16.083  1.00  0.00     0.274 HD
ENDBRANCH  19  20
ENDBRANCH  18  19
ENDBRANCH  17  18
ENDBRANCH  16  17
ENDBRANCH  15  16
ENDBRANCH  14  15
ENDBRANCH  13  14
ENDBRANCH  12  13
ENDBRANCH  11  12
ENDBRANCH   8  11
ENDBRANCH   1   7
BRANCH   2  24
HETATM   24  C13 UNL     1      15.640  -2.427  25.443  1.00  0.00     0.262 C
BRANCH  24  25
HETATM   25  N3  UNL     1      15.566  -2.337  24.003  1.00  0.00    -0.077 N
ATOM     26  H33 UNL     1      14.718  -2.761  23.628  1.00  0.00     0.274 HD
ATOM     27  H32 UNL     1      15.401  -1.383  23.680  1.00  0.00     0.274 HD
ATOM     28  H31 UNL     1      16.414  -2.742  23.606  1.00  0.00     0.274 HD
ENDBRANCH  24  25
ENDBRANCH   2  24
BRANCH   6  29
HETATM   29  C17 UNL     1      17.301   1.902  26.134  1.00  0.00     0.243 C
HETATM   30  O5  UNL     1      18.034   2.660  26.843  1.00  0.00    -0.271 OA
HETATM   31  N4  UNL     1      16.800   2.490  24.941  1.00  0.00    -0.276 N
ATOM     32  H4  UNL     1      16.207   1.923  24.336  1.00  0.00     0.189 HD
BRANCH  31  33
HETATM   33  N5  UNL     1      17.074   3.794  24.555  1.00  0.00    -0.343 N
ATOM     34  H52 UNL     1      17.859   4.259  25.010  1.00  0.00     0.176 HD
ATOM     35  H51 UNL     1      16.535   4.298  23.850  1.00  0.00     0.176 HD
ENDBRANCH  31  33
ENDBRANCH   6  29
BRANCH   5  36
HETATM   36  O4  UNL     1      17.219   0.608  28.897  1.00  0.00    -0.390 OA
ATOM     37  H4  UNL     1      16.624   1.303  28.640  1.00  0.00     0.210 HD
ENDBRANCH   5  36
BRANCH   4  38
HETATM   38  O3  UNL     1      18.068  -1.650  29.214  1.00  0.00    -0.369 OA
ATOM     39  H3  UNL     1      18.232  -2.583  29.284  1.00  0.00     0.212 HD
ENDBRANCH   4  38
TORSDOF 17
ENDMDL