MODEL 5
REMARK VINA RESULT: -8.316446848      1.286      1.536
REMARK  15 active torsions:
REMARK  status: ('A' for Active; 'I' for Inactive)
REMARK    1  A    between atoms: C2_3  and  C3_4
REMARK    2  A    between atoms: C3_4  and  N2_5
REMARK    3  A    between atoms: C3_4  and  C13_30
REMARK       I    between atoms: N2_5  and  C4_7
REMARK    4  A    between atoms: C4_7  and  C5_9
REMARK    5  A    between atoms: C5_9  and  N3_10
REMARK    6  A    between atoms: C5_9  and  C6_14
REMARK    7  A    between atoms: C6_14  and  C7_15
REMARK    8  A    between atoms: C7_15  and  C8_16
REMARK    9  A    between atoms: C8_16  and  N4_17
REMARK       I    between atoms: N4_17  and  C9_19
REMARK   10  A    between atoms: C9_19  and  C10_21
REMARK   11  A    between atoms: C10_21  and  C11_22
REMARK   12  A    between atoms: C11_22  and  C12_23
REMARK       I    between atoms: C12_23  and  N5_25
REMARK   13  A    between atoms: N5_25  and  N6_27
REMARK   14  A    between atoms: C15_32  and  N7_33
REMARK   15  A    between atoms: C16_37  and  O4_38
ROOT
HETATM    1  N1  UNL     1      17.860   3.360  25.346  1.00  0.00    -0.197 NA
HETATM    2  C1  UNL     1      17.266   2.446  25.751  1.00  0.00     0.061 C
HETATM    3  C2  UNL     1      16.534   1.286  26.254  1.00  0.00     0.149 C
ENDROOT
BRANCH   3   4
HETATM    4  C3  UNL     1      17.340   0.032  26.231  1.00  0.00     0.101 C
BRANCH   4   5
HETATM    5  N2  UNL     1      18.538   0.278  25.441  1.00  0.00    -0.353 N
HETATM    6  C4  UNL     1      18.896  -0.547  24.360  1.00  0.00     0.248 C
HETATM    7  O1  UNL     1      18.250  -1.540  23.977  1.00  0.00    -0.271 OA
ATOM      8  H2  UNL     1      19.135   1.070  25.677  1.00  0.00     0.163 HD
BRANCH   6   9
HETATM    9  C5  UNL     1      20.148  -0.230  23.591  1.00  0.00     0.274 C
BRANCH   9  10
HETATM   10  N3  UNL     1      20.920   0.808  24.224  1.00  0.00    -0.067 N
ATOM     11  H33 UNL     1      20.571   1.010  25.161  1.00  0.00     0.275 HD
ATOM     12  H32 UNL     1      21.854   0.479  24.467  1.00  0.00     0.275 HD
ATOM     13  H31 UNL     1      20.961   1.653  23.654  1.00  0.00     0.275 HD
ENDBRANCH   9  10
BRANCH   9  14
HETATM   14  C6  UNL     1      20.950  -1.497  23.432  1.00  0.00     0.044 C
BRANCH  14  15
HETATM   15  C7  UNL     1      22.215  -1.394  24.252  1.00  0.00     0.022 C
BRANCH  15  16
HETATM   16  C8  UNL     1      23.443  -1.485  23.416  1.00  0.00     0.122 C
BRANCH  16  17
HETATM   17  N4  UNL     1      23.227  -0.999  22.088  1.00  0.00    -0.361 N
HETATM   18  C9  UNL     1      23.312   0.371  21.766  1.00  0.00     0.217 C
HETATM   19  O2  UNL     1      23.591   1.215  22.653  1.00  0.00    -0.274 OA
ATOM     20  H4  UNL     1      23.005  -1.666  21.348  1.00  0.00     0.162 HD
BRANCH  18  21
HETATM   21  C10 UNL     1      23.069   0.842  20.353  1.00  0.00     0.112 C
BRANCH  21  22
HETATM   22  C11 UNL     1      21.610   0.799  20.079  1.00  0.00     0.114 C
BRANCH  22  23
HETATM   23  C12 UNL     1      21.312   1.480  18.804  1.00  0.00     0.235 C
HETATM   24  O3  UNL     1      20.195   1.364  18.189  1.00  0.00    -0.272 OA
HETATM   25  N5  UNL     1      22.302   2.311  18.211  1.00  0.00    -0.277 N
ATOM     26  H5  UNL     1      23.203   2.426  18.675  1.00  0.00     0.189 HD
BRANCH  25  27
HETATM   27  N6  UNL     1      22.060   2.977  17.001  1.00  0.00    -0.343 N
ATOM     28  H62 UNL     1      22.260   2.487  16.128  1.00  0.00     0.176 HD
ATOM     29  H61 UNL     1      21.694   3.928  16.986  1.00  0.00     0.176 HD
ENDBRANCH  25  27
ENDBRANCH  22  23
ENDBRANCH  21  22
ENDBRANCH  18  21
ENDBRANCH  16  17
ENDBRANCH  15  16
ENDBRANCH  14  15
ENDBRANCH   9  14
ENDBRANCH   6   9
ENDBRANCH   4   5
BRANCH   4  30
HETATM   30  C13 UNL     1      17.762  -0.432  27.602  1.00  0.00     0.014 C
HETATM   31  C14 UNL     1      17.563   0.585  28.673  1.00  0.00     0.042 C
HETATM   32  C15 UNL     1      18.335  -0.053  29.838  1.00  0.00     0.212 C
HETATM   33  C16 UNL     1      19.599  -0.505  29.153  1.00  0.00     0.149 C
HETATM   34  C17 UNL     1      19.238  -0.714  27.680  1.00  0.00     0.040 C
BRANCH  32  35
HETATM   35  N7  UNL     1      17.560  -1.141  30.377  1.00  0.00    -0.073 N
ATOM     36  H73 UNL     1      18.055  -1.639  31.118  1.00  0.00     0.274 HD
ATOM     37  H72 UNL     1      16.766  -0.816  30.928  1.00  0.00     0.274 HD
ATOM     38  H71 UNL     1      17.277  -1.759  29.616  1.00  0.00     0.274 HD
ENDBRANCH  32  35
BRANCH  33  39
HETATM   39  O4  UNL     1      20.523   0.550  29.266  1.00  0.00    -0.393 OA
ATOM     40  H4  UNL     1      20.172   1.278  28.768  1.00  0.00     0.210 HD
ENDBRANCH  33  39
ENDBRANCH   4  30
ENDBRANCH   3   4
TORSDOF 15
ENDMDL