MODEL 4
REMARK VINA RESULT: -8.164706937      2.272      3.447
REMARK  13 active torsions:
REMARK  status: ('A' for Active; 'I' for Inactive)
REMARK    1  A    between atoms: C2_2  and  C3_4
REMARK    2  A    between atoms: C3_4  and  C6_12
REMARK    3  A    between atoms: N1_5  and  O2_7
REMARK    4  A    between atoms: O2_7  and  C4_8
REMARK    5  A    between atoms: C4_8  and  C5_9
REMARK    6  A    between atoms: C6_12  and  N3_13
REMARK    7  A    between atoms: C6_12  and  N4_17
REMARK    8  A    between atoms: N4_17  and  C7_19
REMARK    9  A    between atoms: C9_24  and  C10_25
REMARK       I    between atoms: C10_25  and  N6_27
REMARK   10  A    between atoms: N6_27  and  C11_29
REMARK   11  A    between atoms: C11_29  and  C12_30
REMARK   12  A    between atoms: C11_29  and  C13_36
REMARK   13  A    between atoms: C12_30  and  O5_34
ROOT
HETATM    1  C7  UNL     1      20.571  -1.502  23.922  1.00  0.00     0.107 C
HETATM    2  C8  UNL     1      21.114  -2.872  23.975  1.00  0.00     0.257 C
HETATM    3  N5  UNL     1      22.232  -2.825  22.970  1.00  0.00    -0.060 N
ATOM      4  H51 UNL     1      21.949  -2.765  21.992  1.00  0.00     0.278 HD
ATOM      5  H52 UNL     1      22.758  -3.691  22.849  1.00  0.00     0.278 HD
HETATM    6  C9  UNL     1      22.964  -1.725  23.470  1.00  0.00     0.279 C
HETATM    7  C16 UNL     1      21.900  -0.690  23.877  1.00  0.00     0.069 C
ENDROOT
BRANCH   1   8
HETATM    8  N4  UNL     1      19.857  -0.955  25.010  1.00  0.00    -0.385 N
ATOM      9  H4  UNL     1      20.297  -0.862  25.925  1.00  0.00     0.156 HD
BRANCH   8  10
HETATM   10  C6  UNL     1      18.534  -0.541  24.813  1.00  0.00     0.334 C
BRANCH  10  11
HETATM   11  C3  UNL     1      18.014   0.360  25.928  1.00  0.00     0.126 C
HETATM   12  N1  UNL     1      18.566   0.285  27.003  1.00  0.00    -0.263 N
ATOM     13  H1  UNL     1      19.338  -0.337  26.764  1.00  0.00     0.194 HD
BRANCH  11  14
HETATM   14  C2  UNL     1      16.821   1.128  25.597  1.00  0.00     0.173 C
HETATM   15  C1  UNL     1      16.821   2.608  25.674  1.00  0.00     0.098 C
HETATM   16  O1  UNL     1      15.779   0.552  25.195  1.00  0.00    -0.291 OA
ENDBRANCH  11  14
BRANCH  12  17
HETATM   17  O2  UNL     1      18.808   0.475  28.233  1.00  0.00    -0.271 OA
BRANCH  17  18
HETATM   18  C4  UNL     1      20.058   0.454  28.930  1.00  0.00     0.300 C
BRANCH  18  19
HETATM   19  C5  UNL     1      21.115   0.730  27.887  1.00  0.00     0.257 C
HETATM   20  N2  UNL     1      21.948  -0.259  27.386  1.00  0.00    -0.060 NA
HETATM   21  O3  UNL     1      21.283   1.910  27.432  1.00  0.00    -0.274 OA
ENDBRANCH  18  19
ENDBRANCH  17  18
ENDBRANCH  12  17
ENDBRANCH  10  11
BRANCH  10  22
HETATM   22  N3  UNL     1      18.268   0.055  23.571  1.00  0.00    -0.053 N
ATOM     23  H33 UNL     1      17.625  -0.500  23.006  1.00  0.00     0.277 HD
ATOM     24  H32 UNL     1      17.695   0.894  23.661  1.00  0.00     0.277 HD
ATOM     25  H31 UNL     1      19.147   0.237  23.088  1.00  0.00     0.277 HD
ENDBRANCH  10  22
ENDBRANCH   8  10
ENDBRANCH   1   8
BRANCH   6  26
HETATM   26  C10 UNL     1      23.765  -0.995  22.408  1.00  0.00     0.249 C
HETATM   27  O4  UNL     1      24.933  -1.413  22.238  1.00  0.00    -0.271 OA
HETATM   28  N6  UNL     1      23.066  -0.000  21.799  1.00  0.00    -0.347 N
ATOM     29  H6  UNL     1      22.171   0.074  22.281  1.00  0.00     0.163 HD
BRANCH  28  30
HETATM   30  C11 UNL     1      23.066   0.948  20.802  1.00  0.00     0.162 C
BRANCH  30  31
HETATM   31  C12 UNL     1      23.378   2.329  21.376  1.00  0.00     0.132 C
HETATM   32  N7  UNL     1      23.065   2.739  22.490  1.00  0.00    -0.382 N
ATOM     33  H72 UNL     1      22.562   2.139  23.144  1.00  0.00     0.158 HD
ATOM     34  H71 UNL     1      23.273   3.661  22.873  1.00  0.00     0.158 HD
BRANCH  31  35
HETATM   35  O5  UNL     1      24.067   3.149  20.481  1.00  0.00    -0.348 OA
ATOM     36  H5  UNL     1      24.959   3.332  20.755  1.00  0.00     0.219 HD
ENDBRANCH  31  35
ENDBRANCH  30  31
BRANCH  30  37
HETATM   37  C13 UNL     1      21.730   1.012  20.108  1.00  0.00     0.008 C
HETATM   38  C14 UNL     1      21.735   1.327  18.659  1.00  0.00     0.012 C
HETATM   39  C15 UNL     1      20.716   0.098  20.678  1.00  0.00     0.012 C
ENDBRANCH  30  37
ENDBRANCH  28  30
ENDBRANCH   6  26
TORSDOF 13
ENDMDL