MODEL 3
REMARK VINA RESULT: -8.337048941      1.785      2.039
REMARK  13 active torsions:
REMARK  status: ('A' for Active; 'I' for Inactive)
REMARK    1  A    between atoms: N2_3  and  C2_5
REMARK    2  A    between atoms: C2_5  and  N3_6
REMARK    3  A    between atoms: C2_5  and  C10_20
REMARK    4  A    between atoms: N3_6  and  C3_8
REMARK    5  A    between atoms: C3_8  and  C4_12
REMARK    6  A    between atoms: C4_12  and  C5_13
REMARK    7  A    between atoms: C5_13  and  C6_14
REMARK    8  A    between atoms: C6_14  and  C7_15
REMARK    9  A    between atoms: C7_15  and  C8_16
REMARK   10  A    between atoms: C8_16  and  C9_17
REMARK   11  A    between atoms: C10_20  and  N6_21
REMARK   12  A    between atoms: C10_20  and  N7_25
REMARK   13  A    between atoms: C14_31  and  C15_32
ROOT
HETATM    1  N1  UNL     1      15.623   0.001  20.144  1.00  0.00    -0.172 NA
HETATM    2  C1  UNL     1      16.147  -0.496  21.044  1.00  0.00     0.179 C
HETATM    3  N2  UNL     1      16.767  -1.114  22.117  1.00  0.00    -0.303 N
ATOM      4  H2  UNL     1      16.177  -1.677  22.729  1.00  0.00     0.174 HD
ENDROOT
BRANCH   3   5
HETATM    5  C2  UNL     1      18.174  -1.038  22.453  1.00  0.00     0.242 C
BRANCH   5   6
HETATM    6  N3  UNL     1      18.802  -0.015  21.689  1.00  0.00    -0.355 N
ATOM      7  H3  UNL     1      18.661   0.916  22.083  1.00  0.00     0.163 HD
BRANCH   6   8
HETATM    8  C3  UNL     1      19.556  -0.001  20.537  1.00  0.00     0.072 C
HETATM    9  N4  UNL     1      18.902   0.106  19.384  1.00  0.00    -0.389 N
ATOM     10  H42 UNL     1      17.888   0.164  19.472  1.00  0.00     0.157 HD
ATOM     11  H41 UNL     1      19.460   0.116  18.530  1.00  0.00     0.157 HD
BRANCH   8  12
HETATM   12  C4  UNL     1      21.000  -0.084  20.412  1.00  0.00     0.075 C
BRANCH  12  13
HETATM   13  C5  UNL     1      21.715   1.118  19.903  1.00  0.00     0.007 C
BRANCH  13  14
HETATM   14  C6  UNL     1      23.034   1.261  20.622  1.00  0.00     0.001 C
BRANCH  14  15
HETATM   15  C7  UNL     1      23.061   0.677  21.994  1.00  0.00     0.009 C
BRANCH  15  16
HETATM   16  C8  UNL     1      23.876  -0.622  22.003  1.00  0.00     0.099 C
BRANCH  16  17
HETATM   17  C9  UNL     1      23.881  -1.186  23.365  1.00  0.00     0.231 C
HETATM   18  N5  UNL     1      23.021  -2.263  23.695  1.00  0.00    -0.062 NA
HETATM   19  O1  UNL     1      24.641  -0.724  24.241  1.00  0.00    -0.277 OA
ENDBRANCH  16  17
ENDBRANCH  15  16
ENDBRANCH  14  15
ENDBRANCH  13  14
ENDBRANCH  12  13
ENDBRANCH   8  12
ENDBRANCH   6   8
ENDBRANCH   5   6
BRANCH   5  20
HETATM   20  C10 UNL     1      18.135  -0.514  23.939  1.00  0.00     0.326 C
BRANCH  20  21
HETATM   21  N6  UNL     1      17.438   0.733  23.903  1.00  0.00    -0.054 N
ATOM     22  H63 UNL     1      18.056   1.544  23.912  1.00  0.00     0.276 HD
ATOM     23  H62 UNL     1      16.994   0.924  23.005  1.00  0.00     0.276 HD
ATOM     24  H61 UNL     1      16.782   0.714  24.684  1.00  0.00     0.276 HD
ENDBRANCH  20  21
BRANCH  20  25
HETATM   25  N7  UNL     1      19.467  -0.363  24.421  1.00  0.00    -0.349 N
HETATM   26  C11 UNL     1      19.700  -0.384  25.686  1.00  0.00     0.084 C
HETATM   27  C12 UNL     1      21.131  -0.217  26.066  1.00  0.00     0.149 C
HETATM   28  N9  UNL     1      18.687  -0.552  26.643  1.00  0.00    -0.366 N
HETATM   29  S1  UNL     1      21.376   0.152  27.801  1.00  0.00    -0.159 SA
HETATM   30  C13 UNL     1      20.038  -0.718  28.707  1.00  0.00     0.108 C
HETATM   31  C14 UNL     1      18.746  -0.248  28.031  1.00  0.00     0.181 C
ATOM     32  H9  UNL     1      17.805  -0.936  26.302  1.00  0.00     0.161 HD
ATOM     33  H7  UNL     1      20.235  -0.240  23.762  1.00  0.00     0.163 HD
BRANCH  31  34
HETATM   34  C15 UNL     1      18.632   1.195  28.329  1.00  0.00     0.254 C
HETATM   35  N8  UNL     1      18.184   2.158  27.400  1.00  0.00    -0.060 NA
HETATM   36  O2  UNL     1      18.955   1.583  29.479  1.00  0.00    -0.275 OA
ENDBRANCH  31  34
ENDBRANCH  20  25
ENDBRANCH   5  20
ENDBRANCH   3   5
TORSDOF 13
ENDMDL