MODEL 3
REMARK VINA RESULT: -7.147802216      1.494      2.391
REMARK  15 active torsions:
REMARK  status: ('A' for Active; 'I' for Inactive)
REMARK    1  A    between atoms: N1_1  and  C1_5
REMARK    2  A    between atoms: C1_5  and  C2_6
REMARK    3  A    between atoms: C2_6  and  C3_7
REMARK    4  A    between atoms: C3_7  and  C4_8
REMARK    5  A    between atoms: C4_8  and  C5_9
REMARK    6  A    between atoms: C5_9  and  N2_10
REMARK    7  A    between atoms: N2_10  and  C6_13
REMARK    8  A    between atoms: C9_19  and  N4_20
REMARK    9  A    between atoms: C10_24  and  O1_25
REMARK   10  A    between atoms: O1_25  and  C11_26
REMARK   11  A    between atoms: C14_29  and  N5_30
REMARK       I    between atoms: N5_30  and  C15_32
REMARK   12  A    between atoms: C15_32  and  C16_34
REMARK   13  A    between atoms: C16_34  and  N6_35
REMARK   14  A    between atoms: C17_39  and  C18_40
REMARK   15  A    between atoms: C18_40  and  O3_41
ROOT
HETATM    1  C6  UNL     1      21.740  -0.371  22.275  1.00  0.00     0.242 C
HETATM    2  C7  UNL     1      23.145   0.062  21.926  1.00  0.00     0.268 C
HETATM    3  N3  UNL     1      24.074  -0.720  22.688  1.00  0.00    -0.071 N
ATOM      4  H31 UNL     1      24.550  -0.134  23.374  1.00  0.00     0.277 HD
ATOM      5  H32 UNL     1      24.868  -0.992  22.107  1.00  0.00     0.277 HD
HETATM    6  C8  UNL     1      23.506  -1.874  23.325  1.00  0.00     0.267 C
HETATM    7  C9  UNL     1      22.391  -1.520  24.284  1.00  0.00     0.239 C
HETATM    8  C10 UNL     1      21.643  -0.264  23.775  1.00  0.00     0.189 C
ENDROOT
BRANCH   8   9
HETATM    9  O1  UNL     1      20.366  -0.317  24.260  1.00  0.00    -0.352 OA
BRANCH   9  10
HETATM   10  C11 UNL     1      20.073   0.644  25.234  1.00  0.00     0.261 C
HETATM   11  C12 UNL     1      20.367   0.097  26.617  1.00  0.00     0.063 C
HETATM   12  C13 UNL     1      19.379  -0.959  26.998  1.00  0.00     0.032 C
HETATM   13  C14 UNL     1      17.980  -0.509  26.706  1.00  0.00     0.115 C
HETATM   14  C17 UNL     1      17.866   0.801  26.000  1.00  0.00     0.170 C
HETATM   15  O4  UNL     1      18.809   1.086  25.065  1.00  0.00    -0.352 OA
BRANCH  13  16
HETATM   16  N5  UNL     1      17.316  -1.585  26.004  1.00  0.00    -0.352 N
HETATM   17  C15 UNL     1      16.141  -1.321  25.272  1.00  0.00     0.243 C
HETATM   18  O2  UNL     1      15.696  -0.152  25.245  1.00  0.00    -0.272 OA
ATOM     19  H5  UNL     1      17.696  -2.531  26.039  1.00  0.00     0.163 HD
BRANCH  17  20
HETATM   20  C16 UNL     1      15.404  -2.373  24.527  1.00  0.00     0.332 C
BRANCH  20  21
HETATM   21  N6  UNL     1      15.372  -3.607  25.267  1.00  0.00    -0.071 N
ATOM     22  H63 UNL     1      14.809  -4.314  24.794  1.00  0.00     0.274 HD
ATOM     23  H62 UNL     1      16.274  -4.083  25.243  1.00  0.00     0.274 HD
ATOM     24  H61 UNL     1      15.054  -3.452  26.224  1.00  0.00     0.274 HD
ENDBRANCH  20  21
ENDBRANCH  17  20
ENDBRANCH  13  16
BRANCH  14  25
HETATM   25  C18 UNL     1      17.625   1.962  26.968  1.00  0.00     0.198 C
BRANCH  25  26
HETATM   26  O3  UNL     1      17.845   3.178  26.294  1.00  0.00    -0.398 OA
ATOM     27  H3  UNL     1      17.759   3.897  26.910  1.00  0.00     0.209 HD
ENDBRANCH  25  26
ENDBRANCH  14  25
ENDBRANCH   9  10
ENDBRANCH   8   9
BRANCH   1  28
HETATM   28  N2  UNL     1      20.778   0.479  21.666  1.00  0.00    -0.067 N
ATOM     29  H22 UNL     1      20.698   1.353  22.187  1.00  0.00     0.277 HD
ATOM     30  H21 UNL     1      19.839   0.106  21.802  1.00  0.00     0.277 HD
BRANCH  28  31
HETATM   31  C5  UNL     1      21.009   0.749  20.271  1.00  0.00     0.233 C
BRANCH  31  32
HETATM   32  C4  UNL     1      19.783   0.697  19.427  1.00  0.00     0.027 C
BRANCH  32  33
HETATM   33  C3  UNL     1      18.901  -0.462  19.766  1.00  0.00     0.003 C
BRANCH  33  34
HETATM   34  C2  UNL     1      17.515  -0.078  20.165  1.00  0.00     0.027 C
BRANCH  34  35
HETATM   35  C1  UNL     1      17.075  -0.713  21.462  1.00  0.00     0.229 C
BRANCH  35  36
HETATM   36  N1  UNL     1      17.561   0.067  22.587  1.00  0.00    -0.079 N
ATOM     37  H13 UNL     1      16.818   0.285  23.251  1.00  0.00     0.274 HD
ATOM     38  H12 UNL     1      18.157  -0.484  23.205  1.00  0.00     0.274 HD
ATOM     39  H11 UNL     1      18.032   0.907  22.250  1.00  0.00     0.274 HD
ENDBRANCH  35  36
ENDBRANCH  34  35
ENDBRANCH  33  34
ENDBRANCH  32  33
ENDBRANCH  31  32
ENDBRANCH  28  31
ENDBRANCH   1  28
BRANCH   7  40
HETATM   40  N4  UNL     1      21.447  -2.620  24.276  1.00  0.00    -0.071 N
ATOM     41  H43 UNL     1      21.895  -3.530  24.384  1.00  0.00     0.274 HD
ATOM     42  H42 UNL     1      20.869  -2.656  25.116  1.00  0.00     0.274 HD
ATOM     43  H41 UNL     1      20.899  -2.545  23.419  1.00  0.00     0.274 HD
ENDBRANCH   7  40
TORSDOF 15
ENDMDL