MODEL 5
REMARK VINA RESULT: -5.886096433      5.275      8.570
REMARK  16 active torsions:
REMARK  status: ('A' for Active; 'I' for Inactive)
REMARK    1  A    between atoms: C2_5  and  N3_6
REMARK    2  A    between atoms: C3_10  and  O1_11
REMARK    3  A    between atoms: C4_13  and  N4_14
REMARK    4  A    between atoms: N4_14  and  N5_15
REMARK    5  A    between atoms: N4_14  and  C5_18
REMARK    6  A    between atoms: C7_20  and  N6_21
REMARK    7  A    between atoms: C7_20  and  O2_25
REMARK    8  A    between atoms: N7_28  and  N8_29
REMARK    9  A    between atoms: N8_29  and  C8_31
REMARK   10  A    between atoms: C8_31  and  C9_32
REMARK   11  A    between atoms: C10_33  and  O4_34
REMARK   12  A    between atoms: C11_37  and  C12_38
REMARK   13  A    between atoms: C12_38  and  O6_39
REMARK   14  A    between atoms: C12_38  and  C13_41
REMARK   15  A    between atoms: C13_41  and  O7_42
REMARK   16  A    between atoms: C14_44  and  O8_45
ROOT
HETATM    1  N1  UNL     1      30.892  10.467   9.695  1.00  0.00    -0.062 NA
HETATM    2  C1  UNL     1      32.149   9.730   9.609  1.00  0.00     0.208 C
HETATM    3  N2  UNL     1      32.227   8.886   8.671  1.00  0.00    -0.333 N
ATOM      4  H2  UNL     1      31.463   8.743   8.012  1.00  0.00     0.164 HD
HETATM    5  C2  UNL     1      33.492   8.116   8.582  1.00  0.00     0.316 C
HETATM    6  C3  UNL     1      34.558   9.094   8.907  1.00  0.00     0.213 C
HETATM    7  C4  UNL     1      34.544   9.541  10.338  1.00  0.00     0.261 C
HETATM    8  N7  UNL     1      33.190   9.994  10.614  1.00  0.00    -0.240 N
ENDROOT
BRANCH   8   9
HETATM    9  N8  UNL     1      32.653  10.638  11.680  1.00  0.00    -0.325 N
ATOM     10  H8  UNL     1      31.721  10.355  11.983  1.00  0.00     0.180 HD
BRANCH   9  11
HETATM   11  C8  UNL     1      33.294  11.681  12.405  1.00  0.00     0.186 C
BRANCH  11  12
HETATM   12  C9  UNL     1      32.697  12.962  11.824  1.00  0.00     0.055 A
HETATM   13  C10 UNL     1      31.376  13.284  11.637  1.00  0.00     0.194 A
HETATM   14  O5  UNL     1      31.316  14.478  10.994  1.00  0.00    -0.286 OA
HETATM   15  C11 UNL     1      32.520  14.885  10.794  1.00  0.00     0.120 A
HETATM   16  C14 UNL     1      33.443  13.980  11.289  1.00  0.00     0.111 A
BRANCH  13  17
HETATM   17  O4  UNL     1      30.241  12.606  12.005  1.00  0.00    -0.340 OA
ATOM     18  H4  UNL     1      29.597  12.156  11.470  1.00  0.00     0.220 HD
ENDBRANCH  13  17
BRANCH  15  19
HETATM   19  C12 UNL     1      32.918  16.156  10.132  1.00  0.00     0.201 C
BRANCH  19  20
HETATM   20  O6  UNL     1      33.927  16.817  10.689  1.00  0.00    -0.387 OA
ATOM     21  H6  UNL     1      33.791  17.118  11.580  1.00  0.00     0.210 HD
ENDBRANCH  19  20
BRANCH  19  22
HETATM   22  C13 UNL     1      33.014  15.968   8.633  1.00  0.00     0.202 C
BRANCH  22  23
HETATM   23  O7  UNL     1      32.107  15.020   8.218  1.00  0.00    -0.398 OA
ATOM     24  H7  UNL     1      31.295  15.439   7.957  1.00  0.00     0.209 HD
ENDBRANCH  22  23
ENDBRANCH  19  22
ENDBRANCH  15  19
BRANCH  16  25
HETATM   25  O8  UNL     1      34.833  14.079  11.236  1.00  0.00    -0.357 OA
ATOM     26  H8  UNL     1      35.443  14.062  11.964  1.00  0.00     0.217 HD
ENDBRANCH  16  25
ENDBRANCH  11  12
ENDBRANCH   9  11
ENDBRANCH   8   9
BRANCH   7  27
HETATM   27  N4  UNL     1      35.093   8.689  11.259  1.00  0.00    -0.277 N
BRANCH  27  28
HETATM   28  N5  UNL     1      36.404   8.227  11.076  1.00  0.00    -0.343 N
ATOM     29  H52 UNL     1      36.887   8.043  11.955  1.00  0.00     0.176 HD
ATOM     30  H51 UNL     1      36.795   8.187  10.134  1.00  0.00     0.176 HD
ENDBRANCH  27  28
BRANCH  27  31
HETATM   31  C5  UNL     1      34.536   8.282  12.473  1.00  0.00     0.253 C
HETATM   32  C6  UNL     1      35.041   8.776  13.795  1.00  0.00     0.156 C
HETATM   33  C7  UNL     1      35.066   7.296  14.238  1.00  0.00     0.339 C
HETATM   34  O3  UNL     1      34.889   6.988  12.905  1.00  0.00    -0.306 OA
BRANCH  33  35
HETATM   35  N6  UNL     1      34.049   7.032  15.184  1.00  0.00    -0.021 N
ATOM     36  H63 UNL     1      33.238   6.592  14.750  1.00  0.00     0.280 HD
ATOM     37  H62 UNL     1      34.313   6.279  15.818  1.00  0.00     0.280 HD
ATOM     38  H61 UNL     1      33.792   7.878  15.691  1.00  0.00     0.280 HD
ENDBRANCH  33  35
BRANCH  33  39
HETATM   39  O2  UNL     1      36.316   6.947  14.759  1.00  0.00    -0.344 OA
ATOM     40  H2  UNL     1      36.339   6.030  15.009  1.00  0.00     0.215 HD
ENDBRANCH  33  39
ENDBRANCH  27  31
ENDBRANCH   7  27
BRANCH   6  41
HETATM   41  O1  UNL     1      35.762   8.958   8.283  1.00  0.00    -0.388 OA
ATOM     42  H1  UNL     1      36.234   9.748   8.047  1.00  0.00     0.210 HD
ENDBRANCH   6  41
BRANCH   5  43
HETATM   43  N3  UNL     1      33.291   6.977   9.405  1.00  0.00    -0.056 N
ATOM     44  H33 UNL     1      33.839   6.986  10.265  1.00  0.00     0.276 HD
ATOM     45  H32 UNL     1      32.374   6.947   9.851  1.00  0.00     0.276 HD
ATOM     46  H31 UNL     1      33.483   6.176   8.802  1.00  0.00     0.276 HD
ENDBRANCH   5  43
TORSDOF 16
ENDMDL