MODEL 4
REMARK VINA RESULT: -5.673779659      2.823      7.020
REMARK  14 active torsions:
REMARK  status: ('A' for Active; 'I' for Inactive)
REMARK    1  A    between atoms: N1_1  and  C1_4
REMARK    2  A    between atoms: C2_7  and  N3_8
REMARK    3  A    between atoms: N5_15  and  C5_16
REMARK    4  A    between atoms: C5_16  and  C6_17
REMARK    5  A    between atoms: C7_27  and  C8_28
REMARK    6  A    between atoms: C8_28  and  O2_29
REMARK    7  A    between atoms: C8_28  and  C9_31
REMARK    8  A    between atoms: C9_31  and  O3_32
REMARK    9  A    between atoms: C9_31  and  C10_34
REMARK   10  A    between atoms: C10_34  and  O4_35
REMARK   11  A    between atoms: C10_34  and  N10_37
REMARK   12  A    between atoms: N10_37  and  N11_38
REMARK   13  A    between atoms: C11_41  and  O5_42
REMARK   14  A    between atoms: C12_44  and  O6_45
ROOT
HETATM    1  C5  UNL     1      33.112  12.073  10.925  1.00  0.00     0.234 C
HETATM    2  O1  UNL     1      32.421  11.808   9.775  1.00  0.00    -0.340 OA
HETATM    3  C7  UNL     1      31.055  12.114   9.969  1.00  0.00     0.188 C
HETATM    4  C11 UNL     1      30.827  11.670  11.375  1.00  0.00     0.183 C
HETATM    5  C12 UNL     1      32.095  12.187  12.043  1.00  0.00     0.214 C
ENDROOT
BRANCH   1   6
HETATM    6  N5  UNL     1      33.990  10.976  11.226  1.00  0.00    -0.285 N
HETATM    7  C4  UNL     1      34.393  10.705  12.503  1.00  0.00     0.189 A
HETATM    8  N4  UNL     1      35.200   9.635  12.487  1.00  0.00    -0.346 N
HETATM    9  C3  UNL     1      35.340   9.191  11.231  1.00  0.00     0.123 A
ATOM     10  H4  UNL     1      35.640   9.221  13.308  1.00  0.00     0.167 HD
HETATM   11  C2  UNL     1      36.015   8.166  10.616  1.00  0.00     0.145 A
HETATM   12  C13 UNL     1      34.571  10.043  10.429  1.00  0.00     0.158 A
HETATM   13  N2  UNL     1      35.942   7.979   9.276  1.00  0.00    -0.175 N
HETATM   14  C1  UNL     1      35.191   8.822   8.547  1.00  0.00     0.679 A
ATOM     15  H2  UNL     1      36.448   7.214   8.830  1.00  0.00     0.186 HD
HETATM   16  N12 UNL     1      34.509   9.845   9.105  1.00  0.00    -0.174 N
ATOM     17  H12 UNL     1      33.948  10.466   8.521  1.00  0.00     0.186 HD
BRANCH  11  18
HETATM   18  N3  UNL     1      36.726   7.373  11.326  1.00  0.00    -0.383 N
ATOM     19  H32 UNL     1      37.112   6.533  10.897  1.00  0.00     0.157 HD
ATOM     20  H31 UNL     1      36.896   7.592  12.308  1.00  0.00     0.157 HD
ENDBRANCH  11  18
BRANCH  14  21
HETATM   21  N1  UNL     1      35.099   8.675   7.273  1.00  0.00    -0.234 N
ATOM     22  H12 UNL     1      34.194   8.862   6.843  1.00  0.00     0.174 HD
ATOM     23  H11 UNL     1      35.910   8.383   6.727  1.00  0.00     0.174 HD
ENDBRANCH  14  21
ENDBRANCH   1   6
BRANCH   1  24
HETATM   24  C6  UNL     1      33.757  13.405  10.855  1.00  0.00     0.173 A
HETATM   25  N6  UNL     1      34.618  13.935  11.704  1.00  0.00    -0.268 N
HETATM   26  N7  UNL     1      34.918  15.137  11.278  1.00  0.00    -0.227 N
ATOM     27  H6  UNL     1      34.985  13.489  12.544  1.00  0.00     0.190 HD
HETATM   28  N8  UNL     1      34.257  15.375  10.167  1.00  0.00    -0.227 N
ATOM     29  H7  UNL     1      35.560  15.785  11.735  1.00  0.00     0.210 HD
HETATM   30  N9  UNL     1      33.536  14.315   9.893  1.00  0.00    -0.268 N
ATOM     31  H8  UNL     1      34.298  16.232   9.615  1.00  0.00     0.210 HD
ATOM     32  H9  UNL     1      32.916  14.201   9.091  1.00  0.00     0.190 HD
ENDBRANCH   1  24
BRANCH   5  33
HETATM   33  O6  UNL     1      31.807  13.535  12.341  1.00  0.00    -0.387 OA
ATOM     34  H6  UNL     1      31.185  13.607  13.055  1.00  0.00     0.210 HD
ENDBRANCH   5  33
BRANCH   3  35
HETATM   35  C8  UNL     1      30.295  11.263   8.951  1.00  0.00     0.182 C
BRANCH  35  36
HETATM   36  O2  UNL     1      31.247  10.382   8.370  1.00  0.00    -0.390 OA
ATOM     37  H2  UNL     1      31.552  10.801   7.574  1.00  0.00     0.210 HD
ENDBRANCH  35  36
BRANCH  35  38
HETATM   38  C9  UNL     1      29.707  12.031   7.821  1.00  0.00     0.195 C
BRANCH  38  39
HETATM   39  O3  UNL     1      28.349  12.199   7.829  1.00  0.00    -0.389 OA
ATOM     40  H3  UNL     1      27.847  11.613   8.382  1.00  0.00     0.210 HD
ENDBRANCH  38  39
BRANCH  38  41
HETATM   41  C10 UNL     1      30.141  11.417   6.486  1.00  0.00     0.261 C
BRANCH  41  42
HETATM   42  O4  UNL     1      29.112  10.637   5.948  1.00  0.00    -0.375 OA
ATOM     43  H4  UNL     1      28.939   9.886   6.503  1.00  0.00     0.211 HD
ENDBRANCH  41  42
BRANCH  41  44
HETATM   44  N10 UNL     1      30.418  12.456   5.517  1.00  0.00    -0.113 NA
BRANCH  44  45
HETATM   45  N11 UNL     1      29.202  12.878   4.984  1.00  0.00    -0.346 N
ATOM     46 2H11 UNL     1      28.283  12.651   5.363  1.00  0.00     0.172 HD
ATOM     47 1H11 UNL     1      29.401  13.447   4.162  1.00  0.00     0.172 HD
ENDBRANCH  44  45
ENDBRANCH  41  44
ENDBRANCH  38  41
ENDBRANCH  35  38
ENDBRANCH   3  35
BRANCH   4  48
HETATM   48  O5  UNL     1      29.728  12.275  11.999  1.00  0.00    -0.390 OA
ATOM     49  H5  UNL     1      29.071  11.664  12.311  1.00  0.00     0.210 HD
ENDBRANCH   4  48
TORSDOF 14
ENDMDL