MODEL 2
REMARK VINA RESULT: -6.009153542      2.864      5.715
REMARK  10 active torsions:
REMARK  status: ('A' for Active; 'I' for Inactive)
REMARK    1  A    between atoms: C2_3  and  N2_4
REMARK    2  A    between atoms: N2_4  and  C3_6
REMARK    3  A    between atoms: N3_7  and  C4_9
REMARK    4  A    between atoms: N6_12  and  N7_13
REMARK    5  A    between atoms: C6_24  and  C7_25
REMARK    6  A    between atoms: C7_25  and  O3_26
REMARK    7  A    between atoms: C8_30  and  C9_31
REMARK    8  A    between atoms: C9_31  and  N11_32
REMARK    9  A    between atoms: C9_31  and  O4_36
REMARK   10  A    between atoms: N12_38  and  N13_39
ROOT
HETATM    1  C3  UNL     1      32.287   8.565   9.725  1.00  0.00     0.179 C
HETATM    2  N3  UNL     1      32.011   9.514  10.532  1.00  0.00    -0.363 N
ATOM      3  H3  UNL     1      31.920   9.316  11.529  1.00  0.00     0.162 HD
ENDROOT
BRANCH   1   4
HETATM    4  N2  UNL     1      32.410   8.860   8.341  1.00  0.00    -0.337 N
ATOM      5  H2  UNL     1      31.597   9.147   7.794  1.00  0.00     0.168 HD
BRANCH   4   6
HETATM    6  C2  UNL     1      33.684   8.748   7.737  1.00  0.00     0.138 A
HETATM    7  C1  UNL     1      33.756   8.664   6.366  1.00  0.00     0.160 A
HETATM    8  N1  UNL     1      32.595   8.687   5.561  1.00  0.00    -0.092 NA
HETATM    9  C10 UNL     1      35.010   8.557   5.800  1.00  0.00     0.295 A
HETATM   10  N12 UNL     1      36.120   8.537   6.591  1.00  0.00    -0.208 N
HETATM   11  O5  UNL     1      35.114   8.477   4.543  1.00  0.00    -0.264 OA
HETATM   12  C8  UNL     1      36.042   8.619   7.926  1.00  0.00     0.164 A
HETATM   13  N10 UNL     1      34.801   8.725   8.480  1.00  0.00    -0.325 N
ATOM     14  H10 UNL     1      34.719   8.788   9.495  1.00  0.00     0.169 HD
BRANCH  10  15
HETATM   15  N13 UNL     1      37.357   8.429   5.989  1.00  0.00    -0.334 N
ATOM     16 2H13 UNL     1      38.086   7.895   6.464  1.00  0.00     0.177 HD
ATOM     17 1H13 UNL     1      37.518   8.880   5.089  1.00  0.00     0.177 HD
ENDBRANCH  10  15
BRANCH  12  18
HETATM   18  C9  UNL     1      37.247   8.598   8.802  1.00  0.00     0.387 C
BRANCH  18  19
HETATM   19  N11 UNL     1      36.856   8.958  10.153  1.00  0.00    -0.046 N
ATOM     20 3H11 UNL     1      36.313   8.224  10.608  1.00  0.00     0.277 HD
ATOM     21 2H11 UNL     1      37.648   8.969  10.796  1.00  0.00     0.277 HD
ATOM     22 1H11 UNL     1      36.362   9.849  10.130  1.00  0.00     0.277 HD
ENDBRANCH  18  19
BRANCH  18  23
HETATM   23  O4  UNL     1      37.798   7.321   8.758  1.00  0.00    -0.364 OA
ATOM     24  H4  UNL     1      38.647   7.347   9.184  1.00  0.00     0.212 HD
ENDBRANCH  18  23
ENDBRANCH  12  18
ENDBRANCH   4   6
ENDBRANCH   1   4
BRANCH   2  25
HETATM   25  C4  UNL     1      31.825  10.867  10.053  1.00  0.00     0.250 C
HETATM   26  N4  UNL     1      30.433  10.948   9.587  1.00  0.00    -0.094 NA
HETATM   27  N5  UNL     1      29.656  11.083  10.743  1.00  0.00    -0.009 NA
HETATM   28  N6  UNL     1      30.420  11.856  11.556  1.00  0.00    -0.191 N
HETATM   29  C5  UNL     1      31.777  11.857  11.204  1.00  0.00     0.208 C
HETATM   30  N8  UNL     1      32.540  11.377  12.350  1.00  0.00    -0.267 N
HETATM   31  C6  UNL     1      32.372  13.182  10.868  1.00  0.00     0.174 C
HETATM   32  S1  UNL     1      34.152  11.963  12.013  1.00  0.00     0.317 S
ATOM     33  H8  UNL     1      32.214  10.835  13.150  1.00  0.00     0.176 HD
HETATM   34  O1  UNL     1      35.082  10.854  11.706  1.00  0.00    -0.183 OA
HETATM   35  O2  UNL     1      34.669  12.794  13.154  1.00  0.00    -0.183 OA
HETATM   36  N9  UNL     1      33.781  12.934  10.630  1.00  0.00    -0.291 N
ATOM     37  H9  UNL     1      34.382  13.243   9.866  1.00  0.00     0.174 HD
BRANCH  28  38
HETATM   38  N7  UNL     1      29.880  12.906  12.195  1.00  0.00    -0.328 N
ATOM     39  H72 UNL     1      30.433  13.744  12.376  1.00  0.00     0.178 HD
ATOM     40  H71 UNL     1      28.879  13.091  12.123  1.00  0.00     0.178 HD
ENDBRANCH  28  38
BRANCH  31  41
HETATM   41  C7  UNL     1      31.745  13.838   9.675  1.00  0.00     0.194 C
BRANCH  41  42
HETATM   42  O3  UNL     1      30.869  14.829  10.163  1.00  0.00    -0.399 OA
ATOM     43  H3  UNL     1      30.014  14.653   9.788  1.00  0.00     0.209 HD
ENDBRANCH  41  42
ENDBRANCH  31  41
ENDBRANCH   2  25
TORSDOF 10
ENDMDL