MODEL 4
REMARK VINA RESULT: -5.065759983      3.021      6.165
REMARK  15 active torsions:
REMARK  status: ('A' for Active; 'I' for Inactive)
REMARK    1  A    between atoms: C2_2  and  C14_42
REMARK    2  A    between atoms: N1_3  and  N2_5
REMARK    3  A    between atoms: C3_6  and  N3_7
REMARK    4  A    between atoms: N3_7  and  N4_9
REMARK    5  A    between atoms: N5_12  and  C4_13
REMARK    6  A    between atoms: C5_15  and  C6_16
REMARK    7  A    between atoms: C6_16  and  O2_17
REMARK    8  A    between atoms: C6_16  and  C7_19
REMARK    9  A    between atoms: C7_19  and  O3_20
REMARK   10  A    between atoms: C8_22  and  O4_23
REMARK   11  A    between atoms: C9_25  and  O5_26
REMARK   12  A    between atoms: C11_31  and  N7_32
REMARK   13  A    between atoms: C12_37  and  N9_38
REMARK   14  A    between atoms: C14_42  and  N10_43
REMARK   15  A    between atoms: C14_42  and  N11_47
ROOT
HETATM    1  N2  UNL     1      34.476   9.096  10.876  1.00  0.00    -0.077 N
HETATM    2  C3  UNL     1      33.188   9.485  10.717  1.00  0.00     0.724 A
HETATM    3  N5  UNL     1      32.932  10.595  11.402  1.00  0.00    -0.132 N
HETATM    4  C10 UNL     1      34.066  10.938  12.022  1.00  0.00     0.175 A
HETATM    5  N6  UNL     1      34.404  11.948  12.842  1.00  0.00    -0.173 N
ATOM      6  H6  UNL     1      33.703  12.645  13.090  1.00  0.00     0.186 HD
HETATM    7  C11 UNL     1      35.645  12.058  13.340  1.00  0.00     0.679 A
HETATM    8  N8  UNL     1      36.588  11.167  13.039  1.00  0.00    -0.175 N
ATOM      9  H8  UNL     1      37.524  11.273  13.431  1.00  0.00     0.186 HD
HETATM   10  C12 UNL     1      36.324  10.124  12.221  1.00  0.00     0.148 A
HETATM   11  C13 UNL     1      35.053   9.993  11.697  1.00  0.00     0.164 A
ENDROOT
BRANCH   3  12
HETATM   12  C4  UNL     1      31.695  11.336  11.503  1.00  0.00     0.279 C
HETATM   13  O1  UNL     1      31.921  12.730  11.425  1.00  0.00    -0.352 OA
HETATM   14  C5  UNL     1      30.608  13.195  11.370  1.00  0.00     0.186 C
HETATM   15  C8  UNL     1      30.053  12.397  10.209  1.00  0.00     0.182 C
HETATM   16  C9  UNL     1      30.690  11.030  10.467  1.00  0.00     0.199 C
BRANCH  14  17
HETATM   17  C6  UNL     1      30.650  14.674  11.087  1.00  0.00     0.173 C
BRANCH  17  18
HETATM   18  O2  UNL     1      30.044  15.378  12.118  1.00  0.00    -0.391 OA
ATOM     19  H2  UNL     1      30.458  16.227  12.225  1.00  0.00     0.210 HD
ENDBRANCH  17  18
BRANCH  17  20
HETATM   20  C7  UNL     1      32.055  15.187  10.912  1.00  0.00     0.198 C
BRANCH  20  21
HETATM   21  O3  UNL     1      32.336  15.105   9.530  1.00  0.00    -0.398 OA
ATOM     22  H3  UNL     1      32.211  14.195   9.287  1.00  0.00     0.209 HD
ENDBRANCH  20  21
ENDBRANCH  17  20
ENDBRANCH  14  17
BRANCH  15  23
HETATM   23  O4  UNL     1      30.535  12.841   8.985  1.00  0.00    -0.390 OA
ATOM     24  H4  UNL     1      30.035  12.499   8.254  1.00  0.00     0.210 HD
ENDBRANCH  15  23
BRANCH  16  25
HETATM   25  O5  UNL     1      29.654  10.202  10.957  1.00  0.00    -0.388 OA
ATOM     26  H5  UNL     1      29.358   9.576  10.307  1.00  0.00     0.210 HD
ENDBRANCH  16  25
ENDBRANCH   3  12
BRANCH   2  27
HETATM   27  N3  UNL     1      32.338   8.850  10.027  1.00  0.00    -0.136 N
ATOM     28  H3  UNL     1      31.608   8.379  10.561  1.00  0.00     0.205 HD
BRANCH  27  29
HETATM   29  N4  UNL     1      32.256   8.702   8.655  1.00  0.00    -0.331 N
ATOM     30  H42 UNL     1      33.131   8.889   8.163  1.00  0.00     0.177 HD
ATOM     31  H41 UNL     1      31.457   8.438   8.079  1.00  0.00     0.177 HD
ENDBRANCH  27  29
ENDBRANCH   2  27
BRANCH   1  32
HETATM   32  N1  UNL     1      35.128   8.021  10.311  1.00  0.00    -0.284 N
HETATM   33  C2  UNL     1      35.678   7.940   9.178  1.00  0.00     0.058 C
HETATM   34  C1  UNL     1      36.318   6.657   8.800  1.00  0.00     0.069 C
ATOM     35  H1  UNL     1      35.172   7.179  10.884  1.00  0.00     0.187 HD
BRANCH  33  36
HETATM   36  C14 UNL     1      35.739   9.058   8.212  1.00  0.00     0.424 C
BRANCH  36  37
HETATM   37  N10 UNL     1      35.643   8.601   6.839  1.00  0.00    -0.045 N
ATOM     38 3H10 UNL     1      35.306   9.342   6.226  1.00  0.00     0.277 HD
ATOM     39 2H10 UNL     1      36.567   8.460   6.431  1.00  0.00     0.277 HD
ATOM     40 1H10 UNL     1      35.069   7.762   6.754  1.00  0.00     0.277 HD
ENDBRANCH  36  37
BRANCH  36  41
HETATM   41  N11 UNL     1      37.026   9.764   8.311  1.00  0.00    -0.045 N
ATOM     42 3H11 UNL     1      36.900  10.775   8.344  1.00  0.00     0.277 HD
ATOM     43 2H11 UNL     1      37.459   9.633   9.224  1.00  0.00     0.277 HD
ATOM     44 1H11 UNL     1      37.650   9.487   7.553  1.00  0.00     0.277 HD
ENDBRANCH  36  41
ENDBRANCH  33  36
ENDBRANCH   1  32
BRANCH   7  45
HETATM   45  N7  UNL     1      35.869  13.070  14.122  1.00  0.00    -0.234 N
ATOM     46  H72 UNL     1      36.541  13.801  13.890  1.00  0.00     0.174 HD
ATOM     47  H71 UNL     1      35.336  13.103  14.991  1.00  0.00     0.174 HD
ENDBRANCH   7  45
BRANCH  10  48
HETATM   48  N9  UNL     1      37.246   9.320  12.002  1.00  0.00    -0.383 N
ATOM     49  H92 UNL     1      38.167   9.384  12.435  1.00  0.00     0.157 HD
ATOM     50  H91 UNL     1      37.067   8.568  11.336  1.00  0.00     0.157 HD
ENDBRANCH  10  48
TORSDOF 15
ENDMDL