MODEL 5
REMARK VINA RESULT: -5.920507663      0.958      1.104
REMARK  14 active torsions:
REMARK  status: ('A' for Active; 'I' for Inactive)
REMARK    1  A    between atoms: C2_2  and  N2_6
REMARK    2  A    between atoms: C3_7  and  O1_8
REMARK    3  A    between atoms: C4_10  and  O2_11
REMARK    4  A    between atoms: C5_13  and  O3_14
REMARK    5  A    between atoms: N3_16  and  C6_17
REMARK    6  A    between atoms: C7_18  and  O4_19
REMARK    7  A    between atoms: C9_23  and  N5_24
REMARK    8  A    between atoms: N5_24  and  C10_26
REMARK    9  A    between atoms: C10_26  and  O5_27
REMARK   10  A    between atoms: C10_26  and  C11_29
REMARK   11  A    between atoms: C11_29  and  C12_30
REMARK       I    between atoms: C12_30  and  N6_32
REMARK   12  A    between atoms: N6_32  and  N7_34
REMARK   13  A    between atoms: N7_34  and  C13_36
REMARK   14  A    between atoms: N11_43  and  N12_44
ROOT
HETATM    1  C6  UNL     1      33.174  16.883   3.341  1.00  0.00     0.183 A
HETATM    2  C7  UNL     1      32.425  15.735   3.498  1.00  0.00     0.141 A
HETATM    3  C8  UNL     1      32.194  15.565   4.873  1.00  0.00     0.129 A
HETATM    4  N4  UNL     1      31.425  14.506   5.403  1.00  0.00    -0.095 NA
HETATM    5  C9  UNL     1      32.799  16.590   5.505  1.00  0.00     0.154 A
HETATM    6  N11 UNL     1      33.389  17.384   4.557  1.00  0.00    -0.224 N
ENDROOT
BRANCH   5   7
HETATM    7  N5  UNL     1      32.899  16.821   6.896  1.00  0.00    -0.346 N
ATOM      8  H5  UNL     1      32.632  17.743   7.241  1.00  0.00     0.163 HD
BRANCH   7   9
HETATM    9  C10 UNL     1      33.349  15.853   7.862  1.00  0.00     0.228 C
BRANCH   9  10
HETATM   10  O5  UNL     1      32.298  14.938   8.149  1.00  0.00    -0.376 OA
ATOM     11  H5  UNL     1      31.576  15.081   7.548  1.00  0.00     0.212 HD
ENDBRANCH   9  10
BRANCH   9  12
HETATM   12  C11 UNL     1      33.524  16.605   9.190  1.00  0.00     0.158 C
BRANCH  12  13
HETATM   13  C12 UNL     1      33.061  15.775  10.348  1.00  0.00     0.240 C
HETATM   14  O6  UNL     1      32.021  16.168  10.939  1.00  0.00    -0.272 OA
HETATM   15  N6  UNL     1      33.772  14.613  10.736  1.00  0.00    -0.256 N
ATOM     16  H6  UNL     1      34.608  14.339  10.221  1.00  0.00     0.190 HD
BRANCH  15  17
HETATM   17  N7  UNL     1      33.348  13.843  11.806  1.00  0.00    -0.127 N
ATOM     18  H7  UNL     1      33.925  13.808  12.646  1.00  0.00     0.206 HD
BRANCH  17  19
HETATM   19  C13 UNL     1      32.138  13.102  11.774  1.00  0.00     0.728 A
HETATM   20  N8  UNL     1      31.704  11.859  11.467  1.00  0.00    -0.114 N
HETATM   21  N9  UNL     1      30.460  12.157  11.749  1.00  0.00    -0.214 N
ATOM     22  H8  UNL     1      32.169  11.012  11.139  1.00  0.00     0.207 HD
HETATM   23  N10 UNL     1      30.857  13.385  12.057  1.00  0.00    -0.114 N
ATOM     24  H9  UNL     1      29.570  11.659  11.737  1.00  0.00     0.209 HD
ATOM     25  H10 UNL     1      30.374  14.222  12.383  1.00  0.00     0.207 HD
ENDBRANCH  17  19
ENDBRANCH  15  17
ENDBRANCH  12  13
ENDBRANCH   9  12
ENDBRANCH   7   9
ENDBRANCH   5   7
BRANCH   6  26
HETATM   26  N12 UNL     1      34.102  18.548   4.845  1.00  0.00    -0.335 N
ATOM     27 2H12 UNL     1      33.755  19.491   4.665  1.00  0.00     0.177 HD
ATOM     28 1H12 UNL     1      35.034  18.590   5.257  1.00  0.00     0.177 HD
ENDBRANCH   6  26
BRANCH   2  29
HETATM   29  O4  UNL     1      31.964  14.874   2.505  1.00  0.00    -0.355 OA
ATOM     30  H4  UNL     1      32.302  14.016   2.277  1.00  0.00     0.218 HD
ENDBRANCH   2  29
BRANCH   1  31
HETATM   31  N3  UNL     1      33.624  17.380   2.087  1.00  0.00    -0.234 N
HETATM   32  N2  UNL     1      34.927  17.290   1.536  1.00  0.00    -0.243 N
HETATM   33  C3  UNL     1      34.914  17.827   0.178  1.00  0.00     0.276 C
HETATM   34  C4  UNL     1      33.451  17.596  -0.176  1.00  0.00     0.218 C
HETATM   35  C5  UNL     1      32.794  18.082   1.114  1.00  0.00     0.276 C
BRANCH  32  36
HETATM   36  C2  UNL     1      36.095  16.776   2.143  1.00  0.00     0.091 C
HETATM   37  C1  UNL     1      36.982  17.722   2.865  1.00  0.00     0.090 C
HETATM   38  N1  UNL     1      36.446  15.530   2.109  1.00  0.00    -0.388 N
ATOM     39  H12 UNL     1      37.289  15.159   2.547  1.00  0.00     0.157 HD
ATOM     40  H11 UNL     1      35.836  14.880   1.613  1.00  0.00     0.157 HD
ENDBRANCH  32  36
BRANCH  33  41
HETATM   41  O1  UNL     1      35.792  17.174  -0.651  1.00  0.00    -0.372 OA
ATOM     42  H1  UNL     1      35.879  17.601  -1.495  1.00  0.00     0.212 HD
ENDBRANCH  33  41
BRANCH  34  43
HETATM   43  O2  UNL     1      33.057  18.323  -1.282  1.00  0.00    -0.387 OA
ATOM     44  H2  UNL     1      32.113  18.413  -1.337  1.00  0.00     0.210 HD
ENDBRANCH  34  43
BRANCH  35  45
HETATM   45  O3  UNL     1      32.953  19.438   1.307  1.00  0.00    -0.372 OA
ATOM     46  H3  UNL     1      32.788  19.698   2.205  1.00  0.00     0.212 HD
ENDBRANCH  35  45
ENDBRANCH   1  31
TORSDOF 14
ENDMDL