MODEL 4
REMARK VINA RESULT: -5.269389096      1.493      1.593
REMARK  15 active torsions:
REMARK  status: ('A' for Active; 'I' for Inactive)
REMARK    1  A    between atoms: N5_15  and  C6_16
REMARK    2  A    between atoms: C6_16  and  C7_17
REMARK    3  A    between atoms: C7_17  and  N6_18
REMARK    4  A    between atoms: C7_17  and  O1_22
REMARK    5  A    between atoms: C8_25  and  C9_26
REMARK    6  A    between atoms: C9_26  and  O2_27
REMARK    7  A    between atoms: C10_29  and  O3_30
REMARK    8  A    between atoms: C10_29  and  C11_32
REMARK    9  A    between atoms: C11_32  and  C12_33
REMARK   10  A    between atoms: C12_33  and  O4_34
REMARK   11  A    between atoms: C12_33  and  O5_36
REMARK   12  A    between atoms: O5_36  and  N7_37
REMARK   13  A    between atoms: N7_37  and  N8_38
REMARK   14  A    between atoms: C13_41  and  O6_42
REMARK   15  A    between atoms: C13_41  and  O7_44
ROOT
HETATM    1  C6  UNL     1      34.370   9.172  10.886  1.00  0.00     0.199 C
HETATM    2  S1  UNL     1      35.117   9.761   9.311  1.00  0.00    -0.117 SA
HETATM    3  C8  UNL     1      33.514   9.914   8.410  1.00  0.00     0.113 C
HETATM    4  C10 UNL     1      32.633  10.225   9.554  1.00  0.00     0.136 C
HETATM    5  C13 UNL     1      32.894   9.262  10.667  1.00  0.00     0.234 C
ENDROOT
BRANCH   1   6
HETATM    6  N5  UNL     1      34.873   9.948  11.978  1.00  0.00    -0.299 N
HETATM    7  C3  UNL     1      35.375  11.197  11.873  1.00  0.00     0.142 A
HETATM    8  N3  UNL     1      35.544  12.015  10.826  1.00  0.00    -0.336 N
HETATM    9  C4  UNL     1      35.746  11.590  13.116  1.00  0.00     0.122 A
HETATM   10  C2  UNL     1      36.082  13.228  11.025  1.00  0.00     0.183 A
ATOM     11  H3  UNL     1      35.267  11.720   9.890  1.00  0.00     0.168 HD
HETATM   12  N2  UNL     1      36.458  13.645  12.247  1.00  0.00    -0.337 N
HETATM   13  C1  UNL     1      36.309  12.860  13.321  1.00  0.00     0.131 A
ATOM     14  H2  UNL     1      36.864  14.575  12.358  1.00  0.00     0.168 HD
HETATM   15  N1  UNL     1      36.662  13.235  14.510  1.00  0.00    -0.383 N
ATOM     16  H12 UNL     1      37.071  14.158  14.659  1.00  0.00     0.157 HD
ATOM     17  H11 UNL     1      36.548  12.637  15.328  1.00  0.00     0.157 HD
HETATM   18  N4  UNL     1      35.469  10.588  13.967  1.00  0.00    -0.346 N
HETATM   19  C5  UNL     1      34.932   9.584  13.251  1.00  0.00     0.187 A
ATOM     20  H4  UNL     1      35.636  10.588  14.974  1.00  0.00     0.167 HD
ENDBRANCH   1   6
BRANCH   1  21
HETATM   21  C7  UNL     1      34.846   7.746  11.055  1.00  0.00     0.361 C
BRANCH  21  22
HETATM   22  N6  UNL     1      34.794   6.962   9.858  1.00  0.00    -0.050 N
ATOM     23  H63 UNL     1      33.828   6.745   9.617  1.00  0.00     0.277 HD
ATOM     24  H62 UNL     1      35.053   7.528   9.050  1.00  0.00     0.277 HD
ATOM     25  H61 UNL     1      35.354   6.110   9.890  1.00  0.00     0.277 HD
ENDBRANCH  21  22
BRANCH  21  26
HETATM   26  O1  UNL     1      34.036   7.067  11.996  1.00  0.00    -0.367 OA
ATOM     27  H1  UNL     1      34.517   6.926  12.803  1.00  0.00     0.212 HD
ENDBRANCH  21  26
ENDBRANCH   1  21
BRANCH   5  28
HETATM   28  O6  UNL     1      32.335   9.849  11.815  1.00  0.00    -0.360 OA
ATOM     29  H6  UNL     1      31.869   9.166  12.284  1.00  0.00     0.213 HD
ENDBRANCH   5  28
BRANCH   5  30
HETATM   30  O7  UNL     1      32.259   8.033  10.519  1.00  0.00    -0.360 OA
ATOM     31  H7  UNL     1      32.037   7.605  11.338  1.00  0.00     0.213 HD
ENDBRANCH   5  30
BRANCH   3  32
HETATM   32  C9  UNL     1      33.293   8.632   7.695  1.00  0.00     0.182 C
BRANCH  32  33
HETATM   33  O2  UNL     1      32.456   8.700   6.587  1.00  0.00    -0.400 OA
ATOM     34  H2  UNL     1      31.529   8.786   6.778  1.00  0.00     0.209 HD
ENDBRANCH  32  33
ENDBRANCH   3  32
BRANCH   4  35
HETATM   35  O3  UNL     1      33.058  11.509  10.008  1.00  0.00    -0.383 OA
ATOM     36  H3  UNL     1      33.946  11.603   9.686  1.00  0.00     0.210 HD
ENDBRANCH   4  35
BRANCH   4  37
HETATM   37  C11 UNL     1      31.179  10.282   9.270  1.00  0.00     0.107 C
BRANCH  37  38
HETATM   38  C12 UNL     1      30.550  11.624   9.291  1.00  0.00     0.285 C
BRANCH  38  39
HETATM   39  O4  UNL     1      29.204  11.605   9.656  1.00  0.00    -0.369 OA
ATOM     40  H4  UNL     1      28.645  11.161   9.029  1.00  0.00     0.212 HD
ENDBRANCH  38  39
BRANCH  38  41
HETATM   41  O5  UNL     1      30.569  12.111   7.962  1.00  0.00    -0.234 OA
BRANCH  41  42
HETATM   42  N7  UNL     1      30.263  11.149   7.074  1.00  0.00     0.016 NA
BRANCH  42  43
HETATM   43  N8  UNL     1      28.979  11.443   6.580  1.00  0.00    -0.323 N
ATOM     44  H82 UNL     1      28.513  12.349   6.631  1.00  0.00     0.174 HD
ATOM     45  H81 UNL     1      28.616  10.583   6.169  1.00  0.00     0.174 HD
ENDBRANCH  42  43
ENDBRANCH  41  42
ENDBRANCH  38  41
ENDBRANCH  37  38
ENDBRANCH   4  37
TORSDOF 15
ENDMDL