MODEL 3
REMARK VINA RESULT: -5.798353040      0.562      1.527
REMARK  13 active torsions:
REMARK  status: ('A' for Active; 'I' for Inactive)
REMARK    1  A    between atoms: N1_1  and  C1_4
REMARK    2  A    between atoms: C2_7  and  C3_8
REMARK    3  A    between atoms: C4_10  and  C5_11
REMARK    4  A    between atoms: C5_11  and  O2_12
REMARK    5  A    between atoms: O2_12  and  C6_13
REMARK    6  A    between atoms: C6_13  and  C7_14
REMARK    7  A    between atoms: C7_14  and  O3_15
REMARK    8  A    between atoms: C8_20  and  O4_21
REMARK    9  A    between atoms: C9_23  and  O5_24
REMARK   10  A    between atoms: C9_23  and  O6_26
REMARK   11  A    between atoms: C10_28  and  N4_29
REMARK   12  A    between atoms: C12_38  and  O7_39
REMARK   13  A    between atoms: C13_43  and  N10_44
ROOT
HETATM    1  C3  UNL     1      33.456   9.995   9.740  1.00  0.00     0.211 C
HETATM    2  O1  UNL     1      32.955  11.298   9.425  1.00  0.00    -0.323 OA
HETATM    3  C4  UNL     1      32.832  11.931  10.706  1.00  0.00     0.279 C
HETATM    4  N3  UNL     1      31.625  11.327  11.308  1.00  0.00    -0.007 N
ATOM      5  H31 UNL     1      30.890  12.018  11.465  1.00  0.00     0.284 HD
ATOM      6  H32 UNL     1      31.780  11.049  12.277  1.00  0.00     0.284 HD
HETATM    7  C8  UNL     1      31.167  10.231  10.504  1.00  0.00     0.389 C
HETATM    8  C9  UNL     1      32.371   9.261  10.461  1.00  0.00     0.255 C
HETATM    9  C10 UNL     1      34.039  11.577  11.385  1.00  0.00     0.226 C
HETATM   10  C12 UNL     1      34.598  10.357  10.596  1.00  0.00     0.197 C
ENDROOT
BRANCH   1  11
HETATM   11  C2  UNL     1      33.774   9.452   8.397  1.00  0.00     0.156 A
HETATM   12  N2  UNL     1      34.994   9.069   8.014  1.00  0.00    -0.176 N
HETATM   13  C1  UNL     1      35.281   8.529   6.844  1.00  0.00     0.691 A
ATOM     14  H2  UNL     1      35.761   9.204   8.674  1.00  0.00     0.185 HD
HETATM   15  N11 UNL     1      34.281   8.345   5.955  1.00  0.00    -0.023 N
HETATM   16  C13 UNL     1      33.037   8.724   6.307  1.00  0.00     0.691 A
ATOM     17  H11 UNL     1      34.463   7.931   5.041  1.00  0.00     0.203 HD
HETATM   18  N9  UNL     1      32.777   9.280   7.531  1.00  0.00    -0.176 N
ATOM     19  H9  UNL     1      31.827   9.561   7.776  1.00  0.00     0.185 HD
BRANCH  13  20
HETATM   20  N1  UNL     1      36.508   8.194   6.578  1.00  0.00    -0.234 N
ATOM     21  H12 UNL     1      37.301   8.746   6.906  1.00  0.00     0.174 HD
ATOM     22  H11 UNL     1      36.691   7.354   6.029  1.00  0.00     0.174 HD
ENDBRANCH  13  20
BRANCH  16  23
HETATM   23  N10 UNL     1      32.107   8.548   5.461  1.00  0.00    -0.234 N
ATOM     24 2H10 UNL     1      32.259   7.852   4.731  1.00  0.00     0.174 HD
ATOM     25 1H10 UNL     1      31.242   9.086   5.513  1.00  0.00     0.174 HD
ENDBRANCH  16  23
ENDBRANCH   1  11
BRANCH   8  26
HETATM   26  O5  UNL     1      31.989   8.074   9.915  1.00  0.00    -0.359 OA
ATOM     27  H5  UNL     1      31.189   8.089   9.403  1.00  0.00     0.213 HD
ENDBRANCH   8  26
BRANCH   8  28
HETATM   28  O6  UNL     1      32.683   9.025  11.794  1.00  0.00    -0.359 OA
ATOM     29  H6  UNL     1      32.232   9.617  12.383  1.00  0.00     0.213 HD
ENDBRANCH   8  28
BRANCH  10  30
HETATM   30  O7  UNL     1      34.997   9.357  11.482  1.00  0.00    -0.389 OA
ATOM     31  H7  UNL     1      34.864   9.566  12.399  1.00  0.00     0.210 HD
ENDBRANCH  10  30
BRANCH   3  32
HETATM   32  C5  UNL     1      32.444  13.360  10.398  1.00  0.00     0.239 C
BRANCH  32  33
HETATM   33  O2  UNL     1      33.236  13.858   9.388  1.00  0.00    -0.384 OA
BRANCH  33  34
HETATM   34  C6  UNL     1      33.366  15.246   9.426  1.00  0.00     0.193 C
BRANCH  34  35
HETATM   35  C7  UNL     1      33.208  15.758  10.860  1.00  0.00     0.190 C
BRANCH  35  36
HETATM   36  O3  UNL     1      34.508  16.139  11.281  1.00  0.00    -0.399 OA
ATOM     37  H3  UNL     1      34.420  16.400  12.190  1.00  0.00     0.209 HD
ENDBRANCH  35  36
ENDBRANCH  34  35
ENDBRANCH  33  34
ENDBRANCH  32  33
ENDBRANCH   3  32
BRANCH   7  38
HETATM   38  O4  UNL     1      30.051   9.628  11.015  1.00  0.00    -0.365 OA
ATOM     39  H4  UNL     1      29.763  10.017  11.833  1.00  0.00     0.212 HD
ENDBRANCH   7  38
BRANCH   9  40
HETATM   40  N4  UNL     1      35.117  12.516  11.577  1.00  0.00    -0.205 N
HETATM   41  N5  UNL     1      35.335  13.291  12.617  1.00  0.00    -0.223 N
HETATM   42  N6  UNL     1      36.399  14.066  12.414  1.00  0.00    -0.256 N
ATOM     43  H5  UNL     1      34.767  13.297  13.463  1.00  0.00     0.210 HD
HETATM   44  C11 UNL     1      36.889  13.776  11.192  1.00  0.00     0.224 A
ATOM     45  H6  UNL     1      36.776  14.755  13.066  1.00  0.00     0.191 HD
HETATM   46  N7  UNL     1      38.026  14.402  10.578  1.00  0.00    -0.061 NA
HETATM   47  N8  UNL     1      36.080  12.821  10.699  1.00  0.00    -0.254 N
ATOM     48  H8  UNL     1      36.186  12.388   9.782  1.00  0.00     0.191 HD
ENDBRANCH   9  40
TORSDOF 13
ENDMDL