MODEL 2
REMARK VINA RESULT: -6.464461522      1.699      2.346
REMARK  13 active torsions:
REMARK  status: ('A' for Active; 'I' for Inactive)
REMARK    1  A    between atoms: C3_4  and  N2_5
REMARK    2  A    between atoms: C6_10  and  N4_11
REMARK    3  A    between atoms: C7_16  and  N6_17
REMARK    4  A    between atoms: C9_24  and  C10_25
REMARK    5  A    between atoms: C10_25  and  O2_26
REMARK    6  A    between atoms: C10_25  and  C11_28
REMARK    7  A    between atoms: C11_28  and  O3_29
REMARK    8  A    between atoms: C11_28  and  C12_31
REMARK    9  A    between atoms: C12_31  and  O4_32
REMARK   10  A    between atoms: C12_31  and  C13_34
REMARK   11  A    between atoms: C13_34  and  O5_35
REMARK   12  A    between atoms: N8_37  and  O6_38
REMARK   13  A    between atoms: O6_38  and  N9_39
ROOT
HETATM    1  N1  UNL     1      34.007   9.081   7.521  1.00  0.00    -0.190 NA
HETATM    2  C1  UNL     1      33.254   9.477   8.298  1.00  0.00     0.124 C
HETATM    3  C2  UNL     1      32.317   9.973   9.279  1.00  0.00     0.193 C
HETATM    4  C3  UNL     1      32.441   9.805  10.607  1.00  0.00     0.194 C
HETATM    5  O1  UNL     1      31.322  10.440  11.176  1.00  0.00    -0.302 OA
HETATM    6  C9  UNL     1      30.840  11.415  10.251  1.00  0.00     0.293 C
HETATM    7  N8  UNL     1      31.133  10.707   8.993  1.00  0.00    -0.188 N
ENDROOT
BRANCH   4   8
HETATM    8  N2  UNL     1      33.483   9.128  11.299  1.00  0.00    -0.269 N
HETATM    9  C4  UNL     1      33.833   7.838  11.226  1.00  0.00     0.193 A
HETATM   10  N3  UNL     1      34.874   7.633  12.052  1.00  0.00    -0.346 N
HETATM   11  C5  UNL     1      35.172   8.794  12.640  1.00  0.00     0.123 A
ATOM     12  H3  UNL     1      35.352   6.744  12.203  1.00  0.00     0.167 HD
HETATM   13  C6  UNL     1      36.127   9.166  13.558  1.00  0.00     0.145 A
HETATM   14  C8  UNL     1      34.304   9.749  12.175  1.00  0.00     0.161 A
HETATM   15  N5  UNL     1      36.220  10.436  14.003  1.00  0.00    -0.175 N
HETATM   16  C7  UNL     1      35.357  11.360  13.535  1.00  0.00     0.679 A
ATOM     17  H5  UNL     1      36.933  10.694  14.684  1.00  0.00     0.186 HD
HETATM   18  N7  UNL     1      34.416  11.018  12.637  1.00  0.00    -0.174 N
ATOM     19  H7  UNL     1      33.772  11.731  12.296  1.00  0.00     0.186 HD
BRANCH  13  20
HETATM   20  N4  UNL     1      36.974   8.325  14.036  1.00  0.00    -0.383 N
ATOM     21  H42 UNL     1      36.613   7.641  14.702  1.00  0.00     0.157 HD
ATOM     22  H41 UNL     1      37.957   8.337  13.764  1.00  0.00     0.157 HD
ENDBRANCH  13  20
BRANCH  16  23
HETATM   23  N6  UNL     1      35.390  12.593  13.918  1.00  0.00    -0.234 N
ATOM     24  H62 UNL     1      34.679  12.896  14.583  1.00  0.00     0.174 HD
ATOM     25  H61 UNL     1      36.091  13.251  13.579  1.00  0.00     0.174 HD
ENDBRANCH  16  23
ENDBRANCH   4   8
BRANCH   7  26
HETATM   26  O6  UNL     1      30.449  10.730   7.830  1.00  0.00    -0.140 OA
BRANCH  26  27
HETATM   27  N9  UNL     1      29.877  11.903   7.573  1.00  0.00     0.049 NA
HETATM   28  N10 UNL     1      28.908  11.736   6.547  1.00  0.00     0.010 NA
HETATM   29  N11 UNL     1      29.952  11.876   5.624  1.00  0.00     0.002 NA
HETATM   30  N12 UNL     1      30.628  12.625   6.623  1.00  0.00     0.010 NA
ENDBRANCH  26  27
ENDBRANCH   7  26
BRANCH   6  31
HETATM   31  C10 UNL     1      31.637  12.673  10.338  1.00  0.00     0.201 C
BRANCH  31  32
HETATM   32  O2  UNL     1      31.424  13.435   9.182  1.00  0.00    -0.388 OA
ATOM     33  H2  UNL     1      31.696  14.331   9.343  1.00  0.00     0.210 HD
ENDBRANCH  31  32
BRANCH  31  34
HETATM   34  C11 UNL     1      31.470  13.469  11.585  1.00  0.00     0.182 C
BRANCH  34  35
HETATM   35  O3  UNL     1      32.317  12.872  12.547  1.00  0.00    -0.390 OA
ATOM     36  H3  UNL     1      32.709  12.119  12.121  1.00  0.00     0.210 HD
ENDBRANCH  34  35
BRANCH  34  37
HETATM   37  C12 UNL     1      31.858  14.906  11.502  1.00  0.00     0.173 C
BRANCH  37  38
HETATM   38  O4  UNL     1      32.876  15.186  10.617  1.00  0.00    -0.391 OA
ATOM     39  H4  UNL     1      33.370  14.432  10.318  1.00  0.00     0.210 HD
ENDBRANCH  37  38
BRANCH  37  40
HETATM   40  C13 UNL     1      30.626  15.698  11.103  1.00  0.00     0.198 C
BRANCH  40  41
HETATM   41  O5  UNL     1      30.888  16.244   9.841  1.00  0.00    -0.398 OA
ATOM     42  H5  UNL     1      30.859  15.526   9.221  1.00  0.00     0.209 HD
ENDBRANCH  40  41
ENDBRANCH  37  40
ENDBRANCH  34  37
ENDBRANCH  31  34
ENDBRANCH   6  31
TORSDOF 13
ENDMDL