MODEL 1
REMARK VINA RESULT: -6.240656639      0.000      0.000
REMARK  13 active torsions:
REMARK  status: ('A' for Active; 'I' for Inactive)
REMARK    1  A    between atoms: N1_1  and  C1_4
REMARK    2  A    between atoms: N3_8  and  C3_9
REMARK    3  A    between atoms: C4_11  and  C5_12
REMARK    4  A    between atoms: N4_13  and  N5_15
REMARK    5  A    between atoms: N5_15  and  C6_16
REMARK    6  A    between atoms: N5_15  and  N10_33
REMARK    7  A    between atoms: C6_16  and  C7_17
REMARK    8  A    between atoms: C8_18  and  O2_19
REMARK    9  A    between atoms: C9_23  and  N7_24
REMARK   10  A    between atoms: N10_33  and  N11_34
REMARK   11  A    between atoms: N11_34  and  N12_35
REMARK   12  A    between atoms: C11_38  and  O3_39
REMARK   13  A    between atoms: C12_41  and  O4_42
ROOT
HETATM    1  C5  UNL     1      32.238  16.361   8.817  1.00  0.00     0.116 C
HETATM    2  N4  UNL     1      33.435  16.624   8.410  1.00  0.00    -0.294 N
ATOM      3  H4  UNL     1      34.237  16.052   8.672  1.00  0.00     0.187 HD
ENDROOT
BRANCH   2   4
HETATM    4  N5  UNL     1      33.563  17.800   7.547  1.00  0.00    -0.193 N
BRANCH   4   5
HETATM    5  C6  UNL     1      32.709  17.813   6.464  1.00  0.00     0.153 C
BRANCH   5   6
HETATM    6  C7  UNL     1      32.915  17.340   5.133  1.00  0.00     0.078 A
HETATM    7  C8  UNL     1      33.546  18.246   4.222  1.00  0.00     0.170 A
HETATM    8  N6  UNL     1      33.772  17.921   2.958  1.00  0.00    -0.170 N
HETATM    9  C9  UNL     1      33.421  16.728   2.471  1.00  0.00     0.679 A
ATOM     10  H6  UNL     1      34.225  18.596   2.343  1.00  0.00     0.186 HD
HETATM   11  N8  UNL     1      32.833  15.857   3.276  1.00  0.00    -0.176 N
HETATM   12  C10 UNL     1      32.582  16.153   4.588  1.00  0.00     0.130 A
ATOM     13  H8  UNL     1      32.561  14.945   2.910  1.00  0.00     0.186 HD
HETATM   14  N9  UNL     1      32.003  15.227   5.235  1.00  0.00    -0.384 N
ATOM     15  H92 UNL     1      31.816  15.447   6.213  1.00  0.00     0.157 HD
ATOM     16  H91 UNL     1      31.751  14.330   4.823  1.00  0.00     0.157 HD
BRANCH   7  17
HETATM   17  O2  UNL     1      33.900  19.481   4.765  1.00  0.00    -0.345 OA
ATOM     18  H2  UNL     1      34.807  19.731   4.638  1.00  0.00     0.219 HD
ENDBRANCH   7  17
BRANCH   9  19
HETATM   19  N7  UNL     1      33.665  16.454   1.215  1.00  0.00    -0.234 N
ATOM     20  H72 UNL     1      34.170  17.101   0.610  1.00  0.00     0.174 HD
ATOM     21  H71 UNL     1      33.342  15.567   0.827  1.00  0.00     0.174 HD
ENDBRANCH   9  19
ENDBRANCH   5   6
ENDBRANCH   4   5
BRANCH   4  22
HETATM   22  N10 UNL     1      34.494  18.666   8.010  1.00  0.00     0.013 NA
BRANCH  22  23
HETATM   23  N11 UNL     1      34.296  19.993   7.581  1.00  0.00    -0.014 NA
BRANCH  23  24
HETATM   24  N12 UNL     1      35.534  20.423   7.047  1.00  0.00    -0.330 N
ATOM     25 2H12 UNL     1      36.120  19.905   6.393  1.00  0.00     0.173 HD
ATOM     26 1H12 UNL     1      35.711  21.344   7.447  1.00  0.00     0.173 HD
ENDBRANCH  23  24
ENDBRANCH  22  23
ENDBRANCH   4  22
ENDBRANCH   2   4
BRANCH   1  27
HETATM   27  C4  UNL     1      31.929  15.209   9.696  1.00  0.00     0.195 C
HETATM   28  O1  UNL     1      32.345  14.031   9.092  1.00  0.00    -0.350 OA
HETATM   29  C3  UNL     1      32.763  13.183  10.122  1.00  0.00     0.265 C
HETATM   30  C12 UNL     1      33.464  14.095  11.077  1.00  0.00     0.199 C
HETATM   31  C11 UNL     1      32.521  15.295  11.062  1.00  0.00     0.185 C
BRANCH  29  32
HETATM   32  N3  UNL     1      31.572  12.559  10.630  1.00  0.00    -0.265 N
HETATM   33  C2  UNL     1      30.974  12.925  11.762  1.00  0.00     0.208 A
HETATM   34  N2  UNL     1      29.865  12.273  12.143  1.00  0.00    -0.188 N
HETATM   35  C1  UNL     1      29.362  11.270  11.406  1.00  0.00     0.680 A
ATOM     36  H2  UNL     1      29.396  12.544  13.007  1.00  0.00     0.185 HD
HETATM   37  N13 UNL     1      29.961  10.895  10.264  1.00  0.00    -0.141 N
HETATM   38  C13 UNL     1      31.068  11.542   9.875  1.00  0.00     0.343 A
ATOM     39  H13 UNL     1      29.580  10.133   9.703  1.00  0.00     0.189 HD
HETATM   40  O5  UNL     1      31.621  11.183   8.804  1.00  0.00    -0.246 OA
BRANCH  35  41
HETATM   41  N1  UNL     1      28.298  10.680  11.820  1.00  0.00    -0.234 N
ATOM     42  H12 UNL     1      27.984  10.781  12.784  1.00  0.00     0.174 HD
ATOM     43  H11 UNL     1      27.773  10.107  11.160  1.00  0.00     0.174 HD
ENDBRANCH  35  41
ENDBRANCH  29  32
BRANCH  30  44
HETATM   44  O4  UNL     1      34.631  14.554  10.427  1.00  0.00    -0.388 OA
ATOM     45  H4  UNL     1      35.246  14.807  11.106  1.00  0.00     0.210 HD
ENDBRANCH  30  44
BRANCH  31  46
HETATM   46  O3  UNL     1      33.165  16.467  11.356  1.00  0.00    -0.390 OA
ATOM     47  H3  UNL     1      33.086  16.766  12.255  1.00  0.00     0.210 HD
ENDBRANCH  31  46
ENDBRANCH   1  27
TORSDOF 13
ENDMDL