MODEL 2
REMARK VINA RESULT: -6.091463876      2.434      7.700
REMARK  14 active torsions:
REMARK  status: ('A' for Active; 'I' for Inactive)
REMARK       I    between atoms: C2_2  and  N1_4
REMARK    1  A    between atoms: N1_4  and  C3_6
REMARK    2  A    between atoms: C3_6  and  C4_7
REMARK    3  A    between atoms: C3_6  and  C6_19
REMARK    4  A    between atoms: C4_7  and  O2_8
REMARK    5  A    between atoms: C4_7  and  C5_10
REMARK    6  A    between atoms: C5_10  and  N2_11
REMARK    7  A    between atoms: C5_10  and  N3_15
REMARK    8  A    between atoms: N3_15  and  N4_16
REMARK    9  A    between atoms: C7_20  and  O3_21
REMARK   10  A    between atoms: C8_23  and  N5_24
REMARK   11  A    between atoms: C10_29  and  N8_30
REMARK   12  A    between atoms: C11_35  and  N10_36
REMARK   13  A    between atoms: C13_43  and  O5_44
REMARK   14  A    between atoms: C13_43  and  O6_46
ROOT
HETATM    1  C6  UNL     1      34.917   8.982  10.780  1.00  0.00     0.137 C
HETATM    2  C7  UNL     1      34.503   9.584   9.458  1.00  0.00     0.182 C
HETATM    3  C8  UNL     1      33.317   8.641   9.173  1.00  0.00     0.282 C
HETATM    4  O4  UNL     1      32.675   8.502  10.396  1.00  0.00    -0.304 OA
HETATM    5  C13 UNL     1      33.583   8.740  11.410  1.00  0.00     0.288 C
ENDROOT
BRANCH   1   6
HETATM    6  C3  UNL     1      35.912   9.726  11.558  1.00  0.00     0.131 C
BRANCH   6   7
HETATM    7  N1  UNL     1      36.644  10.753  10.907  1.00  0.00    -0.353 N
HETATM    8  C2  UNL     1      37.009  11.987  11.546  1.00  0.00     0.214 C
HETATM    9  C1  UNL     1      37.778  13.042  10.837  1.00  0.00     0.117 C
HETATM   10  O1  UNL     1      36.697  12.236  12.744  1.00  0.00    -0.274 OA
ATOM     11  H1  UNL     1      36.924  10.608   9.937  1.00  0.00     0.163 HD
ENDBRANCH   6   7
BRANCH   6  12
HETATM   12  C4  UNL     1      36.821   8.704  12.236  1.00  0.00     0.189 C
BRANCH  12  13
HETATM   13  O2  UNL     1      36.508   7.464  11.737  1.00  0.00    -0.390 OA
ATOM     14  H2  UNL     1      35.633   7.243  12.031  1.00  0.00     0.210 HD
ENDBRANCH  12  13
BRANCH  12  15
HETATM   15  C5  UNL     1      36.674   8.679  13.723  1.00  0.00     0.325 C
BRANCH  15  16
HETATM   16  N2  UNL     1      35.651   9.552  14.230  1.00  0.00    -0.057 N
ATOM     17  H23 UNL     1      36.030  10.481  14.408  1.00  0.00     0.276 HD
ATOM     18  H22 UNL     1      34.978   9.777  13.496  1.00  0.00     0.276 HD
ATOM     19  H21 UNL     1      35.171   9.198  15.057  1.00  0.00     0.276 HD
ENDBRANCH  15  16
BRANCH  15  20
HETATM   20  N3  UNL     1      36.312   7.323  14.096  1.00  0.00    -0.112 NA
BRANCH  20  21
HETATM   21  N4  UNL     1      35.072   7.284  14.747  1.00  0.00    -0.346 N
ATOM     22  H42 UNL     1      34.627   8.105  15.158  1.00  0.00     0.172 HD
ATOM     23  H41 UNL     1      34.683   6.341  14.754  1.00  0.00     0.172 HD
ENDBRANCH  20  21
ENDBRANCH  15  20
ENDBRANCH  12  15
ENDBRANCH   6  12
ENDBRANCH   1   6
BRANCH   2  24
HETATM   24  O3  UNL     1      33.984  10.853   9.546  1.00  0.00    -0.390 OA
ATOM     25  H3  UNL     1      33.207  11.001   9.020  1.00  0.00     0.210 HD
ENDBRANCH   2  24
BRANCH   5  26
HETATM   26  O5  UNL     1      33.694   7.640  12.263  1.00  0.00    -0.343 OA
ATOM     27  H5  UNL     1      34.104   6.931  11.782  1.00  0.00     0.215 HD
ENDBRANCH   5  26
BRANCH   5  28
HETATM   28  O6  UNL     1      33.114   9.820  12.148  1.00  0.00    -0.343 OA
ATOM     29  H6  UNL     1      32.353   9.615  12.678  1.00  0.00     0.215 HD
ENDBRANCH   5  28
BRANCH   3  30
HETATM   30  N5  UNL     1      32.476   9.145   8.131  1.00  0.00    -0.145 N
HETATM   31  C9  UNL     1      32.426   8.850   6.825  1.00  0.00     0.222 A
HETATM   32  N6  UNL     1      31.463   9.586   6.240  1.00  0.00    -0.259 N
HETATM   33  N7  UNL     1      30.896  10.347   7.147  1.00  0.00     0.092 N
ATOM     34  H6  UNL     1      31.215   9.557   5.251  1.00  0.00     0.189 HD
HETATM   35  C10 UNL     1      29.901  11.244   7.055  1.00  0.00     0.727 A
HETATM   36  C12 UNL     1      31.516  10.083   8.325  1.00  0.00     0.738 A
HETATM   37  N9  UNL     1      29.509  11.895   8.162  1.00  0.00    -0.020 N
HETATM   38  C11 UNL     1      30.123  11.638   9.352  1.00  0.00     0.705 A
ATOM     39  H9  UNL     1      28.753  12.579   8.114  1.00  0.00     0.203 HD
HETATM   40  N11 UNL     1      31.123  10.734   9.427  1.00  0.00    -0.019 N
ATOM     41  H11 UNL     1      31.578  10.547  10.321  1.00  0.00     0.203 HD
BRANCH  35  42
HETATM   42  N8  UNL     1      29.290  11.519   5.956  1.00  0.00    -0.232 N
ATOM     43  H82 UNL     1      28.286  11.686   6.005  1.00  0.00     0.174 HD
ATOM     44  H81 UNL     1      29.757  11.576   5.051  1.00  0.00     0.174 HD
ENDBRANCH  35  42
BRANCH  38  45
HETATM   45  N10 UNL     1      29.711  12.291  10.389  1.00  0.00    -0.234 N
ATOM     46 2H10 UNL     1      28.995  11.919  11.013  1.00  0.00     0.174 HD
ATOM     47 1H10 UNL     1      30.130  13.204  10.567  1.00  0.00     0.174 HD
ENDBRANCH  38  45
ENDBRANCH   3  30
TORSDOF 14
ENDMDL