MODEL 3
REMARK VINA RESULT: -7.600287486      3.246      4.642
REMARK  9 active torsions:
REMARK  status: ('A' for Active; 'I' for Inactive)
REMARK    1  A    between atoms: O1_2  and  C2_3
REMARK    2  A    between atoms: C3_6  and  N2_7
REMARK    3  A    between atoms: N2_7  and  C4_9
REMARK    4  A    between atoms: C4_9  and  C5_10
REMARK    5  A    between atoms: C5_10  and  N3_11
REMARK    6  A    between atoms: N3_11  and  C7_13
REMARK    7  A    between atoms: C10_20  and  N5_21
REMARK    8  A    between atoms: C11_26  and  N7_27
REMARK    9  A    between atoms: N7_27  and  N8_29
ROOT
HETATM    1  C2  UNL     1      59.281  56.209  18.095  1.00  0.00     0.239 C
HETATM    2  N1  UNL     1      59.389  54.910  17.713  1.00  0.00    -0.305 N
ATOM      3  H1  UNL     1      59.245  54.700  16.726  1.00  0.00     0.171 HD
HETATM    4  C3  UNL     1      59.671  53.868  18.536  1.00  0.00     0.149 C
HETATM    5  C10 UNL     1      59.657  53.856  19.928  1.00  0.00     0.159 C
HETATM    6  N6  UNL     1      59.930  54.908  20.714  1.00  0.00    -0.172 N
ATOM      7  H6  UNL     1      60.148  54.664  21.680  1.00  0.00     0.186 HD
HETATM    8  C11 UNL     1      59.968  56.232  20.451  1.00  0.00     0.701 C
HETATM    9  N9  UNL     1      59.721  56.774  19.230  1.00  0.00    -0.153 N
ATOM     10  H9  UNL     1      59.899  57.777  19.166  1.00  0.00     0.188 HD
ENDROOT
BRANCH   4  11
HETATM   11  N2  UNL     1      59.994  52.748  17.982  1.00  0.00    -0.372 N
ATOM     12  H2  UNL     1      59.442  51.915  18.187  1.00  0.00     0.161 HD
BRANCH  11  13
HETATM   13  C4  UNL     1      61.119  52.642  17.077  1.00  0.00     0.141 C
BRANCH  13  14
HETATM   14  C5  UNL     1      62.376  53.044  17.837  1.00  0.00     0.143 C
BRANCH  14  15
HETATM   15  N3  UNL     1      62.845  54.337  17.432  1.00  0.00    -0.369 N
HETATM   16  C6  UNL     1      63.146  54.661  16.035  1.00  0.00     0.151 C
BRANCH  15  17
HETATM   17  C7  UNL     1      63.049  55.385  18.357  1.00  0.00     0.129 A
HETATM   18  C8  UNL     1      63.156  56.719  18.063  1.00  0.00     0.134 A
HETATM   19  C9  UNL     1      63.348  57.347  19.277  1.00  0.00     0.308 A
HETATM   20  O2  UNL     1      63.496  58.585  19.465  1.00  0.00    -0.258 OA
HETATM   21  O3  UNL     1      63.351  56.426  20.209  1.00  0.00    -0.194 OA
HETATM   22  N4  UNL     1      63.173  55.246  19.677  1.00  0.00    -0.241 N
ATOM     23  H4  UNL     1      63.136  54.363  20.188  1.00  0.00     0.196 HD
ENDBRANCH  15  17
ENDBRANCH  14  15
ENDBRANCH  13  14
ENDBRANCH  11  13
ENDBRANCH   4  11
BRANCH   5  24
HETATM   24  N5  UNL     1      59.354  52.737  20.487  1.00  0.00    -0.382 N
ATOM     25  H52 UNL     1      59.415  51.885  19.931  1.00  0.00     0.157 HD
ATOM     26  H51 UNL     1      59.068  52.782  21.465  1.00  0.00     0.157 HD
ENDBRANCH   5  24
BRANCH   1  27
HETATM   27  O1  UNL     1      58.638  56.996  17.174  1.00  0.00    -0.327 OA
HETATM   28  C1  UNL     1      58.092  56.531  15.970  1.00  0.00     0.213 C
ENDBRANCH   1  27
BRANCH   8  29
HETATM   29  N7  UNL     1      60.256  57.054  21.404  1.00  0.00    -0.138 N
ATOM     30  H7  UNL     1      60.164  56.767  22.379  1.00  0.00     0.205 HD
BRANCH  29  31
HETATM   31  N8  UNL     1      60.690  58.328  21.088  1.00  0.00    -0.331 N
ATOM     32  H82 UNL     1      61.689  58.533  21.094  1.00  0.00     0.177 HD
ATOM     33  H81 UNL     1      60.002  59.045  20.853  1.00  0.00     0.177 HD
ENDBRANCH  29  31
ENDBRANCH   8  29
TORSDOF 9
ENDMDL