MODEL 1
REMARK VINA RESULT: -8.044648193      0.000      0.000
REMARK  8 active torsions:
REMARK  status: ('A' for Active; 'I' for Inactive)
REMARK    1  A    between atoms: N1_4  and  C4_5
REMARK    2  A    between atoms: C4_5  and  C5_6
REMARK    3  A    between atoms: C5_6  and  C6_7
REMARK    4  A    between atoms: C6_7  and  O1_8
REMARK    5  A    between atoms: C6_7  and  C7_10
REMARK    6  A    between atoms: C7_10  and  N2_11
REMARK    7  A    between atoms: C11_18  and  N4_19
REMARK    8  A    between atoms: N4_19  and  N5_21
ROOT
HETATM    1  C6  UNL     1      62.697  56.312  19.696  1.00  0.00     0.138 C
ENDROOT
BRANCH   1   2
HETATM    2  C5  UNL     1      62.487  57.798  19.805  1.00  0.00     0.053 C
BRANCH   2   3
HETATM    3  C4  UNL     1      61.046  58.226  19.681  1.00  0.00     0.135 C
BRANCH   3   4
HETATM    4  N1  UNL     1      61.006  59.441  18.859  1.00  0.00    -0.309 N
HETATM    5  C3  UNL     1      61.904  59.641  17.859  1.00  0.00     0.108 A
HETATM    6  C2  UNL     1      61.858  60.789  17.091  1.00  0.00     0.022 A
HETATM    7  C1  UNL     1      62.833  61.033  15.986  1.00  0.00     0.056 C
HETATM    8  C13 UNL     1      60.869  61.704  17.387  1.00  0.00     0.256 A
HETATM    9  N6  UNL     1      59.989  61.467  18.393  1.00  0.00    -0.275 N
HETATM   10  O4  UNL     1      60.823  62.748  16.690  1.00  0.00    -0.267 OA
HETATM   11  C12 UNL     1      60.046  60.345  19.133  1.00  0.00     0.329 A
ATOM     12  H6  UNL     1      59.266  62.159  18.593  1.00  0.00     0.173 HD
HETATM   13  O3  UNL     1      59.226  60.129  20.069  1.00  0.00    -0.246 OA
ENDBRANCH   3   4
ENDBRANCH   2   3
ENDBRANCH   1   2
BRANCH   1  14
HETATM   14  O1  UNL     1      63.423  55.947  20.855  1.00  0.00    -0.394 OA
ATOM     15  H1  UNL     1      62.770  55.828  21.535  1.00  0.00     0.210 HD
ENDBRANCH   1  14
BRANCH   1  16
HETATM   16  C7  UNL     1      61.366  55.631  19.667  1.00  0.00     0.178 C
BRANCH  16  17
HETATM   17  N2  UNL     1      61.422  54.322  19.032  1.00  0.00    -0.189 N
HETATM   18  C8  UNL     1      62.333  54.065  18.085  1.00  0.00     0.114 A
HETATM   19  C9  UNL     1      62.382  52.828  17.487  1.00  0.00     0.092 A
HETATM   20  C10 UNL     1      61.475  51.868  17.888  1.00  0.00     0.260 A
HETATM   21  O2  UNL     1      61.525  50.733  17.334  1.00  0.00    -0.268 OA
HETATM   22  N3  UNL     1      60.567  52.141  18.839  1.00  0.00    -0.154 N
HETATM   23  C11 UNL     1      60.550  53.367  19.401  1.00  0.00     0.701 A
ATOM     24  H3  UNL     1      59.898  51.430  19.133  1.00  0.00     0.187 HD
BRANCH  23  25
HETATM   25  N4  UNL     1      59.654  53.596  20.323  1.00  0.00    -0.138 N
ATOM     26  H4  UNL     1      59.246  54.527  20.414  1.00  0.00     0.205 HD
BRANCH  25  27
HETATM   27  N5  UNL     1      59.251  52.576  21.180  1.00  0.00    -0.331 N
ATOM     28  H52 UNL     1      59.864  51.771  21.307  1.00  0.00     0.177 HD
ATOM     29  H51 UNL     1      58.359  52.638  21.669  1.00  0.00     0.177 HD
ENDBRANCH  25  27
ENDBRANCH  23  25
ENDBRANCH  16  17
ENDBRANCH   1  16
TORSDOF 8
ENDMDL