MODEL 2
REMARK VINA RESULT: -7.851202108      4.947      7.116
REMARK  5 active torsions:
REMARK  status: ('A' for Active; 'I' for Inactive)
REMARK    1  A    between atoms: C2_2  and  N1_3
REMARK       I    between atoms: N5_12  and  C4_14
REMARK    2  A    between atoms: C4_14  and  C5_16
REMARK    3  A    between atoms: C5_16  and  S1_17
REMARK    4  A    between atoms: S1_17  and  C6_18
REMARK    5  A    between atoms: C6_18  and  C7_19
ROOT
HETATM    1  C1  UNL     1      60.398  60.804  15.447  1.00  0.00     0.076 C
HETATM    2  C2  UNL     1      60.818  61.163  16.842  1.00  0.00     0.264 C
HETATM    3  N2  UNL     1      61.543  62.425  16.772  1.00  0.00    -0.079 NA
HETATM    4  N3  UNL     1      62.742  62.045  16.160  1.00  0.00    -0.027 NA
HETATM    5  N4  UNL     1      63.085  60.809  16.768  1.00  0.00    -0.273 N
ATOM      6  H4  UNL     1      64.011  60.380  16.778  1.00  0.00     0.185 HD
HETATM    7  C3  UNL     1      61.905  60.277  17.361  1.00  0.00     0.151 C
HETATM    8  N5  UNL     1      61.751  59.288  18.152  1.00  0.00    -0.312 N
ATOM      9  H5  UNL     1      60.801  59.080  18.460  1.00  0.00     0.170 HD
HETATM   10  C4  UNL     1      62.777  58.460  18.635  1.00  0.00     0.232 C
HETATM   11  O1  UNL     1      63.509  58.807  19.621  1.00  0.00    -0.272 OA
ENDROOT
BRANCH  10  12
HETATM   12  C5  UNL     1      63.069  57.136  18.029  1.00  0.00     0.177 C
BRANCH  12  13
HETATM   13  S1  UNL     1      61.722  56.569  16.978  1.00  0.00    -0.153 SA
BRANCH  13  14
HETATM   14  C6  UNL     1      62.161  55.126  16.014  1.00  0.00     0.139 C
BRANCH  14  15
HETATM   15  C7  UNL     1      63.628  54.907  15.928  1.00  0.00     0.069 A
HETATM   16  N6  UNL     1      64.426  55.515  15.068  1.00  0.00    -0.305 N
HETATM   17  C8  UNL     1      65.744  55.360  14.941  1.00  0.00     0.328 A
ATOM     18  H6  UNL     1      63.985  56.178  14.431  1.00  0.00     0.171 HD
HETATM   19  O2  UNL     1      66.292  56.069  14.025  1.00  0.00    -0.247 OA
HETATM   20  N7  UNL     1      66.523  54.564  15.650  1.00  0.00    -0.269 N
HETATM   21  C9  UNL     1      66.124  53.750  16.650  1.00  0.00     0.293 A
ATOM     22  H7  UNL     1      67.517  54.565  15.422  1.00  0.00     0.174 HD
HETATM   23  O3  UNL     1      66.936  53.034  17.264  1.00  0.00    -0.260 OA
HETATM   24  S2  UNL     1      64.435  53.804  16.974  1.00  0.00    -0.015 SA
ENDBRANCH  14  15
ENDBRANCH  13  14
ENDBRANCH  12  13
ENDBRANCH  10  12
BRANCH   2  25
HETATM   25  N1  UNL     1      59.706  61.234  17.761  1.00  0.00    -0.048 N
ATOM     26  H13 UNL     1      59.832  61.997  18.426  1.00  0.00     0.277 HD
ATOM     27  H12 UNL     1      58.864  61.562  17.289  1.00  0.00     0.277 HD
ATOM     28  H11 UNL     1      59.534  60.352  18.244  1.00  0.00     0.277 HD
ENDBRANCH   2  25
TORSDOF 5
ENDMDL