MODEL 4
REMARK VINA RESULT: -7.492182531      1.275      1.849
REMARK  7 active torsions:
REMARK  status: ('A' for Active; 'I' for Inactive)
REMARK    1  A    between atoms: N1_2  and  C2_4
REMARK    2  A    between atoms: C4_9  and  N4_10
REMARK    3  A    between atoms: C5_12  and  C6_13
REMARK    4  A    between atoms: C6_13  and  N5_14
REMARK    5  A    between atoms: N5_14  and  C7_16
REMARK    6  A    between atoms: C7_16  and  C8_17
REMARK    7  A    between atoms: N7_23  and  N8_24
ROOT
HETATM    1  N5  UNL     1      62.995  54.182  17.198  1.00  0.00    -0.416 N
ATOM      2  H5  UNL     1      63.089  54.998  16.592  1.00  0.00     0.153 HD
ENDROOT
BRANCH   1   3
HETATM    3  C6  UNL     1      63.690  52.982  16.932  1.00  0.00     0.158 C
BRANCH   3   4
HETATM    4  C5  UNL     1      64.974  53.223  16.223  1.00  0.00     0.081 C
HETATM    5  N4  UNL     1      65.667  54.235  16.549  1.00  0.00    -0.360 N
ATOM      6  H4  UNL     1      65.311  54.845  17.285  1.00  0.00     0.165 HD
BRANCH   5   7
HETATM    7  C4  UNL     1      66.936  54.573  15.934  1.00  0.00     0.118 A
HETATM    8  C3  UNL     1      67.115  55.355  14.817  1.00  0.00     0.152 A
HETATM    9  N2  UNL     1      68.354  55.545  14.412  1.00  0.00    -0.323 N
HETATM   10  N3  UNL     1      65.955  55.930  14.146  1.00  0.00    -0.080 NA
HETATM   11  C2  UNL     1      69.343  54.981  15.091  1.00  0.00     0.147 A
ATOM     12  H2  UNL     1      68.549  56.116  13.589  1.00  0.00     0.169 HD
HETATM   13  S1  UNL     1      68.536  54.154  16.343  1.00  0.00    -0.033 SA
BRANCH  11  14
HETATM   14  N1  UNL     1      70.636  55.058  14.845  1.00  0.00    -0.375 N
HETATM   15  C1  UNL     1      71.386  53.824  14.838  1.00  0.00     0.148 C
ATOM     16  H1  UNL     1      71.089  55.955  14.665  1.00  0.00     0.161 HD
ENDBRANCH  11  14
ENDBRANCH   5   7
ENDBRANCH   3   4
ENDBRANCH   1   3
BRANCH   1  17
HETATM   17  C7  UNL     1      62.156  54.204  18.349  1.00  0.00     0.138 C
BRANCH  17  18
HETATM   18  C8  UNL     1      61.870  55.595  18.826  1.00  0.00     0.189 C
HETATM   19  C9  UNL     1      60.998  55.642  20.054  1.00  0.00     0.233 C
HETATM   20  O1  UNL     1      60.523  54.639  20.620  1.00  0.00    -0.273 OA
HETATM   21  N6  UNL     1      60.768  56.998  20.511  1.00  0.00    -0.342 N
HETATM   22  C10 UNL     1      61.719  58.028  20.187  1.00  0.00     0.276 C
ATOM     23  H6  UNL     1      59.936  57.222  21.058  1.00  0.00     0.164 HD
HETATM   24  N7  UNL     1      63.035  57.485  19.896  1.00  0.00    -0.249 N
HETATM   25  C11 UNL     1      63.172  56.195  19.313  1.00  0.00     0.254 C
HETATM   26  O2  UNL     1      64.263  55.598  19.207  1.00  0.00    -0.271 OA
BRANCH  24  27
HETATM   27  N8  UNL     1      64.154  58.221  20.189  1.00  0.00    -0.339 N
ATOM     28  H82 UNL     1      64.519  58.230  21.141  1.00  0.00     0.177 HD
ATOM     29  H81 UNL     1      64.613  58.757  19.452  1.00  0.00     0.177 HD
ENDBRANCH  24  27
ENDBRANCH  17  18
ENDBRANCH   1  17
TORSDOF 7
ENDMDL