MODEL 2
REMARK VINA RESULT: -7.436671075      0.886      1.229
REMARK  9 active torsions:
REMARK  status: ('A' for Active; 'I' for Inactive)
REMARK    1  A    between atoms: N1_2  and  C2_4
REMARK    2  A    between atoms: C3_7  and  N3_8
REMARK    3  A    between atoms: N3_8  and  C5_10
REMARK    4  A    between atoms: C5_10  and  C6_11
REMARK    5  A    between atoms: C6_11  and  O1_12
REMARK    6  A    between atoms: C6_11  and  C7_14
REMARK    7  A    between atoms: C7_14  and  O2_15
REMARK    8  A    between atoms: C8_17  and  C9_18
REMARK    9  A    between atoms: C10_27  and  N8_28
ROOT
HETATM    1  C2  UNL     1      63.961  54.521  16.106  1.00  0.00     0.680 A
HETATM    2  N2  UNL     1      63.264  55.566  16.509  1.00  0.00    -0.176 N
ATOM      3  H2  UNL     1      63.487  56.470  16.092  1.00  0.00     0.186 HD
HETATM    4  C3  UNL     1      62.260  55.532  17.447  1.00  0.00     0.136 A
HETATM    5  C8  UNL     1      61.969  54.323  17.997  1.00  0.00     0.099 A
HETATM    6  C10 UNL     1      62.727  53.217  17.551  1.00  0.00     0.134 A
HETATM    7  N9  UNL     1      63.688  53.308  16.639  1.00  0.00    -0.176 N
ATOM      8  H9  UNL     1      64.210  52.481  16.348  1.00  0.00     0.186 HD
ENDROOT
BRANCH   4   9
HETATM    9  N3  UNL     1      61.610  56.779  17.774  1.00  0.00    -0.368 N
HETATM   10  C4  UNL     1      60.257  56.886  17.237  1.00  0.00     0.151 C
BRANCH   9  11
HETATM   11  C5  UNL     1      62.150  57.808  18.591  1.00  0.00     0.157 C
BRANCH  11  12
HETATM   12  C6  UNL     1      61.953  57.736  20.066  1.00  0.00     0.159 C
BRANCH  12  13
HETATM   13  O1  UNL     1      62.641  56.587  20.588  1.00  0.00    -0.392 OA
ATOM     14  H1  UNL     1      63.557  56.625  20.342  1.00  0.00     0.210 HD
ENDBRANCH  12  13
BRANCH  12  15
HETATM   15  C7  UNL     1      60.518  57.483  20.518  1.00  0.00     0.197 C
BRANCH  15  16
HETATM   16  O2  UNL     1      60.411  56.620  21.575  1.00  0.00    -0.398 OA
ATOM     17  H2  UNL     1      59.517  56.375  21.784  1.00  0.00     0.209 HD
ENDBRANCH  15  16
ENDBRANCH  12  15
ENDBRANCH  11  12
ENDBRANCH   9  11
ENDBRANCH   4   9
BRANCH   5  18
HETATM   18  C9  UNL     1      60.927  54.098  18.978  1.00  0.00     0.155 A
HETATM   19  N4  UNL     1      59.632  53.913  18.707  1.00  0.00    -0.268 N
HETATM   20  N5  UNL     1      58.991  53.742  19.824  1.00  0.00    -0.227 N
ATOM     21  H4  UNL     1      59.216  53.907  17.776  1.00  0.00     0.190 HD
HETATM   22  N6  UNL     1      59.857  53.816  20.814  1.00  0.00    -0.227 N
ATOM     23  H5  UNL     1      57.989  53.579  19.918  1.00  0.00     0.210 HD
HETATM   24  N7  UNL     1      61.079  54.039  20.295  1.00  0.00    -0.268 N
ATOM     25  H6  UNL     1      59.640  53.720  21.806  1.00  0.00     0.210 HD
ATOM     26  H7  UNL     1      61.951  54.143  20.813  1.00  0.00     0.190 HD
ENDBRANCH   5  18
BRANCH   1  27
HETATM   27  N1  UNL     1      64.888  54.613  15.233  1.00  0.00    -0.230 N
HETATM   28  C1  UNL     1      66.287  54.760  15.495  1.00  0.00     0.165 C
ATOM     29  H1  UNL     1      64.603  54.580  14.254  1.00  0.00     0.177 HD
ENDBRANCH   1  27
BRANCH   6  30
HETATM   30  N8  UNL     1      62.434  52.089  18.083  1.00  0.00    -0.379 N
HETATM   31  C11 UNL     1      61.622  51.070  17.506  1.00  0.00     0.147 C
ATOM     32  H8  UNL     1      62.819  51.901  19.009  1.00  0.00     0.160 HD
ENDBRANCH   6  30
TORSDOF 9
ENDMDL