MODEL 1
REMARK VINA RESULT: -7.182813441      0.000      0.000
REMARK  9 active torsions:
REMARK  status: ('A' for Active; 'I' for Inactive)
REMARK    1  A    between atoms: N2_3  and  C2_4
REMARK    2  A    between atoms: N2_3  and  N7_20
REMARK    3  A    between atoms: N3_5  and  N4_7
REMARK       I    between atoms: N4_7  and  C3_9
REMARK    4  A    between atoms: C3_9  and  C4_11
REMARK    5  A    between atoms: C4_11  and  N5_12
REMARK    6  A    between atoms: C4_11  and  N6_16
REMARK    7  A    between atoms: N7_20  and  S1_22
REMARK    8  A    between atoms: S1_22  and  C5_25
REMARK    9  A    between atoms: C7_29  and  N9_30
ROOT
HETATM    1  N1  UNL     1      62.183  54.796  15.254  1.00  0.00    -0.170 NA
HETATM    2  C1  UNL     1      62.926  54.779  16.156  1.00  0.00     0.206 C
HETATM    3  N2  UNL     1      63.828  54.744  17.222  1.00  0.00    -0.175 N
ENDROOT
BRANCH   3   4
HETATM    4  C2  UNL     1      65.210  54.986  16.998  1.00  0.00     0.235 C
HETATM    5  N3  UNL     1      65.870  54.299  16.153  1.00  0.00    -0.291 N
ATOM      6  H3  UNL     1      65.396  53.562  15.629  1.00  0.00     0.188 HD
BRANCH   5   7
HETATM    7  N4  UNL     1      67.226  54.533  15.930  1.00  0.00    -0.266 N
HETATM    8  C3  UNL     1      67.690  55.245  14.793  1.00  0.00     0.294 C
HETATM    9  O1  UNL     1      66.830  55.666  13.979  1.00  0.00    -0.267 OA
ATOM     10  H4  UNL     1      67.906  54.182  16.605  1.00  0.00     0.190 HD
BRANCH   8  11
HETATM   11  C4  UNL     1      69.134  55.494  14.554  1.00  0.00     0.469 C
BRANCH  11  12
HETATM   12  N5  UNL     1      69.939  54.341  14.873  1.00  0.00    -0.041 N
ATOM     13  H53 UNL     1      69.362  53.509  14.999  1.00  0.00     0.277 HD
ATOM     14  H52 UNL     1      70.487  54.037  14.068  1.00  0.00     0.277 HD
ATOM     15  H51 UNL     1      70.534  54.506  15.685  1.00  0.00     0.277 HD
ENDBRANCH  11  12
BRANCH  11  16
HETATM   16  N6  UNL     1      69.626  56.603  15.339  1.00  0.00    -0.041 N
ATOM     17  H63 UNL     1      68.871  57.059  15.852  1.00  0.00     0.277 HD
ATOM     18  H62 UNL     1      70.184  56.280  16.129  1.00  0.00     0.277 HD
ATOM     19  H61 UNL     1      70.143  57.272  14.769  1.00  0.00     0.277 HD
ENDBRANCH  11  16
ENDBRANCH   8  11
ENDBRANCH   5   7
ENDBRANCH   3   4
BRANCH   3  20
HETATM   20  N7  UNL     1      63.406  54.473  18.517  1.00  0.00    -0.206 N
ATOM     21  H7  UNL     1      63.694  53.644  19.036  1.00  0.00     0.201 HD
BRANCH  20  22
HETATM   22  S1  UNL     1      62.362  55.655  19.160  1.00  0.00     0.285 S
HETATM   23  O2  UNL     1      62.792  55.957  20.571  1.00  0.00    -0.198 OA
HETATM   24  O3  UNL     1      62.433  56.905  18.375  1.00  0.00    -0.198 OA
BRANCH  22  25
HETATM   25  C5  UNL     1      60.729  54.989  19.214  1.00  0.00     0.140 A
HETATM   26  C6  UNL     1      60.224  54.049  20.070  1.00  0.00     0.123 A
HETATM   27  N8  UNL     1      58.963  53.702  19.920  1.00  0.00    -0.345 N
HETATM   28  C7  UNL     1      58.262  54.284  18.952  1.00  0.00     0.143 A
ATOM     29  H8  UNL     1      58.536  53.005  20.530  1.00  0.00     0.167 HD
HETATM   30  S2  UNL     1      59.381  55.340  18.229  1.00  0.00    -0.039 SA
BRANCH  28  31
HETATM   31  N9  UNL     1      57.003  54.088  18.632  1.00  0.00    -0.380 N
ATOM     32  H92 UNL     1      56.614  53.398  17.989  1.00  0.00     0.158 HD
ATOM     33  H91 UNL     1      56.181  54.590  18.968  1.00  0.00     0.158 HD
ENDBRANCH  28  31
ENDBRANCH  22  25
ENDBRANCH  20  22
ENDBRANCH   3  20
TORSDOF 9
ENDMDL