MODEL 5
REMARK VINA RESULT: -7.414248911      0.812      1.962
REMARK  8 active torsions:
REMARK  status: ('A' for Active; 'I' for Inactive)
REMARK    1  A    between atoms: C1_2  and  N1_3
REMARK    2  A    between atoms: N1_3  and  O2_4
REMARK    3  A    between atoms: N1_3  and  C2_6
REMARK    4  A    between atoms: C3_7  and  C4_8
REMARK    5  A    between atoms: C4_8  and  C5_9
REMARK    6  A    between atoms: C6_10  and  O3_11
REMARK    7  A    between atoms: N5_25  and  C10_26
REMARK    8  A    between atoms: C10_26  and  O7_27
ROOT
HETATM    1  C2  UNL     1      63.120  54.158  17.447  1.00  0.00     0.167 A
HETATM    2  C3  UNL     1      64.208  54.595  16.760  1.00  0.00     0.065 A
HETATM    3  N4  UNL     1      64.613  55.810  17.254  1.00  0.00    -0.308 N
ATOM      4  H4  UNL     1      65.398  56.374  16.929  1.00  0.00     0.170 HD
HETATM    5  C9  UNL     1      63.775  56.104  18.243  1.00  0.00     0.330 A
HETATM    6  O6  UNL     1      63.845  57.151  18.933  1.00  0.00    -0.246 OA
HETATM    7  N5  UNL     1      62.872  55.134  18.382  1.00  0.00    -0.260 N
ENDROOT
BRANCH   2   8
HETATM    8  C4  UNL     1      65.050  53.937  15.736  1.00  0.00     0.110 C
BRANCH   8   9
HETATM    9  C5  UNL     1      66.438  54.462  15.682  1.00  0.00     0.067 A
HETATM   10  C6  UNL     1      66.905  55.419  14.844  1.00  0.00     0.156 A
HETATM   11  N2  UNL     1      68.221  55.797  14.899  1.00  0.00    -0.288 N
HETATM   12  C7  UNL     1      69.038  55.210  15.791  1.00  0.00     0.329 A
ATOM     13  H2  UNL     1      68.577  56.517  14.269  1.00  0.00     0.172 HD
HETATM   14  O4  UNL     1      70.249  55.515  15.887  1.00  0.00    -0.247 OA
HETATM   15  N3  UNL     1      68.576  54.254  16.632  1.00  0.00    -0.275 N
HETATM   16  C8  UNL     1      67.313  53.851  16.620  1.00  0.00     0.260 A
ATOM     17  H3  UNL     1      69.223  53.829  17.297  1.00  0.00     0.173 HD
HETATM   18  O5  UNL     1      66.916  52.965  17.409  1.00  0.00    -0.267 OA
BRANCH  10  19
HETATM   19  O3  UNL     1      66.146  56.070  13.903  1.00  0.00    -0.345 OA
ATOM     20  H3  UNL     1      65.206  56.198  13.961  1.00  0.00     0.219 HD
ENDBRANCH  10  19
ENDBRANCH   8   9
ENDBRANCH   2   8
BRANCH   1  21
HETATM   21  N1  UNL     1      62.261  53.045  17.283  1.00  0.00    -0.180 N
BRANCH  21  22
HETATM   22  C1  UNL     1      62.308  51.788  17.856  1.00  0.00     0.383 C
HETATM   23  O1  UNL     1      61.646  50.823  17.365  1.00  0.00    -0.281 OA
ENDBRANCH  21  22
BRANCH  21  24
HETATM   24  O2  UNL     1      61.270  53.205  16.450  1.00  0.00    -0.279 OA
ATOM     25  H2  UNL     1      60.964  54.102  16.390  1.00  0.00     0.245 HD
ENDBRANCH  21  24
ENDBRANCH   1  21
BRANCH   7  26
HETATM   26  C10 UNL     1      61.816  55.160  19.351  1.00  0.00     0.302 C
BRANCH  26  27
HETATM   27  O7  UNL     1      62.352  55.586  20.590  1.00  0.00    -0.382 OA
ATOM     28  H7  UNL     1      61.848  55.188  21.291  1.00  0.00     0.211 HD
ENDBRANCH  26  27
ENDBRANCH   7  26
TORSDOF 8
ENDMDL