MODEL 2
REMARK VINA RESULT: -8.241220988      3.132      4.674
REMARK  6 active torsions:
REMARK  status: ('A' for Active; 'I' for Inactive)
REMARK    1  A    between atoms: C6_11  and  C7_12
REMARK    2  A    between atoms: C7_12  and  C8_14
REMARK       I    between atoms: C8_14  and  N3_16
REMARK    3  A    between atoms: N3_16  and  C9_18
REMARK    4  A    between atoms: C9_18  and  C10_19
REMARK    5  A    between atoms: C10_19  and  N4_20
REMARK    6  A    between atoms: N4_20  and  C11_22
ROOT
HETATM    1  C8  UNL     1      60.199  55.406  15.453  1.00  0.00     0.292 C
HETATM    2  O4  UNL     1      60.398  54.786  14.386  1.00  0.00    -0.264 OA
HETATM    3  N3  UNL     1      60.900  55.022  16.611  1.00  0.00    -0.353 N
ATOM      4  H3  UNL     1      60.709  55.557  17.458  1.00  0.00     0.162 HD
ENDROOT
BRANCH   1   5
HETATM    5  C7  UNL     1      59.242  56.491  15.421  1.00  0.00     0.256 C
HETATM    6  O3  UNL     1      58.026  56.202  15.255  1.00  0.00    -0.281 OA
BRANCH   5   7
HETATM    7  C6  UNL     1      59.587  57.889  15.566  1.00  0.00     0.110 A
HETATM    8  C2  UNL     1      59.573  58.685  14.446  1.00  0.00     0.029 A
HETATM    9  C1  UNL     1      59.214  58.093  13.145  1.00  0.00     0.069 C
HETATM   10  N1  UNL     1      59.882  59.983  14.550  1.00  0.00    -0.311 N
HETATM   11  C3  UNL     1      60.213  60.533  15.753  1.00  0.00     0.329 A
ATOM     12  H1  UNL     1      59.869  60.570  13.716  1.00  0.00     0.170 HD
HETATM   13  O1  UNL     1      60.499  61.759  15.810  1.00  0.00    -0.246 OA
HETATM   14  N2  UNL     1      60.232  59.768  16.854  1.00  0.00    -0.270 N
HETATM   15  C4  UNL     1      60.582  60.366  18.112  1.00  0.00     0.164 C
HETATM   16  C5  UNL     1      59.929  58.465  16.797  1.00  0.00     0.267 A
HETATM   17  O2  UNL     1      59.932  57.706  17.805  1.00  0.00    -0.267 OA
ENDBRANCH   5   7
ENDBRANCH   1   5
BRANCH   3  18
HETATM   18  C9  UNL     1      61.856  53.956  16.729  1.00  0.00     0.142 C
BRANCH  18  19
HETATM   19  C10 UNL     1      63.005  54.370  17.596  1.00  0.00     0.142 C
BRANCH  19  20
HETATM   20  N4  UNL     1      62.563  55.025  18.816  1.00  0.00    -0.360 N
ATOM     21  H4  UNL     1      61.838  54.588  19.385  1.00  0.00     0.162 HD
BRANCH  20  22
HETATM   22  C11 UNL     1      63.127  56.267  19.230  1.00  0.00     0.188 C
HETATM   23  N5  UNL     1      63.788  56.472  20.314  1.00  0.00    -0.346 N
HETATM   24  C12 UNL     1      64.207  57.849  20.399  1.00  0.00     0.259 C
ATOM     25  H5  UNL     1      63.988  55.759  21.015  1.00  0.00     0.163 HD
HETATM   26  N6  UNL     1      63.271  58.531  19.540  1.00  0.00    -0.119 NA
HETATM   27  N7  UNL     1      63.085  57.533  18.548  1.00  0.00    -0.274 N
ATOM     28  H7  UNL     1      62.948  57.683  17.548  1.00  0.00     0.185 HD
ENDBRANCH  20  22
ENDBRANCH  19  20
ENDBRANCH  18  19
ENDBRANCH   3  18
TORSDOF 6
ENDMDL