MODEL 4
REMARK VINA RESULT: -7.274757912      3.120      4.863
REMARK  8 active torsions:
REMARK  status: ('A' for Active; 'I' for Inactive)
REMARK    1  A    between atoms: C2_2  and  N1_3
REMARK    2  A    between atoms: N2_6  and  C5_7
REMARK    3  A    between atoms: C6_10  and  N4_11
REMARK    4  A    between atoms: N4_11  and  N5_13
REMARK    5  A    between atoms: N5_13  and  C7_15
REMARK    6  A    between atoms: C7_15  and  C8_16
REMARK    7  A    between atoms: N6_17  and  O1_19
REMARK    8  A    between atoms: C12_28  and  O3_29
ROOT
HETATM    1  C5  UNL     1      59.723  59.602  18.221  1.00  0.00     0.149 A
HETATM    2  N3  UNL     1      59.878  58.279  18.411  1.00  0.00    -0.173 N
ATOM      3  H3  UNL     1      59.077  57.731  18.722  1.00  0.00     0.186 HD
HETATM    4  C6  UNL     1      61.050  57.652  18.208  1.00  0.00     0.701 A
HETATM    5  N7  UNL     1      62.119  58.383  17.795  1.00  0.00    -0.153 N
ATOM      6  H7  UNL     1      63.007  57.905  17.643  1.00  0.00     0.187 HD
HETATM    7  C9  UNL     1      62.055  59.708  17.581  1.00  0.00     0.284 A
HETATM    8  O2  UNL     1      63.067  60.375  17.194  1.00  0.00    -0.266 OA
HETATM    9  C10 UNL     1      60.829  60.316  17.802  1.00  0.00     0.157 A
HETATM   10  C11 UNL     1      60.714  61.743  17.583  1.00  0.00     0.109 C
HETATM   11  N8  UNL     1      60.637  62.891  17.394  1.00  0.00    -0.191 NA
ENDROOT
BRANCH   1  12
HETATM   12  N2  UNL     1      58.512  60.296  18.423  1.00  0.00    -0.312 N
HETATM   13  C4  UNL     1      58.151  61.239  19.440  1.00  0.00     0.159 A
HETATM   14  C3  UNL     1      56.711  61.571  19.211  1.00  0.00     0.298 A
HETATM   15  N1  UNL     1      56.310  60.946  17.989  1.00  0.00     0.138 N
HETATM   16  C12 UNL     1      57.367  60.111  17.523  1.00  0.00     0.468 A
BRANCH  15  17
HETATM   17  C2  UNL     1      55.015  60.349  17.994  1.00  0.00     0.274 C
HETATM   18  C1  UNL     1      54.202  60.653  16.765  1.00  0.00     0.037 C
ENDBRANCH  15  17
BRANCH  16  19
HETATM   19  O3  UNL     1      57.801  60.628  16.281  1.00  0.00    -0.352 OA
ATOM     20  H3  UNL     1      57.778  59.917  15.651  1.00  0.00     0.214 HD
ENDBRANCH  16  19
ENDBRANCH   1  12
BRANCH   4  21
HETATM   21  N4  UNL     1      61.210  56.383  18.387  1.00  0.00    -0.136 N
ATOM     22  H4  UNL     1      60.667  55.909  19.109  1.00  0.00     0.205 HD
BRANCH  21  23
HETATM   23  N5  UNL     1      62.108  55.650  17.615  1.00  0.00    -0.317 N
ATOM     24  H5  UNL     1      61.987  55.661  16.602  1.00  0.00     0.181 HD
BRANCH  23  25
HETATM   25  C7  UNL     1      63.194  54.878  18.155  1.00  0.00     0.186 C
BRANCH  25  26
HETATM   26  C8  UNL     1      64.313  55.762  18.616  1.00  0.00     0.107 C
HETATM   27  N6  UNL     1      64.362  56.256  19.804  1.00  0.00    -0.283 N
ATOM     28  H6  UNL     1      65.141  56.855  20.079  1.00  0.00     0.192 HD
BRANCH  27  29
HETATM   29  O1  UNL     1      63.365  55.974  20.693  1.00  0.00    -0.291 OA
ATOM     30  H1  UNL     1      63.418  55.187  21.222  1.00  0.00     0.244 HD
ENDBRANCH  27  29
ENDBRANCH  25  26
ENDBRANCH  23  25
ENDBRANCH  21  23
ENDBRANCH   4  21
TORSDOF 8
ENDMDL