MODEL 1
REMARK VINA RESULT: -7.657303189      0.000      0.000
REMARK  8 active torsions:
REMARK  status: ('A' for Active; 'I' for Inactive)
REMARK    1  A    between atoms: C2_3  and  C3_4
REMARK    2  A    between atoms: C3_4  and  N2_5
REMARK    3  A    between atoms: N2_5  and  C4_7
REMARK    4  A    between atoms: C5_10  and  N4_11
REMARK    5  A    between atoms: C9_21  and  N8_22
REMARK    6  A    between atoms: N8_22  and  C10_24
REMARK    7  A    between atoms: C10_24  and  C11_25
REMARK    8  A    between atoms: C11_25  and  O1_26
ROOT
HETATM    1  N1  UNL     1      66.789  55.615  14.286  1.00  0.00    -0.197 NA
HETATM    2  C1  UNL     1      66.630  54.924  15.225  1.00  0.00     0.060 C
HETATM    3  C2  UNL     1      66.427  54.066  16.389  1.00  0.00     0.144 C
ENDROOT
BRANCH   3   4
HETATM    4  C3  UNL     1      64.947  53.657  16.489  1.00  0.00     0.152 C
BRANCH   4   5
HETATM    5  N2  UNL     1      64.157  54.739  16.048  1.00  0.00    -0.224 N
ATOM      6  H2  UNL     1      64.222  54.930  15.048  1.00  0.00     0.177 HD
BRANCH   5   7
HETATM    7  C4  UNL     1      63.377  55.517  16.683  1.00  0.00     0.707 A
HETATM    8  N3  UNL     1      62.832  56.643  16.204  1.00  0.00    -0.021 N
HETATM    9  C5  UNL     1      62.027  57.429  16.932  1.00  0.00     0.720 A
ATOM     10  H3  UNL     1      63.039  56.914  15.243  1.00  0.00     0.203 HD
HETATM   11  N7  UNL     1      61.768  57.044  18.213  1.00  0.00    -0.021 N
HETATM   12  C9  UNL     1      62.284  55.928  18.742  1.00  0.00     0.707 A
ATOM     13  H7  UNL     1      61.160  57.626  18.788  1.00  0.00     0.203 HD
HETATM   14  N9  UNL     1      63.085  55.178  17.971  1.00  0.00    -0.022 N
ATOM     15  H9  UNL     1      63.488  54.325  18.360  1.00  0.00     0.203 HD
BRANCH   9  16
HETATM   16  N4  UNL     1      61.434  58.610  16.408  1.00  0.00    -0.146 N
HETATM   17  C6  UNL     1      60.611  58.609  15.224  1.00  0.00     0.175 C
HETATM   18  C7  UNL     1      59.525  59.651  15.385  1.00  0.00     0.143 C
HETATM   19  N5  UNL     1      60.046  61.013  15.410  1.00  0.00    -0.370 N
HETATM   20  C8  UNL     1      60.876  61.429  16.517  1.00  0.00     0.171 C
ATOM     21  H5  UNL     1      59.827  61.664  14.655  1.00  0.00     0.161 HD
HETATM   22  N6  UNL     1      60.958  62.764  16.966  1.00  0.00    -0.073 NA
HETATM   23  S1  UNL     1      61.708  60.179  17.169  1.00  0.00     0.037 SA
ENDBRANCH   9  16
BRANCH  12  24
HETATM   24  N8  UNL     1      62.009  55.572  19.972  1.00  0.00    -0.223 N
ATOM     25  H8  UNL     1      62.738  55.322  20.640  1.00  0.00     0.177 HD
BRANCH  24  26
HETATM   26  C10 UNL     1      60.591  55.553  20.327  1.00  0.00     0.164 C
BRANCH  26  27
HETATM   27  C11 UNL     1      60.016  54.203  19.997  1.00  0.00     0.184 C
BRANCH  27  28
HETATM   28  O1  UNL     1      59.997  53.375  21.113  1.00  0.00    -0.399 OA
ATOM     29  H1  UNL     1      59.320  52.713  21.041  1.00  0.00     0.209 HD
ENDBRANCH  27  28
ENDBRANCH  26  27
ENDBRANCH  24  26
ENDBRANCH  12  24
ENDBRANCH   5   7
ENDBRANCH   4   5
ENDBRANCH   3   4
TORSDOF 8
ENDMDL