MODEL 4
REMARK VINA RESULT: -8.634777437      2.608      9.389
REMARK  12 active torsions:
REMARK  status: ('A' for Active; 'I' for Inactive)
REMARK    1  A    between atoms: C2_2  and  C3_3
REMARK    2  A    between atoms: C3_3  and  N1_4
REMARK    3  A    between atoms: N1_4  and  C4_5
REMARK       I    between atoms: N1_4  and  C23_31
REMARK    4  A    between atoms: C4_5  and  C5_6
REMARK    5  A    between atoms: C5_6  and  C6_7
REMARK    6  A    between atoms: C5_6  and  N2_14
REMARK    7  A    between atoms: C6_7  and  C7_8
REMARK       I    between atoms: N2_14  and  C13_16
REMARK    8  A    between atoms: C13_16  and  C14_18
REMARK       I    between atoms: N3_22  and  C18_23
REMARK       I    between atoms: C18_23  and  N4_25
REMARK    9  A    between atoms: N4_25  and  C19_27
REMARK   10  A    between atoms: C23_31  and  C24_33
REMARK   11  A    between atoms: C24_33  and  N5_35
REMARK       I    between atoms: N5_35  and  C26_37
REMARK       I    between atoms: C26_37  and  N6_39
REMARK   12  A    between atoms: N6_39  and  C27_41
ROOT
HETATM    1  C5  UNL     1      -9.677  16.797  25.059  1.00  0.00     0.147 C
ENDROOT
BRANCH   1   2
HETATM    2  C4  UNL     1      -8.383  16.475  25.608  1.00  0.00     0.101 C
BRANCH   2   3
HETATM    3  N1  UNL     1      -7.293  17.329  25.873  1.00  0.00    -0.307 N
HETATM    4  C23 UNL     1      -6.300  16.944  26.815  1.00  0.00     0.249 C
HETATM    5  O3  UNL     1      -6.665  15.985  27.602  1.00  0.00    -0.270 OA
BRANCH   3   6
HETATM    6  C3  UNL     1      -7.046  18.444  25.005  1.00  0.00     0.071 C
BRANCH   6   7
HETATM    7  C2  UNL     1      -6.403  18.317  23.704  1.00  0.00     0.041 C
HETATM    8  C1  UNL     1      -6.583  19.591  22.877  1.00  0.00     0.010 C
ENDBRANCH   6   7
ENDBRANCH   3   6
BRANCH   4   9
HETATM    9  C24 UNL     1      -4.955  17.474  26.996  1.00  0.00     0.175 C
HETATM   10  C25 UNL     1      -4.346  17.387  28.345  1.00  0.00     0.042 C
BRANCH   9  11
HETATM   11  N5  UNL     1      -4.036  16.721  26.108  1.00  0.00    -0.330 N
HETATM   12  C26 UNL     1      -3.215  17.365  25.182  1.00  0.00     0.317 C
HETATM   13  O4  UNL     1      -3.295  18.632  25.098  1.00  0.00    -0.247 OA
HETATM   14  N6  UNL     1      -2.293  16.717  24.325  1.00  0.00    -0.335 N
ATOM     15  H6  UNL     1      -2.196  15.705  24.398  1.00  0.00     0.165 HD
ATOM     16  H5  UNL     1      -4.004  15.704  26.175  1.00  0.00     0.165 HD
BRANCH  14  17
HETATM   17  C27 UNL     1      -1.485  17.410  23.356  1.00  0.00     0.023 C
HETATM   18  C28 UNL     1      -0.557  18.432  23.926  1.00  0.00     0.037 C
HETATM   19  C29 UNL     1      -2.332  18.034  22.268  1.00  0.00     0.037 C
HETATM   20  C30 UNL     1      -0.614  16.371  22.644  1.00  0.00     0.037 C
ENDBRANCH  14  17
ENDBRANCH   9  11
ENDBRANCH   4   9
ENDBRANCH   2   3
ENDBRANCH   1   2
BRANCH   1  21
HETATM   21  C6  UNL     1     -10.221  16.727  23.739  1.00  0.00     0.006 C
BRANCH  21  22
HETATM   22  C7  UNL     1      -9.494  16.620  22.486  1.00  0.00    -0.081 C
HETATM   23  C8  UNL     1      -8.640  15.336  22.406  1.00  0.00     0.034 C
HETATM   24  C9  UNL     1      -7.433  15.669  21.563  1.00  0.00     0.004 C
HETATM   25  C10 UNL     1      -7.563  16.905  20.741  1.00  0.00     0.001 C
HETATM   26  C11 UNL     1      -8.920  17.146  20.182  1.00  0.00     0.004 C
HETATM   27  C12 UNL     1     -10.051  16.846  21.165  1.00  0.00     0.034 C
ENDBRANCH  21  22
ENDBRANCH   1  21
BRANCH   1  28
HETATM   28  N2  UNL     1     -10.650  16.067  25.964  1.00  0.00    -0.347 N
HETATM   29  C13 UNL     1     -10.999  16.554  27.223  1.00  0.00     0.241 C
HETATM   30  O1  UNL     1     -10.452  17.633  27.592  1.00  0.00    -0.271 OA
ATOM     31  H2  UNL     1     -11.062  15.191  25.642  1.00  0.00     0.163 HD
BRANCH  29  32
HETATM   32  C14 UNL     1     -11.928  15.919  28.131  1.00  0.00     0.181 C
HETATM   33  C15 UNL     1     -12.747  14.813  27.506  1.00  0.00     0.037 C
HETATM   34  C16 UNL     1     -11.997  13.582  27.846  1.00  0.00     0.022 C
HETATM   35  C17 UNL     1     -11.099  13.920  28.989  1.00  0.00     0.129 C
HETATM   36  N3  UNL     1     -11.386  15.328  29.319  1.00  0.00    -0.321 N
HETATM   37  C18 UNL     1     -11.142  15.872  30.593  1.00  0.00     0.319 C
HETATM   38  O2  UNL     1     -11.399  17.062  30.842  1.00  0.00    -0.247 OA
HETATM   39  N4  UNL     1     -10.586  15.074  31.659  1.00  0.00    -0.335 N
ATOM     40  H4  UNL     1     -10.369  14.097  31.463  1.00  0.00     0.165 HD
BRANCH  39  41
HETATM   41  C19 UNL     1     -10.320  15.568  32.972  1.00  0.00     0.023 C
HETATM   42  C20 UNL     1      -9.331  16.712  32.972  1.00  0.00     0.037 C
HETATM   43  C21 UNL     1     -11.587  16.040  33.654  1.00  0.00     0.037 C
HETATM   44  C22 UNL     1      -9.671  14.447  33.796  1.00  0.00     0.037 C
ENDBRANCH  39  41
ENDBRANCH  29  32
ENDBRANCH   1  28
TORSDOF 12
ENDMDL