MODEL 2
REMARK VINA RESULT: -9.482172424      2.435      9.865
REMARK  10 active torsions:
REMARK  status: ('A' for Active; 'I' for Inactive)
REMARK    1  A    between atoms: C2_2  and  C4_4
REMARK    2  A    between atoms: C4_4  and  N1_5
REMARK    3  A    between atoms: C4_4  and  C8_12
REMARK       I    between atoms: N1_5  and  C5_7
REMARK       I    between atoms: C5_7  and  N2_9
REMARK       I    between atoms: C8_12  and  N3_14
REMARK    4  A    between atoms: C12_18  and  C13_19
REMARK    5  A    between atoms: C13_19  and  C14_20
REMARK    6  A    between atoms: C20_26  and  C21_27
REMARK       I    between atoms: C21_27  and  N4_29
REMARK    7  A    between atoms: N4_29  and  C22_31
REMARK    8  A    between atoms: C22_31  and  C23_32
REMARK    9  A    between atoms: C22_31  and  C29_41
REMARK   10  A    between atoms: C23_32  and  C24_33
ROOT
HETATM    1  C8  UNL     1     -10.311  15.507  30.874  1.00  0.00     0.243 C
HETATM    2  O2  UNL     1      -9.434  14.619  31.157  1.00  0.00    -0.271 OA
HETATM    3  N3  UNL     1     -10.909  15.431  29.574  1.00  0.00    -0.337 N
HETATM    4  C9  UNL     1     -11.936  16.370  29.191  1.00  0.00     0.127 C
HETATM    5  C10 UNL     1     -13.075  15.607  28.562  1.00  0.00     0.020 C
HETATM    6  C11 UNL     1     -12.568  14.694  27.445  1.00  0.00     0.009 C
HETATM    7  C12 UNL     1     -11.619  13.679  27.957  1.00  0.00     0.018 C
HETATM    8  C20 UNL     1     -10.471  14.429  28.664  1.00  0.00     0.183 C
ENDROOT
BRANCH   8   9
HETATM    9  C21 UNL     1      -9.433  14.855  27.715  1.00  0.00     0.241 C
HETATM   10  O3  UNL     1      -8.378  14.185  27.616  1.00  0.00    -0.271 OA
HETATM   11  N4  UNL     1      -9.573  16.000  26.899  1.00  0.00    -0.348 N
ATOM     12  H4  UNL     1     -10.426  16.556  26.970  1.00  0.00     0.163 HD
BRANCH  11  13
HETATM   13  C22 UNL     1      -8.532  16.416  25.954  1.00  0.00     0.152 C
BRANCH  13  14
HETATM   14  C23 UNL     1      -9.123  16.823  24.636  1.00  0.00     0.037 C
BRANCH  14  15
HETATM   15  C24 UNL     1      -9.369  15.709  23.678  1.00  0.00    -0.009 C
HETATM   16  C25 UNL     1      -8.143  15.166  23.020  1.00  0.00     0.032 C
HETATM   17  C26 UNL     1      -7.410  16.210  22.204  1.00  0.00     0.232 C
HETATM   18  N5  UNL     1      -8.282  16.644  21.155  1.00  0.00    -0.075 N
HETATM   19  C27 UNL     1      -9.496  17.214  21.683  1.00  0.00     0.232 C
ATOM     20  H52 UNL     1      -7.811  17.289  20.521  1.00  0.00     0.277 HD
ATOM     21  H51 UNL     1      -8.479  15.890  20.496  1.00  0.00     0.277 HD
HETATM   22  C28 UNL     1     -10.258  16.261  22.568  1.00  0.00     0.032 C
ENDBRANCH  14  15
ENDBRANCH  13  14
BRANCH  13  23
HETATM   23  C29 UNL     1      -7.774  17.572  26.503  1.00  0.00     0.104 A
HETATM   24  N6  UNL     1      -6.782  17.485  27.392  1.00  0.00    -0.353 N
HETATM   25  C30 UNL     1      -6.329  18.720  27.659  1.00  0.00     0.106 A
ATOM     26  H6  UNL     1      -6.426  16.621  27.801  1.00  0.00     0.166 HD
HETATM   27  C31 UNL     1      -7.078  19.589  26.901  1.00  0.00     0.106 A
HETATM   28  N7  UNL     1      -7.960  18.885  26.197  1.00  0.00    -0.353 N
ATOM     29  H7  UNL     1      -8.650  19.261  25.546  1.00  0.00     0.166 HD
ENDBRANCH  13  23
ENDBRANCH  11  13
ENDBRANCH   8   9
BRANCH   7  30
HETATM   30  C13 UNL     1     -12.202  12.661  28.837  1.00  0.00     0.012 C
BRANCH  30  31
HETATM   31  C14 UNL     1     -13.197  12.979  29.854  1.00  0.00    -0.014 C
HETATM   32  C15 UNL     1     -12.837  13.268  31.243  1.00  0.00     0.005 C
HETATM   33  C16 UNL     1     -13.950  12.841  32.232  1.00  0.00     0.000 C
HETATM   34  C17 UNL     1     -14.029  11.334  32.283  1.00  0.00     0.000 C
HETATM   35  C18 UNL     1     -13.839  10.788  30.883  1.00  0.00     0.000 C
HETATM   36  C19 UNL     1     -14.229  11.825  29.847  1.00  0.00     0.005 C
ENDBRANCH  30  31
ENDBRANCH   7  30
BRANCH   1  37
HETATM   37  C4  UNL     1     -10.621  16.508  31.895  1.00  0.00     0.181 C
BRANCH  37  38
HETATM   38  C2  UNL     1      -9.530  17.582  32.008  1.00  0.00     0.009 C
HETATM   39  C1  UNL     1      -8.552  17.248  33.089  1.00  0.00     0.012 C
HETATM   40  C3  UNL     1      -8.736  17.630  30.703  1.00  0.00     0.012 C
ENDBRANCH  37  38
BRANCH  37  41
HETATM   41  N1  UNL     1     -10.640  15.868  33.217  1.00  0.00    -0.329 N
HETATM   42  C5  UNL     1     -11.817  15.646  33.965  1.00  0.00     0.318 C
HETATM   43  O1  UNL     1     -12.923  16.014  33.479  1.00  0.00    -0.247 OA
HETATM   44  N2  UNL     1     -11.717  15.020  35.232  1.00  0.00    -0.343 N
HETATM   45  C6  UNL     1     -10.449  14.610  35.769  1.00  0.00     0.154 C
HETATM   46  C7  UNL     1     -12.942  14.800  35.974  1.00  0.00     0.154 C
ATOM     47  H1  UNL     1      -9.752  15.567  33.618  1.00  0.00     0.165 HD
ENDBRANCH  37  41
ENDBRANCH   1  37
TORSDOF 10
ENDMDL