MODEL 2
REMARK VINA RESULT: -9.793908537      0.650      1.347
REMARK  12 active torsions:
REMARK  status: ('A' for Active; 'I' for Inactive)
REMARK    1  A    between atoms: O1_2  and  C2_3
REMARK    2  A    between atoms: C2_3  and  C3_4
REMARK    3  A    between atoms: C2_3  and  C32_41
REMARK    4  A    between atoms: C3_4  and  N1_5
REMARK       I    between atoms: N1_5  and  C4_7
REMARK    5  A    between atoms: C4_7  and  C5_9
REMARK    6  A    between atoms: C5_9  and  C6_10
REMARK    7  A    between atoms: C6_10  and  C7_11
REMARK    8  A    between atoms: C7_11  and  N2_12
REMARK       I    between atoms: N2_12  and  C8_14
REMARK    9  A    between atoms: C8_14  and  C9_16
REMARK   10  A    between atoms: C12_19  and  O4_20
REMARK   11  A    between atoms: C20_29  and  C21_30
REMARK   12  A    between atoms: C21_30  and  C22_31
ROOT
HETATM    1  C9  UNL     1      -9.807  16.640  25.616  1.00  0.00     0.044 C
HETATM    2  C10 UNL     1     -11.295  16.644  25.505  1.00  0.00     0.026 C
HETATM    3  C11 UNL     1      -9.347  18.063  25.838  1.00  0.00     0.051 C
HETATM    4  C12 UNL     1      -9.346  18.169  27.339  1.00  0.00     0.128 C
HETATM    5  C13 UNL     1      -8.835  16.820  27.744  1.00  0.00    -0.009 C
HETATM    6  C14 UNL     1      -7.300  16.965  27.589  1.00  0.00     0.018 C
HETATM    7  C15 UNL     1      -9.031  16.472  29.185  1.00  0.00     0.001 C
HETATM    8  C16 UNL     1      -8.724  17.597  30.097  1.00  0.00     0.007 C
HETATM    9  C17 UNL     1      -9.183  17.422  31.501  1.00  0.00     0.010 C
HETATM   10  C18 UNL     1      -9.815  16.126  31.814  1.00  0.00    -0.036 C
HETATM   11  C19 UNL     1      -8.922  14.980  32.116  1.00  0.00     0.016 C
HETATM   12  C20 UNL     1     -10.810  16.215  32.985  1.00  0.00    -0.006 C
HETATM   13  C25 UNL     1     -11.557  14.945  32.793  1.00  0.00     0.006 C
HETATM   14  C26 UNL     1     -11.393  14.538  31.315  1.00  0.00     0.006 C
HETATM   15  C27 UNL     1     -10.868  15.800  30.742  1.00  0.00    -0.002 C
HETATM   16  C28 UNL     1     -10.381  15.836  29.375  1.00  0.00    -0.005 C
HETATM   17  C29 UNL     1     -10.237  14.469  28.690  1.00  0.00     0.006 C
HETATM   18  C30 UNL     1     -10.227  14.764  27.212  1.00  0.00     0.007 C
HETATM   19  C31 UNL     1      -9.276  15.810  26.763  1.00  0.00     0.014 C
ENDROOT
BRANCH   1  20
HETATM   20  C8  UNL     1      -9.255  16.222  24.301  1.00  0.00     0.226 C
HETATM   21  N2  UNL     1      -9.926  16.615  23.131  1.00  0.00    -0.360 N
ATOM     22  H2  UNL     1     -10.773  17.176  23.217  1.00  0.00     0.162 HD
HETATM   23  O3  UNL     1      -8.190  15.516  24.245  1.00  0.00    -0.273 OA
BRANCH  21  24
HETATM   24  C7  UNL     1      -9.459  16.252  21.797  1.00  0.00     0.123 C
BRANCH  24  25
HETATM   25  C6  UNL     1      -9.099  17.457  20.997  1.00  0.00     0.029 C
BRANCH  25  26
HETATM   26  C5  UNL     1      -7.632  17.711  20.929  1.00  0.00     0.104 C
BRANCH  26  27
HETATM   27  C4  UNL     1      -7.029  18.313  22.130  1.00  0.00     0.217 C
HETATM   28  N1  UNL     1      -6.239  17.495  23.009  1.00  0.00    -0.358 N
ATOM     29  H1  UNL     1      -6.105  16.508  22.791  1.00  0.00     0.162 HD
HETATM   30  O2  UNL     1      -7.179  19.520  22.415  1.00  0.00    -0.274 OA
BRANCH  28  31
HETATM   31  C3  UNL     1      -5.640  18.045  24.182  1.00  0.00     0.165 C
BRANCH  31  32
HETATM   32  C2  UNL     1      -4.212  18.453  23.939  1.00  0.00     0.239 C
BRANCH  32  33
HETATM   33  O1  UNL     1      -4.118  19.829  24.211  1.00  0.00    -0.378 OA
HETATM   34  C1  UNL     1      -5.030  20.143  25.226  1.00  0.00     0.202 C
ENDBRANCH  32  33
BRANCH  32  35
HETATM   35  C32 UNL     1      -3.275  17.760  24.826  1.00  0.00     0.204 C
HETATM   36  O5  UNL     1      -2.020  17.962  24.866  1.00  0.00    -0.646 OA
HETATM   37  O6  UNL     1      -3.774  16.791  25.715  1.00  0.00    -0.646 OA
ENDBRANCH  32  35
ENDBRANCH  31  32
ENDBRANCH  28  31
ENDBRANCH  26  27
ENDBRANCH  25  26
ENDBRANCH  24  25
ENDBRANCH  21  24
ENDBRANCH   1  20
BRANCH   4  38
HETATM   38  O4  UNL     1     -10.580  18.529  27.763  1.00  0.00    -0.395 OA
ATOM     39  H4  UNL     1     -10.835  19.338  27.335  1.00  0.00     0.210 HD
ENDBRANCH   4  38
BRANCH  12  40
HETATM   40  C21 UNL     1     -10.072  16.416  34.239  1.00  0.00     0.009 C
BRANCH  40  41
HETATM   41  C22 UNL     1     -10.482  15.651  35.433  1.00  0.00    -0.022 C
HETATM   42  C23 UNL     1     -11.924  15.854  35.838  1.00  0.00     0.009 C
HETATM   43  C24 UNL     1      -9.587  15.846  36.636  1.00  0.00     0.009 C
ENDBRANCH  40  41
ENDBRANCH  12  40
TORSDOF 12
ENDMDL