MODEL 1
REMARK VINA RESULT: -9.209991538      0.000      0.000
REMARK  15 active torsions:
REMARK  status: ('A' for Active; 'I' for Inactive)
REMARK    1  A    between atoms: C2_2  and  C4_4
REMARK    2  A    between atoms: C4_4  and  N1_5
REMARK    3  A    between atoms: C4_4  and  C16_23
REMARK       I    between atoms: N1_5  and  C5_7
REMARK    4  A    between atoms: C5_7  and  C6_9
REMARK    5  A    between atoms: C6_9  and  N2_10
REMARK    6  A    between atoms: C6_9  and  C12_19
REMARK       I    between atoms: N2_10  and  C7_12
REMARK    7  A    between atoms: C7_12  and  O3_14
REMARK    8  A    between atoms: O3_14  and  C8_15
REMARK       I    between atoms: C16_23  and  N3_25
REMARK    9  A    between atoms: N3_25  and  C17_27
REMARK   10  A    between atoms: C17_27  and  C18_28
REMARK   11  A    between atoms: C17_27  and  C23_37
REMARK   12  A    between atoms: C18_28  and  O5_29
REMARK   13  A    between atoms: C18_28  and  N4_31
REMARK   14  A    between atoms: N4_31  and  C19_33
REMARK   15  A    between atoms: C19_33  and  C20_34
ROOT
HETATM    1  C16 UNL     1     -10.445  16.033  27.821  1.00  0.00     0.245 C
HETATM    2  O4  UNL     1      -9.308  16.116  28.324  1.00  0.00    -0.271 OA
HETATM    3  N3  UNL     1     -10.743  16.734  26.653  1.00  0.00    -0.325 N
ATOM      4  H3  UNL     1     -11.691  16.587  26.303  1.00  0.00     0.169 HD
ENDROOT
BRANCH   1   5
HETATM    5  C4  UNL     1     -11.408  15.164  28.539  1.00  0.00     0.180 C
BRANCH   5   6
HETATM    6  C2  UNL     1     -11.672  13.849  27.924  1.00  0.00     0.009 C
HETATM    7  C1  UNL     1     -12.162  12.758  28.807  1.00  0.00     0.012 C
HETATM    8  C3  UNL     1     -12.617  14.014  26.718  1.00  0.00     0.012 C
ENDBRANCH   5   6
BRANCH   5   9
HETATM    9  N1  UNL     1     -11.089  15.141  29.951  1.00  0.00    -0.346 N
HETATM   10  C5  UNL     1     -11.302  16.126  30.901  1.00  0.00     0.242 C
HETATM   11  O1  UNL     1     -11.865  17.191  30.433  1.00  0.00    -0.271 OA
ATOM     12  H1  UNL     1     -10.650  14.285  30.292  1.00  0.00     0.163 HD
BRANCH  10  13
HETATM   13  C6  UNL     1     -11.000  16.156  32.319  1.00  0.00     0.186 C
BRANCH  13  14
HETATM   14  N2  UNL     1     -11.555  15.042  33.065  1.00  0.00    -0.323 N
HETATM   15  C7  UNL     1     -12.799  15.008  33.700  1.00  0.00     0.362 C
HETATM   16  O2  UNL     1     -13.595  15.999  33.671  1.00  0.00    -0.238 OA
ATOM     17  H2  UNL     1     -10.981  14.201  33.132  1.00  0.00     0.165 HD
BRANCH  15  18
HETATM   18  O3  UNL     1     -13.234  13.899  34.396  1.00  0.00    -0.294 OA
BRANCH  18  19
HETATM   19  C8  UNL     1     -12.867  13.616  35.733  1.00  0.00     0.061 C
HETATM   20  C9  UNL     1     -13.993  12.934  36.482  1.00  0.00     0.046 C
HETATM   21  C10 UNL     1     -11.714  12.611  35.670  1.00  0.00     0.046 C
HETATM   22  C11 UNL     1     -12.388  14.822  36.494  1.00  0.00     0.046 C
ENDBRANCH  18  19
ENDBRANCH  15  18
ENDBRANCH  13  14
BRANCH  13  23
HETATM   23  C12 UNL     1      -9.590  16.354  32.753  1.00  0.00    -0.022 C
HETATM   24  C13 UNL     1      -8.801  17.371  31.974  1.00  0.00     0.017 C
HETATM   25  C14 UNL     1      -8.794  15.062  32.735  1.00  0.00     0.017 C
HETATM   26  C15 UNL     1      -9.561  16.835  34.209  1.00  0.00     0.017 C
ENDBRANCH  13  23
ENDBRANCH  10  13
ENDBRANCH   5   9
ENDBRANCH   1   5
BRANCH   3  27
HETATM   27  C17 UNL     1      -9.943  17.630  25.854  1.00  0.00     0.067 C
BRANCH  27  28
HETATM   28  C18 UNL     1      -9.432  18.816  26.536  1.00  0.00     0.159 C
BRANCH  28  29
HETATM   29  O5  UNL     1     -10.290  19.570  27.170  1.00  0.00    -0.345 OA
ATOM     30  H5  UNL     1     -10.514  19.332  28.061  1.00  0.00     0.219 HD
ENDBRANCH  28  29
BRANCH  28  31
HETATM   31  N4  UNL     1      -8.112  19.296  26.632  1.00  0.00    -0.369 N
ATOM     32  H4  UNL     1      -7.750  19.917  25.908  1.00  0.00     0.161 HD
BRANCH  31  33
HETATM   33  C19 UNL     1      -7.253  18.916  27.757  1.00  0.00     0.126 C
BRANCH  33  34
HETATM   34  C20 UNL     1      -5.897  18.462  27.226  1.00  0.00     0.003 A
HETATM   35  C21 UNL     1      -5.397  17.147  27.772  1.00  0.00     0.007 A
HETATM   36  C22 UNL     1      -5.923  17.223  26.384  1.00  0.00     0.007 A
ENDBRANCH  33  34
ENDBRANCH  31  33
ENDBRANCH  28  31
ENDBRANCH  27  28
BRANCH  27  37
HETATM   37  C23 UNL     1      -9.187  16.933  24.823  1.00  0.00     0.045 C
HETATM   38  C24 UNL     1      -8.856  15.498  24.977  1.00  0.00     0.011 C
HETATM   39  C25 UNL     1      -8.006  15.098  23.760  1.00  0.00     0.006 C
HETATM   40  C26 UNL     1      -8.589  15.659  22.506  1.00  0.00    -0.006 C
HETATM   41  C27 UNL     1     -10.101  15.790  22.762  1.00  0.00     0.011 C
HETATM   42  C29 UNL     1      -8.610  17.166  22.425  1.00  0.00    -0.040 C
HETATM   43  C28 UNL     1      -9.753  17.124  23.417  1.00  0.00     0.004 C
HETATM   44  C30 UNL     1      -9.148  17.544  21.033  1.00  0.00     0.015 C
HETATM   45  C31 UNL     1      -7.389  17.908  22.782  1.00  0.00     0.015 C
ENDBRANCH  27  37
ENDBRANCH   3  27
TORSDOF 15
ENDMDL