MODEL 5
REMARK VINA RESULT: -9.736281420      1.861      4.698
REMARK  12 active torsions:
REMARK  status: ('A' for Active; 'I' for Inactive)
REMARK    1  A    between atoms: C4_4  and  C5_5
REMARK    2  A    between atoms: C5_5  and  C6_7
REMARK    3  A    between atoms: C6_7  and  N1_8
REMARK    4  A    between atoms: C6_7  and  C7_12
REMARK       I    between atoms: C7_12  and  N2_14
REMARK    5  A    between atoms: N2_14  and  C8_16
REMARK    6  A    between atoms: C8_16  and  C9_17
REMARK    7  A    between atoms: C8_16  and  C16_24
REMARK    8  A    between atoms: C9_17  and  C10_18
REMARK       I    between atoms: C16_24  and  N3_26
REMARK    9  A    between atoms: N3_26  and  C17_28
REMARK   10  A    between atoms: C17_28  and  C18_29
REMARK   11  A    between atoms: C17_28  and  C23_37
REMARK       I    between atoms: C18_29  and  N4_31
REMARK   12  A    between atoms: N4_31  and  C19_33
ROOT
HETATM    1  C8  UNL     1      -9.912  15.333  27.027  1.00  0.00     0.080 C
ENDROOT
BRANCH   1   2
HETATM    2  N2  UNL     1      -9.581  16.165  28.102  1.00  0.00    -0.324 N
HETATM    3  C7  UNL     1      -8.640  16.010  29.142  1.00  0.00     0.260 C
HETATM    4  O2  UNL     1      -7.909  14.992  29.199  1.00  0.00    -0.270 OA
ATOM      5  H2  UNL     1     -10.111  17.036  28.140  1.00  0.00     0.169 HD
BRANCH   3   6
HETATM    6  C6  UNL     1      -8.463  17.055  30.237  1.00  0.00     0.348 C
BRANCH   6   7
HETATM    7  C5  UNL     1      -9.781  17.274  30.857  1.00  0.00     0.199 C
HETATM    8  O1  UNL     1     -10.619  18.041  30.264  1.00  0.00    -0.289 OA
BRANCH   7   9
HETATM    9  C4  UNL     1     -10.234  16.692  32.103  1.00  0.00     0.013 A
HETATM   10  C3  UNL     1      -9.702  16.893  33.337  1.00  0.00     0.022 A
HETATM   11  C2  UNL     1     -10.137  16.278  34.513  1.00  0.00    -0.053 A
HETATM   12  C1  UNL     1      -9.461  16.581  35.824  1.00  0.00     0.049 C
HETATM   13  C28 UNL     1     -11.189  15.393  34.438  1.00  0.00    -0.038 A
HETATM   14  C27 UNL     1     -11.762  15.158  33.212  1.00  0.00    -0.050 A
HETATM   15  C29 UNL     1     -11.905  14.569  35.437  1.00  0.00    -0.019 C
HETATM   16  C26 UNL     1     -11.308  15.783  32.066  1.00  0.00     0.023 A
HETATM   17  C33 UNL     1     -12.878  14.180  33.348  1.00  0.00     0.040 C
HETATM   18  C32 UNL     1     -13.283  14.394  34.790  1.00  0.00     0.018 C
HETATM   19  C30 UNL     1     -12.110  15.247  36.752  1.00  0.00     0.020 C
HETATM   20  C31 UNL     1     -11.238  13.216  35.559  1.00  0.00     0.020 C
ENDBRANCH   7   9
ENDBRANCH   6   7
BRANCH   6  21
HETATM   21  N1  UNL     1      -7.884  18.236  29.693  1.00  0.00    -0.059 N
ATOM     22  H13 UNL     1      -8.608  18.868  29.352  1.00  0.00     0.275 HD
ATOM     23  H12 UNL     1      -7.485  18.815  30.432  1.00  0.00     0.275 HD
ATOM     24  H11 UNL     1      -7.192  18.055  28.965  1.00  0.00     0.275 HD
ENDBRANCH   6  21
ENDBRANCH   3   6
ENDBRANCH   1   2
BRANCH   1  25
HETATM   25  C9  UNL     1     -11.315  15.161  26.680  1.00  0.00     0.067 C
BRANCH  25  26
HETATM   26  C10 UNL     1     -12.266  14.516  27.631  1.00  0.00    -0.009 C
HETATM   27  C11 UNL     1     -11.809  13.316  28.372  1.00  0.00     0.005 C
HETATM   28  C12 UNL     1     -12.493  13.237  29.746  1.00  0.00     0.000 C
HETATM   29  C13 UNL     1     -13.913  13.770  29.601  1.00  0.00     0.000 C
HETATM   30  C14 UNL     1     -13.886  15.270  29.329  1.00  0.00     0.000 C
HETATM   31  C15 UNL     1     -12.581  15.610  28.680  1.00  0.00     0.005 C
ENDBRANCH  25  26
ENDBRANCH   1  25
BRANCH   1  32
HETATM   32  C16 UNL     1      -9.093  15.518  25.769  1.00  0.00     0.264 C
HETATM   33  O3  UNL     1      -8.061  14.768  25.683  1.00  0.00    -0.266 OA
HETATM   34  N3  UNL     1      -9.398  16.431  24.747  1.00  0.00    -0.342 N
ATOM     35  H3  UNL     1     -10.221  17.027  24.826  1.00  0.00     0.163 HD
BRANCH  34  36
HETATM   36  C17 UNL     1      -8.547  16.529  23.581  1.00  0.00     0.180 C
BRANCH  36  37
HETATM   37  C18 UNL     1      -7.423  17.467  23.810  1.00  0.00     0.241 C
HETATM   38  O4  UNL     1      -7.535  18.690  23.450  1.00  0.00    -0.271 OA
HETATM   39  N4  UNL     1      -6.202  17.103  24.415  1.00  0.00    -0.351 N
ATOM     40  H4  UNL     1      -6.089  16.131  24.701  1.00  0.00     0.163 HD
BRANCH  39  41
HETATM   41  C19 UNL     1      -5.110  17.994  24.659  1.00  0.00     0.022 C
HETATM   42  C20 UNL     1      -5.504  19.178  25.518  1.00  0.00     0.037 C
HETATM   43  C21 UNL     1      -4.520  18.569  23.384  1.00  0.00     0.037 C
HETATM   44  C22 UNL     1      -3.988  17.255  25.384  1.00  0.00     0.037 C
ENDBRANCH  39  41
ENDBRANCH  36  37
BRANCH  36  45
HETATM   45  C23 UNL     1      -9.310  16.860  22.326  1.00  0.00     0.009 C
HETATM   46  C24 UNL     1      -8.537  16.435  21.084  1.00  0.00     0.012 C
HETATM   47  C25 UNL     1     -10.707  16.331  22.296  1.00  0.00     0.012 C
ENDBRANCH  36  45
ENDBRANCH  34  36
ENDBRANCH   1  32
TORSDOF 12
ENDMDL