MODEL 5
REMARK VINA RESULT: -8.306459118      0.950      2.462
REMARK  14 active torsions:
REMARK  status: ('A' for Active; 'I' for Inactive)
REMARK    1  A    between atoms: O1_2  and  C2_3
REMARK    2  A    between atoms: C4_5  and  C5_6
REMARK    3  A    between atoms: C10_11  and  C11_12
REMARK    4  A    between atoms: C14_15  and  C15_16
REMARK       I    between atoms: C15_16  and  N1_18
REMARK    5  A    between atoms: N1_18  and  C16_20
REMARK    6  A    between atoms: C16_20  and  C17_21
REMARK    7  A    between atoms: C16_20  and  C21_29
REMARK    8  A    between atoms: C17_21  and  C18_22
REMARK    9  A    between atoms: C18_22  and  C19_23
REMARK   10  A    between atoms: C19_23  and  N2_24
REMARK       I    between atoms: N2_24  and  C20_26
REMARK   11  A    between atoms: C21_29  and  O4_30
REMARK   12  A    between atoms: C21_29  and  N4_32
REMARK   13  A    between atoms: C24_35  and  C25_36
REMARK       I    between atoms: C25_36  and  N5_38
REMARK   14  A    between atoms: N5_38  and  C26_40
ROOT
HETATM    1  C16 UNL     1     -10.557  16.223  27.617  1.00  0.00     0.063 C
ENDROOT
BRANCH   1   2
HETATM    2  N1  UNL     1      -9.505  16.553  26.668  1.00  0.00    -0.323 N
HETATM    3  C15 UNL     1      -9.336  17.704  25.911  1.00  0.00     0.259 C
HETATM    4  O2  UNL     1     -10.142  18.650  25.964  1.00  0.00    -0.267 OA
ATOM      5  H1  UNL     1      -8.790  15.837  26.542  1.00  0.00     0.169 HD
BRANCH   3   6
HETATM    6  C14 UNL     1      -8.168  17.885  25.014  1.00  0.00     0.076 A
HETATM    7  C2  UNL     1      -7.017  18.405  25.649  1.00  0.00     0.085 A
HETATM    8  C3  UNL     1      -5.856  18.506  24.922  1.00  0.00     0.045 A
HETATM    9  C4  UNL     1      -5.777  18.121  23.617  1.00  0.00    -0.047 A
HETATM   10  C9  UNL     1      -6.913  17.628  23.036  1.00  0.00     0.020 A
HETATM   11  C10 UNL     1      -8.156  17.504  23.741  1.00  0.00    -0.015 A
BRANCH   7  12
HETATM   12  O1  UNL     1      -7.115  18.783  26.967  1.00  0.00    -0.355 OA
HETATM   13  C1  UNL     1      -6.325  18.170  27.980  1.00  0.00     0.210 C
ENDBRANCH   7  12
BRANCH   9  14
HETATM   14  C5  UNL     1      -4.504  18.264  22.855  1.00  0.00    -0.024 C
HETATM   15  C6  UNL     1      -3.339  17.645  23.577  1.00  0.00     0.019 C
HETATM   16  C7  UNL     1      -4.219  19.730  22.544  1.00  0.00     0.019 C
HETATM   17  C8  UNL     1      -4.623  17.561  21.511  1.00  0.00     0.019 C
ENDBRANCH   9  14
BRANCH  11  18
HETATM   18  C11 UNL     1      -9.257  17.175  22.840  1.00  0.00    -0.076 C
HETATM   19  C12 UNL     1      -8.961  17.524  21.380  1.00  0.00     0.044 C
HETATM   20  C13 UNL     1     -10.267  16.151  23.041  1.00  0.00     0.044 C
ENDBRANCH  11  18
ENDBRANCH   3   6
ENDBRANCH   1   2
BRANCH   1  21
HETATM   21  C17 UNL     1     -11.893  15.890  27.181  1.00  0.00     0.063 C
BRANCH  21  22
HETATM   22  C18 UNL     1     -12.960  16.382  28.159  1.00  0.00     0.026 C
BRANCH  22  23
HETATM   23  C19 UNL     1     -13.692  15.226  28.821  1.00  0.00     0.124 C
BRANCH  23  24
HETATM   24  N2  UNL     1     -13.505  15.187  30.252  1.00  0.00    -0.345 N
HETATM   25  C20 UNL     1     -12.746  14.216  30.944  1.00  0.00     0.328 C
HETATM   26  N3  UNL     1     -12.586  14.253  32.381  1.00  0.00    -0.040 NA
HETATM   27  O3  UNL     1     -12.179  13.280  30.319  1.00  0.00    -0.251 OA
ATOM     28  H2  UNL     1     -13.955  15.916  30.806  1.00  0.00     0.163 HD
ENDBRANCH  23  24
ENDBRANCH  22  23
ENDBRANCH  21  22
ENDBRANCH   1  21
BRANCH   1  29
HETATM   29  C21 UNL     1      -9.951  15.411  28.689  1.00  0.00     0.161 C
BRANCH  29  30
HETATM   30  O4  UNL     1     -10.114  14.101  28.516  1.00  0.00    -0.345 OA
ATOM     31  H4  UNL     1     -10.002  13.597  29.314  1.00  0.00     0.219 HD
ENDBRANCH  29  30
BRANCH  29  32
HETATM   32  N4  UNL     1      -9.268  15.700  29.851  1.00  0.00    -0.360 N
HETATM   33  C22 UNL     1      -9.015  17.007  30.474  1.00  0.00     0.126 C
HETATM   34  C23 UNL     1      -9.917  16.946  31.723  1.00  0.00     0.034 C
HETATM   35  C24 UNL     1      -9.159  16.023  32.686  1.00  0.00     0.081 C
HETATM   36  C30 UNL     1      -9.032  14.641  32.091  1.00  0.00     0.034 C
HETATM   37  C31 UNL     1      -8.674  14.604  30.660  1.00  0.00     0.126 C
BRANCH  35  38
HETATM   38  C25 UNL     1      -9.923  15.988  33.966  1.00  0.00     0.222 C
HETATM   39  O5  UNL     1     -10.166  17.044  34.558  1.00  0.00    -0.273 OA
HETATM   40  N5  UNL     1     -10.361  14.757  34.500  1.00  0.00    -0.353 N
ATOM     41  H5  UNL     1     -10.162  13.891  33.999  1.00  0.00     0.163 HD
BRANCH  40  42
HETATM   42  C26 UNL     1     -11.102  14.708  35.768  1.00  0.00     0.022 C
HETATM   43  C27 UNL     1     -10.233  15.270  36.907  1.00  0.00     0.037 C
HETATM   44  C28 UNL     1     -12.367  15.510  35.664  1.00  0.00     0.037 C
HETATM   45  C29 UNL     1     -11.447  13.273  36.057  1.00  0.00     0.037 C
ENDBRANCH  40  42
ENDBRANCH  35  38
ENDBRANCH  29  32
ENDBRANCH   1  29
TORSDOF 14
ENDMDL