MODEL 4
REMARK VINA RESULT: -7.999491149      2.563     10.166
REMARK  13 active torsions:
REMARK  status: ('A' for Active; 'I' for Inactive)
REMARK    1  A    between atoms: C9_10  and  N2_11
REMARK       I    between atoms: N2_11  and  C10_13
REMARK       I    between atoms: C10_13  and  N3_15
REMARK    2  A    between atoms: N3_15  and  C11_17
REMARK    3  A    between atoms: C11_17  and  C12_18
REMARK    4  A    between atoms: C11_17  and  C29_41
REMARK       I    between atoms: C12_18  and  N4_20
REMARK    5  A    between atoms: N4_20  and  C13_22
REMARK    6  A    between atoms: C13_22  and  C14_23
REMARK    7  A    between atoms: C13_22  and  C21_30
REMARK    8  A    between atoms: C14_23  and  C15_24
REMARK    9  A    between atoms: C21_30  and  O3_31
REMARK   10  A    between atoms: C21_30  and  C22_33
REMARK   11  A    between atoms: C22_33  and  N5_34
REMARK   12  A    between atoms: N5_34  and  C24_36
REMARK   13  A    between atoms: C24_36  and  C25_37
ROOT
HETATM    1  C12 UNL     1      -8.590  16.628  27.769  1.00  0.00     0.241 C
HETATM    2  O2  UNL     1      -8.152  15.416  27.871  1.00  0.00    -0.271 OA
HETATM    3  N4  UNL     1      -9.772  16.919  28.448  1.00  0.00    -0.352 N
ATOM      4  H4  UNL     1     -10.156  17.862  28.404  1.00  0.00     0.163 HD
ENDROOT
BRANCH   1   5
HETATM    5  C11 UNL     1      -7.737  17.490  26.937  1.00  0.00     0.185 C
BRANCH   5   6
HETATM    6  N3  UNL     1      -7.515  16.819  25.659  1.00  0.00    -0.329 N
HETATM    7  C10 UNL     1      -7.877  17.398  24.428  1.00  0.00     0.318 C
HETATM    8  N2  UNL     1      -7.672  16.762  23.177  1.00  0.00    -0.307 N
HETATM    9  O1  UNL     1      -8.411  18.534  24.428  1.00  0.00    -0.247 OA
ATOM     10  H2  UNL     1      -7.225  15.845  23.195  1.00  0.00     0.166 HD
ATOM     11  H3  UNL     1      -7.082  15.895  25.658  1.00  0.00     0.165 HD
BRANCH   8  12
HETATM   12  C9  UNL     1      -8.030  17.278  21.897  1.00  0.00     0.241 C
HETATM   13  C2  UNL     1      -9.446  17.046  21.490  1.00  0.00     0.070 C
HETATM   14  C1  UNL     1     -10.096  15.884  22.253  1.00  0.00     0.016 C
HETATM   15  C3  UNL     1      -8.902  16.579  20.156  1.00  0.00     0.285 C
HETATM   16  N1  UNL     1      -7.616  16.464  20.767  1.00  0.00     0.127 N
HETATM   17  C4  UNL     1      -6.479  17.027  20.168  1.00  0.00     0.156 C
HETATM   18  C5  UNL     1      -6.613  17.368  18.709  1.00  0.00     0.049 C
HETATM   19  C6  UNL     1      -5.283  16.051  20.241  1.00  0.00     0.049 C
HETATM   20  C7  UNL     1      -6.170  18.286  20.925  1.00  0.00     0.045 C
HETATM   21  C8  UNL     1      -7.473  18.645  21.584  1.00  0.00     0.068 C
ENDBRANCH   8  12
ENDBRANCH   5   6
BRANCH   5  22
HETATM   22  C29 UNL     1      -6.463  17.955  27.554  1.00  0.00    -0.022 C
HETATM   23  C30 UNL     1      -5.282  17.100  27.208  1.00  0.00     0.017 C
HETATM   24  C31 UNL     1      -6.524  18.180  29.034  1.00  0.00     0.017 C
HETATM   25  C32 UNL     1      -6.100  19.353  26.959  1.00  0.00     0.017 C
ENDBRANCH   5  22
ENDBRANCH   1   5
BRANCH   3  26
HETATM   26  C13 UNL     1     -10.488  15.866  29.243  1.00  0.00     0.115 C
BRANCH  26  27
HETATM   27  C14 UNL     1     -11.909  15.988  28.678  1.00  0.00     0.032 C
BRANCH  27  28
HETATM   28  C15 UNL     1     -12.704  14.750  28.622  1.00  0.00    -0.013 C
HETATM   29  C16 UNL     1     -13.527  14.477  29.850  1.00  0.00     0.005 C
HETATM   30  C17 UNL     1     -13.331  13.084  30.398  1.00  0.00     0.000 C
HETATM   31  C18 UNL     1     -13.366  12.035  29.329  1.00  0.00     0.000 C
HETATM   32  C19 UNL     1     -12.373  12.318  28.221  1.00  0.00     0.000 C
HETATM   33  C20 UNL     1     -11.671  13.594  28.553  1.00  0.00     0.005 C
ENDBRANCH  27  28
ENDBRANCH  26  27
BRANCH  26  34
HETATM   34  C21 UNL     1     -10.528  16.227  30.669  1.00  0.00     0.158 C
BRANCH  34  35
HETATM   35  O3  UNL     1     -11.637  16.993  30.960  1.00  0.00    -0.392 OA
ATOM     36  H3  UNL     1     -12.034  16.726  31.781  1.00  0.00     0.210 HD
ENDBRANCH  34  35
BRANCH  34  37
HETATM   37  C22 UNL     1     -10.350  15.199  31.711  1.00  0.00     0.155 C
BRANCH  37  38
HETATM   38  N5  UNL     1      -9.908  15.593  33.004  1.00  0.00    -0.394 N
HETATM   39  C23 UNL     1      -9.041  16.681  33.112  1.00  0.00     0.148 C
BRANCH  38  40
HETATM   40  C24 UNL     1      -9.979  14.604  33.995  1.00  0.00     0.066 C
BRANCH  40  41
HETATM   41  C25 UNL     1     -10.913  14.810  35.160  1.00  0.00    -0.019 C
HETATM   42  C26 UNL     1     -12.142  15.579  34.798  1.00  0.00     0.020 C
HETATM   43  C27 UNL     1     -10.276  15.397  36.375  1.00  0.00     0.020 C
HETATM   44  C28 UNL     1     -11.429  13.410  35.611  1.00  0.00     0.020 C
ENDBRANCH  40  41
ENDBRANCH  38  40
ENDBRANCH  37  38
ENDBRANCH  34  37
ENDBRANCH  26  34
ENDBRANCH   3  26
TORSDOF 13
ENDMDL