MODEL 2
REMARK VINA RESULT: -8.062051230      2.942      6.955
REMARK  11 active torsions:
REMARK  status: ('A' for Active; 'I' for Inactive)
REMARK    1  A    between atoms: N1_2  and  C3_4
REMARK    2  A    between atoms: C3_4  and  C4_5
REMARK    3  A    between atoms: C3_4  and  C5_7
REMARK    4  A    between atoms: C5_7  and  C6_8
REMARK    5  A    between atoms: C6_8  and  C7_9
REMARK    6  A    between atoms: C9_14  and  C10_15
REMARK    7  A    between atoms: C10_15  and  C11_16
REMARK       I    between atoms: N3_23  and  C18_24
REMARK    8  A    between atoms: C18_24  and  C19_26
REMARK    9  A    between atoms: C19_26  and  N4_27
REMARK   10  A    between atoms: C19_26  and  C25_37
REMARK       I    between atoms: N4_27  and  C20_29
REMARK       I    between atoms: C20_29  and  N5_31
REMARK   11  A    between atoms: N5_31  and  C21_33
ROOT
HETATM    1  C7  UNL     1     -12.121  15.220  34.568  1.00  0.00     0.179 C
HETATM    2  C8  UNL     1     -10.983  16.143  34.783  1.00  0.00     0.241 C
HETATM    3  O1  UNL     1     -11.069  17.218  35.468  1.00  0.00    -0.271 OA
HETATM    4  N2  UNL     1      -9.746  15.772  34.174  1.00  0.00    -0.353 N
ATOM      5  H2  UNL     1      -8.862  16.046  34.604  1.00  0.00     0.163 HD
HETATM    6  C9  UNL     1      -9.746  15.007  32.945  1.00  0.00     0.103 C
HETATM    7  C17 UNL     1     -11.083  15.023  32.267  1.00  0.00     0.152 C
HETATM    8  N3  UNL     1     -12.180  14.794  33.164  1.00  0.00    -0.335 N
HETATM    9  C18 UNL     1     -13.348  14.169  32.686  1.00  0.00     0.243 C
HETATM   10  O2  UNL     1     -14.354  14.023  33.471  1.00  0.00    -0.271 OA
ENDROOT
BRANCH   1  11
HETATM   11  C6  UNL     1     -12.037  14.028  35.492  1.00  0.00     0.037 C
BRANCH  11  12
HETATM   12  C5  UNL     1     -12.956  14.123  36.656  1.00  0.00     0.039 C
BRANCH  12  13
HETATM   13  C3  UNL     1     -13.347  12.830  37.286  1.00  0.00     0.232 C
BRANCH  13  14
HETATM   14  N1  UNL     1     -12.114  12.167  37.744  1.00  0.00     0.085 N
HETATM   15  C1  UNL     1     -12.022  12.178  39.190  1.00  0.00     0.309 C
HETATM   16  C2  UNL     1     -12.090  10.779  37.327  1.00  0.00     0.309 C
ENDBRANCH  13  14
BRANCH  13  17
HETATM   17  C4  UNL     1     -13.956  11.860  36.288  1.00  0.00     0.121 C
HETATM   18  S1  UNL     1     -15.763  11.858  36.380  1.00  0.00    -0.095 SA
ENDBRANCH  13  17
ENDBRANCH  12  13
ENDBRANCH  11  12
ENDBRANCH   1  11
BRANCH   9  19
HETATM   19  C19 UNL     1     -13.575  13.636  31.324  1.00  0.00     0.182 C
BRANCH  19  20
HETATM   20  N4  UNL     1     -13.623  12.180  31.315  1.00  0.00    -0.329 N
HETATM   21  C20 UNL     1     -14.800  11.432  31.472  1.00  0.00     0.317 C
HETATM   22  O3  UNL     1     -15.886  12.015  31.636  1.00  0.00    -0.247 OA
HETATM   23  N5  UNL     1     -14.802  10.020  31.450  1.00  0.00    -0.335 N
ATOM     24  H5  UNL     1     -13.913   9.541  31.310  1.00  0.00     0.165 HD
ATOM     25  H4  UNL     1     -12.747  11.673  31.187  1.00  0.00     0.165 HD
BRANCH  23  26
HETATM   26  C21 UNL     1     -15.991   9.215  31.614  1.00  0.00     0.023 C
HETATM   27  C22 UNL     1     -15.583   7.760  31.530  1.00  0.00     0.037 C
HETATM   28  C23 UNL     1     -16.607   9.409  32.991  1.00  0.00     0.037 C
HETATM   29  C24 UNL     1     -17.026   9.466  30.546  1.00  0.00     0.037 C
ENDBRANCH  23  26
ENDBRANCH  19  20
BRANCH  19  30
HETATM   30  C25 UNL     1     -12.551  14.134  30.318  1.00  0.00     0.018 C
HETATM   31  C26 UNL     1     -12.190  13.083  29.303  1.00  0.00     0.007 C
HETATM   32  C27 UNL     1     -11.519  13.787  28.112  1.00  0.00     0.000 C
HETATM   33  C28 UNL     1     -12.595  14.542  27.389  1.00  0.00     0.000 C
HETATM   34  C29 UNL     1     -13.513  15.276  28.302  1.00  0.00     0.000 C
HETATM   35  C30 UNL     1     -13.013  15.413  29.712  1.00  0.00     0.007 C
ENDBRANCH  19  30
ENDBRANCH   9  19
BRANCH   6  36
HETATM   36  C10 UNL     1      -8.655  15.558  32.057  1.00  0.00     0.031 C
BRANCH  36  37
HETATM   37  C11 UNL     1      -9.253  16.145  30.777  1.00  0.00    -0.013 C
HETATM   38  C12 UNL     1      -8.591  15.543  29.555  1.00  0.00     0.005 C
HETATM   39  C13 UNL     1      -8.940  16.407  28.369  1.00  0.00     0.000 C
HETATM   40  C14 UNL     1      -8.096  17.656  28.456  1.00  0.00     0.000 C
HETATM   41  C15 UNL     1      -7.752  17.939  29.889  1.00  0.00     0.000 C
HETATM   42  C16 UNL     1      -8.950  17.611  30.780  1.00  0.00     0.005 C
ENDBRANCH  36  37
ENDBRANCH   6  36
TORSDOF 11
ENDMDL