MODEL 4
REMARK VINA RESULT: -7.935345020      5.627     11.803
REMARK  12 active torsions:
REMARK  status: ('A' for Active; 'I' for Inactive)
REMARK    1  A    between atoms: C2_2  and  C4_4
REMARK    2  A    between atoms: C4_4  and  C5_5
REMARK    3  A    between atoms: C5_5  and  C6_7
REMARK    4  A    between atoms: C6_7  and  N1_8
REMARK    5  A    between atoms: C6_7  and  C30_45
REMARK       I    between atoms: N1_8  and  C7_10
REMARK    6  A    between atoms: C7_10  and  C8_12
REMARK       I    between atoms: N3_22  and  C16_23
REMARK    7  A    between atoms: C16_23  and  C17_25
REMARK    8  A    between atoms: C17_25  and  N4_26
REMARK    9  A    between atoms: C17_25  and  C26_41
REMARK       I    between atoms: N4_26  and  C18_28
REMARK   10  A    between atoms: C18_28  and  C19_30
REMARK   11  A    between atoms: C19_30  and  N5_31
REMARK   12  A    between atoms: C19_30  and  C20_35
ROOT
HETATM    1  C8  UNL     1     -14.276  10.276  31.589  1.00  0.00     0.180 C
HETATM    2  C9  UNL     1     -13.097   9.439  31.201  1.00  0.00     0.040 C
HETATM    3  C10 UNL     1     -13.269   8.052  31.698  1.00  0.00     0.043 C
HETATM    4  C11 UNL     1     -14.632   7.580  31.932  1.00  0.00    -0.033 A
HETATM    5  C12 UNL     1     -15.086   6.376  31.350  1.00  0.00     0.026 A
HETATM    6  C13 UNL     1     -16.370   6.224  31.773  1.00  0.00     0.089 A
HETATM    7  N2  UNL     1     -16.692   7.253  32.559  1.00  0.00    -0.367 N
ATOM      8  H2  UNL     1     -17.600   7.377  33.006  1.00  0.00     0.165 HD
HETATM    9  C14 UNL     1     -15.664   8.101  32.683  1.00  0.00     0.033 A
HETATM   10  C15 UNL     1     -15.700   9.375  33.493  1.00  0.00     0.184 C
HETATM   11  N3  UNL     1     -14.578  10.189  33.002  1.00  0.00    -0.331 N
HETATM   12  C16 UNL     1     -13.779  10.876  33.905  1.00  0.00     0.244 C
HETATM   13  O3  UNL     1     -12.773  11.547  33.473  1.00  0.00    -0.271 OA
ENDROOT
BRANCH   1  14
HETATM   14  C7  UNL     1     -14.297  11.635  31.025  1.00  0.00     0.241 C
HETATM   15  N1  UNL     1     -13.116  12.341  30.670  1.00  0.00    -0.348 N
ATOM     16  H1  UNL     1     -12.203  11.906  30.808  1.00  0.00     0.163 HD
HETATM   17  O2  UNL     1     -15.386  12.230  30.831  1.00  0.00    -0.271 OA
BRANCH  15  18
HETATM   18  C6  UNL     1     -13.203  13.703  30.101  1.00  0.00     0.157 C
BRANCH  18  19
HETATM   19  C5  UNL     1     -12.573  13.696  28.769  1.00  0.00     0.150 C
HETATM   20  O1  UNL     1     -12.036  12.616  28.448  1.00  0.00    -0.296 OA
BRANCH  19  21
HETATM   21  C4  UNL     1     -12.546  14.823  27.845  1.00  0.00     0.084 C
BRANCH  21  22
HETATM   22  C2  UNL     1     -11.211  14.958  27.126  1.00  0.00    -0.016 C
HETATM   23  C1  UNL     1     -11.297  15.865  25.943  1.00  0.00     0.010 C
HETATM   24  C3  UNL     1     -10.244  15.587  28.131  1.00  0.00     0.010 C
ENDBRANCH  21  22
ENDBRANCH  19  21
ENDBRANCH  18  19
BRANCH  18  25
HETATM   25  C30 UNL     1     -12.672  14.704  31.066  1.00  0.00     0.007 C
HETATM   26  C31 UNL     1     -11.297  14.363  31.513  1.00  0.00     0.012 C
HETATM   27  C32 UNL     1     -13.542  14.843  32.299  1.00  0.00     0.012 C
ENDBRANCH  18  25
ENDBRANCH  15  18
ENDBRANCH   1  14
BRANCH  12  28
HETATM   28  C17 UNL     1     -13.950  10.942  35.387  1.00  0.00     0.184 C
BRANCH  28  29
HETATM   29  N4  UNL     1     -13.135  12.112  35.810  1.00  0.00    -0.345 N
HETATM   30  C18 UNL     1     -13.673  13.095  36.680  1.00  0.00     0.249 C
HETATM   31  O4  UNL     1     -14.879  12.907  37.066  1.00  0.00    -0.271 OA
ATOM     32  H4  UNL     1     -12.178  12.209  35.470  1.00  0.00     0.163 HD
BRANCH  30  33
HETATM   33  C19 UNL     1     -12.999  14.291  37.170  1.00  0.00     0.278 C
BRANCH  33  34
HETATM   34  N5  UNL     1     -12.450  14.059  38.525  1.00  0.00    -0.066 N
ATOM     35  H53 UNL     1     -12.957  14.587  39.235  1.00  0.00     0.275 HD
ATOM     36  H52 UNL     1     -12.653  13.118  38.860  1.00  0.00     0.275 HD
ATOM     37  H51 UNL     1     -11.450  14.261  38.544  1.00  0.00     0.275 HD
ENDBRANCH  33  34
BRANCH  33  38
HETATM   38  C20 UNL     1     -11.795  14.744  36.361  1.00  0.00     0.025 C
HETATM   39  C21 UNL     1     -12.146  15.823  35.388  1.00  0.00     0.007 C
HETATM   40  C22 UNL     1     -10.959  16.375  34.658  1.00  0.00     0.000 C
HETATM   41  C23 UNL     1      -9.913  16.865  35.601  1.00  0.00     0.000 C
HETATM   42  C24 UNL     1      -9.526  15.733  36.537  1.00  0.00     0.000 C
HETATM   43  C25 UNL     1     -10.709  15.251  37.288  1.00  0.00     0.007 C
ENDBRANCH  33  38
ENDBRANCH  30  33
ENDBRANCH  28  29
BRANCH  28  44
HETATM   44  C26 UNL     1     -13.378   9.762  36.109  1.00  0.00    -0.022 C
HETATM   45  C27 UNL     1     -14.503   9.103  36.905  1.00  0.00     0.017 C
HETATM   46  C28 UNL     1     -12.822   8.675  35.219  1.00  0.00     0.017 C
HETATM   47  C29 UNL     1     -12.231  10.127  37.050  1.00  0.00     0.017 C
ENDBRANCH  28  44
ENDBRANCH  12  28
TORSDOF 12
ENDMDL