MODEL 3
REMARK VINA RESULT: -8.802270647      2.246     11.391
REMARK  13 active torsions:
REMARK  status: ('A' for Active; 'I' for Inactive)
REMARK    1  A    between atoms: C2_2  and  C4_4
REMARK    2  A    between atoms: C4_4  and  C5_5
REMARK       I    between atoms: C5_5  and  N1_7
REMARK    3  A    between atoms: N1_7  and  C6_9
REMARK    4  A    between atoms: C6_9  and  C7_10
REMARK    5  A    between atoms: C6_9  and  C30_43
REMARK       I    between atoms: C7_10  and  N2_12
REMARK    6  A    between atoms: C10_15  and  C11_16
REMARK    7  A    between atoms: C11_16  and  C12_17
REMARK    8  A    between atoms: C12_17  and  C13_18
REMARK    9  A    between atoms: C12_17  and  N5_26
REMARK   10  A    between atoms: C13_18  and  C14_19
REMARK       I    between atoms: N5_26  and  C17_28
REMARK   11  A    between atoms: C17_28  and  O4_30
REMARK   12  A    between atoms: O4_30  and  C18_31
REMARK   13  A    between atoms: C30_43  and  O5_45
ROOT
HETATM    1  C12 UNL     1      -9.368  15.457  29.455  1.00  0.00     0.092 C
ENDROOT
BRANCH   1   2
HETATM    2  C11 UNL     1      -7.909  15.379  29.002  1.00  0.00     0.030 C
BRANCH   2   3
HETATM    3  C10 UNL     1      -7.307  16.736  28.839  1.00  0.00    -0.010 C
HETATM    4  C9  UNL     1      -8.351  17.824  28.707  1.00  0.00     0.024 C
HETATM    5  C8  UNL     1      -8.168  18.551  27.369  1.00  0.00     0.126 C
HETATM    6  N2  UNL     1      -8.115  17.582  26.264  1.00  0.00    -0.350 N
HETATM    7  C7  UNL     1      -8.939  17.734  25.123  1.00  0.00     0.245 C
HETATM    8  C29 UNL     1      -7.161  16.517  26.383  1.00  0.00     0.126 C
HETATM    9  O2  UNL     1      -9.680  18.792  25.131  1.00  0.00    -0.271 OA
HETATM   10  C28 UNL     1      -6.361  16.732  27.674  1.00  0.00     0.024 C
BRANCH   7  11
HETATM   11  C6  UNL     1      -8.982  16.802  23.998  1.00  0.00     0.205 C
BRANCH  11  12
HETATM   12  N1  UNL     1      -8.794  17.504  22.719  1.00  0.00    -0.345 N
HETATM   13  C5  UNL     1      -7.521  17.651  22.129  1.00  0.00     0.218 C
HETATM   14  O1  UNL     1      -6.527  17.170  22.719  1.00  0.00    -0.274 OA
ATOM     15  H1  UNL     1      -9.608  17.896  22.245  1.00  0.00     0.163 HD
BRANCH  13  16
HETATM   16  C4  UNL     1      -7.338  18.346  20.855  1.00  0.00     0.106 C
BRANCH  16  17
HETATM   17  C2  UNL     1      -7.137  17.399  19.692  1.00  0.00    -0.014 C
HETATM   18  C1  UNL     1      -6.529  18.201  18.558  1.00  0.00     0.010 C
HETATM   19  C3  UNL     1      -8.385  16.710  19.250  1.00  0.00     0.010 C
ENDBRANCH  16  17
ENDBRANCH  13  16
ENDBRANCH  11  12
BRANCH  11  20
HETATM   20  C30 UNL     1     -10.335  16.107  23.956  1.00  0.00     0.146 C
HETATM   21  C31 UNL     1     -10.974  16.249  22.588  1.00  0.00     0.042 C
BRANCH  20  22
HETATM   22  O5  UNL     1     -11.174  16.575  24.967  1.00  0.00    -0.393 OA
ATOM     23  H5  UNL     1     -11.315  17.512  24.890  1.00  0.00     0.210 HD
ENDBRANCH  20  22
ENDBRANCH  11  20
ENDBRANCH   7  11
ENDBRANCH   2   3
ENDBRANCH   1   2
BRANCH   1  24
HETATM   24  C13 UNL     1     -10.246  14.756  28.415  1.00  0.00     0.083 C
BRANCH  24  25
HETATM   25  C14 UNL     1     -11.600  15.362  28.473  1.00  0.00     0.027 A
HETATM   26  C15 UNL     1     -11.843  16.720  28.576  1.00  0.00     0.114 A
HETATM   27  N3  UNL     1     -13.163  16.872  28.600  1.00  0.00    -0.360 N
HETATM   28  C16 UNL     1     -13.751  15.672  28.517  1.00  0.00     0.180 A
ATOM     29  H3  UNL     1     -13.652  17.764  28.670  1.00  0.00     0.166 HD
HETATM   30  N4  UNL     1     -12.804  14.718  28.436  1.00  0.00    -0.355 N
ATOM     31  H4  UNL     1     -12.956  13.712  28.362  1.00  0.00     0.166 HD
ENDBRANCH  24  25
ENDBRANCH   1  24
BRANCH   1  32
HETATM   32  N5  UNL     1      -9.540  14.825  30.742  1.00  0.00    -0.332 N
HETATM   33  C17 UNL     1      -9.598  15.582  31.929  1.00  0.00     0.361 C
HETATM   34  O3  UNL     1      -9.500  16.825  31.875  1.00  0.00    -0.238 OA
ATOM     35  H5  UNL     1      -9.620  13.809  30.793  1.00  0.00     0.165 HD
BRANCH  33  36
HETATM   36  O4  UNL     1      -9.763  14.999  33.180  1.00  0.00    -0.298 OA
BRANCH  36  37
HETATM   37  C18 UNL     1     -10.946  14.479  33.698  1.00  0.00     0.142 C
HETATM   38  C19 UNL     1     -12.001  15.543  33.921  1.00  0.00     0.016 C
HETATM   39  C20 UNL     1     -13.227  14.867  34.490  1.00  0.00     0.012 C
HETATM   40  C24 UNL     1     -11.486  16.606  34.842  1.00  0.00     0.012 C
HETATM   41  C21 UNL     1     -12.848  14.279  35.826  1.00  0.00    -0.013 C
HETATM   42  C22 UNL     1     -12.283  15.327  36.752  1.00  0.00     0.009 C
HETATM   43  C27 UNL     1     -11.804  13.195  35.593  1.00  0.00     0.012 C
HETATM   44  C23 UNL     1     -11.075  15.980  36.137  1.00  0.00    -0.013 C
HETATM   45  C25 UNL     1     -10.008  14.921  35.922  1.00  0.00     0.012 C
HETATM   46  C26 UNL     1     -10.579  13.848  35.049  1.00  0.00     0.016 C
ENDBRANCH  36  37
ENDBRANCH  33  36
ENDBRANCH   1  32
TORSDOF 13
ENDMDL