MODEL 5
REMARK VINA RESULT: -9.947818734      1.560      3.265
REMARK  11 active torsions:
REMARK  status: ('A' for Active; 'I' for Inactive)
REMARK    1  A    between atoms: C2_2  and  C4_4
REMARK    2  A    between atoms: C4_4  and  C5_5
REMARK    3  A    between atoms: C5_5  and  C6_6
REMARK    4  A    between atoms: C5_5  and  C13_20
REMARK       I    between atoms: C6_6  and  N1_8
REMARK    5  A    between atoms: N1_8  and  C7_10
REMARK    6  A    between atoms: C12_15  and  N2_16
REMARK    7  A    between atoms: C13_20  and  N3_21
REMARK    8  A    between atoms: C13_20  and  C16_27
REMARK       I    between atoms: N3_21  and  C14_22
REMARK    9  A    between atoms: C14_22  and  C15_24
REMARK   10  A    between atoms: C15_24  and  O3_25
REMARK   11  A    between atoms: C16_27  and  C17_29
ROOT
HETATM    1  C13 UNL     1      -7.503  17.971  25.717  1.00  0.00     0.172 C
ENDROOT
BRANCH   1   2
HETATM    2  C5  UNL     1      -6.696  17.024  26.660  1.00  0.00     0.073 C
BRANCH   2   3
HETATM    3  C4  UNL     1      -5.417  16.494  26.129  1.00  0.00    -0.002 C
BRANCH   3   4
HETATM    4  C2  UNL     1      -4.082  16.804  26.620  1.00  0.00     0.001 C
HETATM    5  C1  UNL     1      -3.993  17.887  27.720  1.00  0.00     0.013 C
HETATM    6  C3  UNL     1      -3.129  17.416  25.563  1.00  0.00     0.013 C
ENDBRANCH   3   4
ENDBRANCH   2   3
BRANCH   2   7
HETATM    7  C6  UNL     1      -7.200  16.374  27.889  1.00  0.00     0.255 C
HETATM    8  O1  UNL     1      -7.369  15.361  28.236  1.00  0.00    -0.268 OA
HETATM    9  N1  UNL     1      -7.598  17.470  28.939  1.00  0.00    -0.350 N
ATOM     10  H1  UNL     1      -7.335  18.456  28.923  1.00  0.00     0.163 HD
BRANCH   9  11
HETATM   11  C7  UNL     1      -8.401  16.816  29.922  1.00  0.00     0.115 C
HETATM   12  C8  UNL     1      -8.066  16.677  31.317  1.00  0.00     0.027 C
HETATM   13  C9  UNL     1      -9.296  16.587  32.235  1.00  0.00     0.002 C
HETATM   14  C10 UNL     1     -10.334  15.611  31.733  1.00  0.00     0.002 C
HETATM   15  C11 UNL     1     -10.476  15.530  30.252  1.00  0.00     0.035 C
HETATM   16  C12 UNL     1      -9.898  16.760  29.573  1.00  0.00     0.206 C
BRANCH  16  17
HETATM   17  N2  UNL     1     -10.584  17.983  29.898  1.00  0.00    -0.073 N
ATOM     18  H23 UNL     1     -11.013  18.395  29.069  1.00  0.00     0.274 HD
ATOM     19  H22 UNL     1     -11.425  17.798  30.444  1.00  0.00     0.274 HD
ATOM     20  H21 UNL     1      -9.979  18.655  30.370  1.00  0.00     0.274 HD
ENDBRANCH  16  17
ENDBRANCH   9  11
ENDBRANCH   2   7
ENDBRANCH   1   2
BRANCH   1  21
HETATM   21  N3  UNL     1      -6.660  18.942  25.413  1.00  0.00    -0.361 NA
HETATM   22  C14 UNL     1      -5.737  20.021  25.187  1.00  0.00     0.338 C
HETATM   23  O2  UNL     1      -5.407  20.561  26.252  1.00  0.00    -0.250 OA
BRANCH  22  24
HETATM   24  C15 UNL     1      -5.408  20.384  23.834  1.00  0.00     0.221 C
BRANCH  24  25
HETATM   25  O3  UNL     1      -5.826  21.481  23.165  1.00  0.00    -0.366 OA
ATOM     26  H3  UNL     1      -6.609  21.559  22.633  1.00  0.00     0.216 HD
ENDBRANCH  24  25
ENDBRANCH  22  24
ENDBRANCH   1  21
BRANCH   1  27
HETATM   27  C16 UNL     1      -8.583  17.114  25.249  1.00  0.00     0.195 C
HETATM   28  O4  UNL     1      -9.673  17.317  25.430  1.00  0.00    -0.289 OA
BRANCH  27  29
HETATM   29  C17 UNL     1      -8.213  15.881  24.445  1.00  0.00     0.068 C
HETATM   30  C18 UNL     1      -9.322  15.036  23.918  1.00  0.00     0.013 C
HETATM   31  C19 UNL     1     -10.050  15.783  22.786  1.00  0.00     0.006 C
HETATM   32  C20 UNL     1      -9.217  16.964  22.635  1.00  0.00    -0.005 C
HETATM   33  C21 UNL     1      -7.827  16.409  23.053  1.00  0.00     0.002 C
HETATM   34  C24 UNL     1      -8.867  17.450  21.261  1.00  0.00    -0.005 C
HETATM   35  C22 UNL     1      -7.072  17.626  22.906  1.00  0.00     0.011 C
HETATM   36  C23 UNL     1      -7.459  17.937  21.442  1.00  0.00    -0.001 C
HETATM   37  C32 UNL     1      -6.463  17.570  20.464  1.00  0.00    -0.033 C
HETATM   38  C27 UNL     1      -7.040  17.614  19.058  1.00  0.00     0.020 C
HETATM   39  C31 UNL     1      -5.828  16.221  20.574  1.00  0.00     0.018 C
HETATM   40  C33 UNL     1      -5.345  18.609  20.525  1.00  0.00     0.016 C
HETATM   41  C26 UNL     1      -8.262  16.738  18.931  1.00  0.00     0.010 C
HETATM   42  C28 UNL     1      -6.061  17.278  18.039  1.00  0.00     0.029 C
HETATM   43  C25 UNL     1      -9.000  16.429  20.198  1.00  0.00     0.006 C
HETATM   44  C29 UNL     1      -4.785  16.580  18.312  1.00  0.00     0.146 C
HETATM   45  O5  UNL     1      -3.996  16.346  17.515  1.00  0.00    -0.294 OA
HETATM   46  C30 UNL     1      -4.608  16.151  19.746  1.00  0.00     0.083 C
ENDBRANCH  27  29
ENDBRANCH   1  27
TORSDOF 11
ENDMDL