MODEL 4
REMARK VINA RESULT: -8.797750913      2.143      4.645
REMARK  16 active torsions:
REMARK  status: ('A' for Active; 'I' for Inactive)
REMARK       I    between atoms: C2_2  and  N1_4
REMARK    1  A    between atoms: N1_4  and  C3_6
REMARK    2  A    between atoms: C3_6  and  C4_7
REMARK    3  A    between atoms: C3_6  and  C27_40
REMARK    4  A    between atoms: C4_7  and  C5_8
REMARK    5  A    between atoms: C5_8  and  C6_9
REMARK    6  A    between atoms: C6_9  and  O2_10
REMARK    7  A    between atoms: C6_9  and  N2_12
REMARK    8  A    between atoms: N2_12  and  C7_13
REMARK    9  A    between atoms: N2_12  and  C14_23
REMARK   10  A    between atoms: C7_13  and  O3_14
REMARK   11  A    between atoms: C7_13  and  N3_16
REMARK   12  A    between atoms: C25_34  and  C26_35
REMARK   13  A    between atoms: C26_35  and  O4_36
REMARK   14  A    between atoms: C27_40  and  O5_41
REMARK   15  A    between atoms: C27_40  and  C28_43
REMARK   16  A    between atoms: C28_43  and  C29_44
ROOT
HETATM    1  N2  UNL     1      -9.924  17.084  26.772  1.00  0.00    -0.292 N
ENDROOT
BRANCH   1   2
HETATM    2  C6  UNL     1     -10.493  16.506  25.651  1.00  0.00     0.121 C
BRANCH   2   3
HETATM    3  C5  UNL     1     -10.125  15.412  24.739  1.00  0.00     0.090 C
BRANCH   3   4
HETATM    4  C4  UNL     1     -10.196  15.870  23.298  1.00  0.00     0.063 C
BRANCH   4   5
HETATM    5  C3  UNL     1      -9.049  16.599  22.757  1.00  0.00     0.018 C
BRANCH   5   6
HETATM    6  N1  UNL     1      -8.658  16.244  21.389  1.00  0.00    -0.332 N
HETATM    7  C2  UNL     1      -8.789  17.120  20.290  1.00  0.00     0.217 C
HETATM    8  C1  UNL     1      -8.377  16.687  18.945  1.00  0.00     0.117 C
HETATM    9  O1  UNL     1      -9.258  18.261  20.465  1.00  0.00    -0.274 OA
ATOM     10  H1  UNL     1      -8.271  15.315  21.224  1.00  0.00     0.168 HD
ENDBRANCH   5   6
BRANCH   5  11
HETATM   11  C27 UNL     1      -7.863  16.835  23.638  1.00  0.00     0.164 C
BRANCH  11  12
HETATM   12  O5  UNL     1      -6.969  15.798  23.654  1.00  0.00    -0.390 OA
ATOM     13  H5  UNL     1      -7.142  15.152  24.328  1.00  0.00     0.210 HD
ENDBRANCH  11  12
BRANCH  11  14
HETATM   14  C28 UNL     1      -7.161  18.146  23.449  1.00  0.00     0.041 C
BRANCH  14  15
HETATM   15  C29 UNL     1      -5.725  17.910  23.086  1.00  0.00    -0.020 C
HETATM   16  C30 UNL     1      -4.729  18.781  23.764  1.00  0.00     0.009 C
HETATM   17  C31 UNL     1      -5.505  18.015  21.580  1.00  0.00     0.009 C
ENDBRANCH  14  15
ENDBRANCH  11  14
ENDBRANCH   5  11
ENDBRANCH   4   5
ENDBRANCH   3   4
ENDBRANCH   2   3
BRANCH   2  18
HETATM   18  O2  UNL     1     -11.670  17.020  25.241  1.00  0.00    -0.349 OA
ATOM     19  H2  UNL     1     -12.320  16.848  25.913  1.00  0.00     0.219 HD
ENDBRANCH   2  18
ENDBRANCH   1   2
BRANCH   1  20
HETATM   20  C7  UNL     1      -8.926  18.015  26.939  1.00  0.00     0.224 C
BRANCH  20  21
HETATM   21  O3  UNL     1      -9.471  19.263  26.953  1.00  0.00    -0.332 OA
ATOM     22  H3  UNL     1     -10.125  19.313  27.641  1.00  0.00     0.221 HD
ENDBRANCH  20  21
BRANCH  20  23
HETATM   23  N3  UNL     1      -7.568  18.163  27.101  1.00  0.00    -0.338 N
HETATM   24  C8  UNL     1      -6.804  19.406  27.033  1.00  0.00     0.206 C
HETATM   25  C9  UNL     1      -5.411  19.141  27.260  1.00  0.00    -0.163 C
HETATM   26  C10 UNL     1      -4.124  18.651  27.477  1.00  0.00     0.081 C
HETATM   27  C11 UNL     1      -4.223  17.083  27.442  1.00  0.00     0.013 C
HETATM   28  C12 UNL     1      -5.533  16.657  26.791  1.00  0.00     0.021 C
HETATM   29  C13 UNL     1      -6.818  16.891  27.409  1.00  0.00     0.127 C
ENDBRANCH  20  23
ENDBRANCH   1  20
BRANCH   1  30
HETATM   30  C14 UNL     1     -10.534  16.606  28.051  1.00  0.00     0.095 C
HETATM   31  C15 UNL     1     -10.601  15.140  28.196  1.00  0.00     0.028 C
HETATM   32  C16 UNL     1     -10.372  14.725  29.635  1.00  0.00     0.032 C
HETATM   33  C17 UNL     1     -11.167  15.538  30.632  1.00  0.00     0.026 C
HETATM   34  C18 UNL     1     -11.101  17.044  30.332  1.00  0.00     0.032 C
HETATM   35  C20 UNL     1     -12.588  15.130  30.517  1.00  0.00     0.031 C
HETATM   36  N4  UNL     1     -10.560  15.378  31.904  1.00  0.00    -0.406 N
HETATM   37  C19 UNL     1      -9.980  17.240  29.269  1.00  0.00     0.028 C
HETATM   38  C21 UNL     1     -12.929  13.927  31.383  1.00  0.00     0.013 C
HETATM   39  C22 UNL     1     -12.629  14.367  32.801  1.00  0.00    -0.025 C
HETATM   40  C23 UNL     1     -12.912  13.189  33.709  1.00  0.00     0.017 C
HETATM   41  C24 UNL     1     -13.675  15.428  33.157  1.00  0.00     0.017 C
HETATM   42  C25 UNL     1     -11.247  14.838  32.981  1.00  0.00     0.108 C
ATOM     43  H4  UNL     1      -9.590  15.669  32.030  1.00  0.00     0.154 HD
BRANCH  42  44
HETATM   44  C26 UNL     1     -11.249  15.861  34.129  1.00  0.00     0.189 C
BRANCH  44  45
HETATM   45  O4  UNL     1     -10.112  16.666  33.998  1.00  0.00    -0.399 OA
ATOM     46  H4  UNL     1     -10.386  17.515  33.670  1.00  0.00     0.209 HD
ENDBRANCH  44  45
ENDBRANCH  42  44
ENDBRANCH   1  30
TORSDOF 16
ENDMDL