MODEL 2
REMARK VINA RESULT: -9.291500070      1.892      9.628
REMARK  13 active torsions:
REMARK  status: ('A' for Active; 'I' for Inactive)
REMARK    1  A    between atoms: C2_2  and  C3_3
REMARK    2  A    between atoms: C8_8  and  C9_9
REMARK       I    between atoms: C9_9  and  N1_11
REMARK    3  A    between atoms: N1_11  and  C10_13
REMARK    4  A    between atoms: C10_13  and  C11_14
REMARK    5  A    between atoms: C10_13  and  C15_19
REMARK    6  A    between atoms: C11_14  and  C12_16
REMARK    7  A    between atoms: C19_23  and  N2_24
REMARK    8  A    between atoms: N2_24  and  C20_26
REMARK    9  A    between atoms: C20_26  and  O3_27
REMARK   10  A    between atoms: C20_26  and  C21_29
REMARK   11  A    between atoms: C21_29  and  N3_30
REMARK   12  A    between atoms: C21_29  and  C26_41
REMARK       I    between atoms: N3_30  and  C22_32
REMARK   13  A    between atoms: C22_32  and  C23_34
ROOT
HETATM    1  C3  UNL     1      -7.090  18.827  27.291  1.00  0.00    -0.005 C
HETATM    2  C4  UNL     1      -7.240  17.760  28.298  1.00  0.00    -0.005 C
HETATM    3  C5  UNL     1      -6.791  16.471  27.570  1.00  0.00     0.006 C
HETATM    4  C6  UNL     1      -7.193  16.741  26.166  1.00  0.00     0.006 C
HETATM    5  C7  UNL     1      -7.664  18.145  26.058  1.00  0.00     0.009 C
HETATM    6  C8  UNL     1      -9.186  18.300  26.215  1.00  0.00     0.128 C
HETATM    7  C19 UNL     1      -9.641  18.203  27.543  1.00  0.00     0.002 C
HETATM    8  C32 UNL     1      -8.705  17.572  28.582  1.00  0.00     0.058 C
ENDROOT
BRANCH   7   9
HETATM    9  N2  UNL     1     -10.949  17.736  27.979  1.00  0.00    -0.345 N
ATOM     10  H2  UNL     1     -11.695  17.639  27.291  1.00  0.00     0.167 HD
BRANCH   9  11
HETATM   11  C20 UNL     1     -11.214  17.415  29.333  1.00  0.00     0.139 C
BRANCH  11  12
HETATM   12  O3  UNL     1     -11.459  18.478  30.048  1.00  0.00    -0.348 OA
ATOM     13  H3  UNL     1     -10.808  18.606  30.729  1.00  0.00     0.219 HD
ENDBRANCH  11  12
BRANCH  11  14
HETATM   14  C21 UNL     1     -11.238  16.154  30.015  1.00  0.00     0.163 C
BRANCH  14  15
HETATM   15  N3  UNL     1     -11.090  16.349  31.468  1.00  0.00    -0.343 N
HETATM   16  C22 UNL     1      -9.932  16.110  32.204  1.00  0.00     0.270 C
HETATM   17  O4  UNL     1      -8.844  15.723  31.774  1.00  0.00    -0.266 OA
ATOM     18  H3  UNL     1     -11.905  16.687  31.979  1.00  0.00     0.163 HD
BRANCH  16  19
HETATM   19  C23 UNL     1      -9.972  16.317  33.687  1.00  0.00     0.117 A
HETATM   20  C24 UNL     1      -9.064  17.075  34.386  1.00  0.00     0.124 A
HETATM   21  N4  UNL     1      -9.394  17.123  35.672  1.00  0.00    -0.360 N
HETATM   22  C25 UNL     1     -10.546  16.378  35.790  1.00  0.00     0.180 A
ATOM     23  H4  UNL     1      -8.897  17.611  36.418  1.00  0.00     0.166 HD
HETATM   24  N5  UNL     1     -10.856  15.909  34.572  1.00  0.00    -0.347 N
ATOM     25  H5  UNL     1     -11.661  15.320  34.362  1.00  0.00     0.167 HD
ENDBRANCH  16  19
ENDBRANCH  14  15
BRANCH  14  26
HETATM   26  C26 UNL     1     -12.260  15.113  29.725  1.00  0.00     0.016 C
HETATM   27  C27 UNL     1     -12.601  14.854  28.290  1.00  0.00     0.007 C
HETATM   28  C28 UNL     1     -11.885  13.583  27.780  1.00  0.00     0.000 C
HETATM   29  C29 UNL     1     -12.508  12.392  28.458  1.00  0.00     0.000 C
HETATM   30  C30 UNL     1     -12.754  12.709  29.925  1.00  0.00     0.000 C
HETATM   31  C31 UNL     1     -11.844  13.787  30.374  1.00  0.00     0.007 C
ENDBRANCH  14  26
ENDBRANCH  11  14
ENDBRANCH   9  11
ENDBRANCH   7   9
BRANCH   6  32
HETATM   32  C9  UNL     1      -9.774  17.565  25.045  1.00  0.00     0.232 C
HETATM   33  O1  UNL     1     -10.872  17.016  25.001  1.00  0.00    -0.272 OA
HETATM   34  N1  UNL     1      -8.940  17.535  23.915  1.00  0.00    -0.326 N
ATOM     35  H1  UNL     1      -8.063  18.027  24.083  1.00  0.00     0.168 HD
BRANCH  34  36
HETATM   36  C10 UNL     1      -8.992  17.004  22.606  1.00  0.00     0.066 C
BRANCH  36  37
HETATM   37  C11 UNL     1      -8.270  17.860  21.625  1.00  0.00     0.175 C
HETATM   38  O2  UNL     1      -8.986  18.323  20.699  1.00  0.00    -0.291 OA
BRANCH  37  39
HETATM   39  C12 UNL     1      -6.858  18.257  21.640  1.00  0.00     0.053 C
HETATM   40  C13 UNL     1      -5.900  17.863  22.663  1.00  0.00     0.018 C
HETATM   41  C14 UNL     1      -6.230  17.789  20.286  1.00  0.00     0.018 C
ENDBRANCH  37  39
ENDBRANCH  36  37
BRANCH  36  42
HETATM   42  C15 UNL     1      -9.142  15.583  22.320  1.00  0.00    -0.005 C
HETATM   43  C16 UNL     1     -10.393  14.874  22.646  1.00  0.00     0.021 C
HETATM   44  C17 UNL     1      -8.853  15.434  20.778  1.00  0.00     0.021 C
HETATM   45  C18 UNL     1      -7.937  14.835  22.892  1.00  0.00     0.021 C
ENDBRANCH  36  42
ENDBRANCH  34  36
ENDBRANCH   6  32
BRANCH   1  46
HETATM   46  C2  UNL     1      -5.789  19.457  27.065  1.00  0.00     0.001 C
HETATM   47  C1  UNL     1      -5.434  19.998  25.740  1.00  0.00     0.005 C
ENDBRANCH   1  46
TORSDOF 13
ENDMDL