MODEL 2
REMARK VINA RESULT: -9.377249388      0.940      1.564
REMARK  11 active torsions:
REMARK  status: ('A' for Active; 'I' for Inactive)
REMARK    1  A    between atoms: C2_2  and  C4_4
REMARK    2  A    between atoms: C4_4  and  C5_6
REMARK    3  A    between atoms: C5_6  and  C6_7
REMARK    4  A    between atoms: C6_7  and  O2_8
REMARK    5  A    between atoms: C15_18  and  C16_19
REMARK       I    between atoms: C16_19  and  N1_21
REMARK    6  A    between atoms: N1_21  and  C17_23
REMARK    7  A    between atoms: C17_23  and  C18_24
REMARK    8  A    between atoms: C18_24  and  C19_25
REMARK    9  A    between atoms: C19_25  and  N2_26
REMARK       I    between atoms: N2_26  and  C20_28
REMARK   10  A    between atoms: C20_28  and  C21_30
REMARK   11  A    between atoms: C22_31  and  C23_32
ROOT
HETATM    1  C6  UNL     1     -10.175  15.235  32.300  1.00  0.00     0.072 C
HETATM    2  C7  UNL     1      -9.135  16.231  32.925  1.00  0.00     0.039 C
HETATM    3  C8  UNL     1      -8.206  16.538  31.766  1.00  0.00     0.009 C
HETATM    4  C9  UNL     1      -8.871  15.929  30.579  1.00  0.00     0.006 C
HETATM    5  C10 UNL     1      -8.557  16.375  29.221  1.00  0.00    -0.032 C
HETATM    6  C11 UNL     1      -7.318  17.261  29.459  1.00  0.00     0.016 C
HETATM    7  C12 UNL     1      -7.977  15.183  28.459  1.00  0.00     0.011 C
HETATM    8  C13 UNL     1      -8.573  14.914  27.131  1.00  0.00     0.007 C
HETATM    9  C14 UNL     1      -8.780  16.110  26.277  1.00  0.00     0.007 C
HETATM   10  C15 UNL     1      -9.782  15.762  25.203  1.00  0.00     0.083 C
HETATM   11  C24 UNL     1     -10.738  16.921  25.077  1.00  0.00     0.015 C
HETATM   12  C25 UNL     1     -10.339  17.928  26.128  1.00  0.00     0.011 C
HETATM   13  C26 UNL     1      -9.317  17.327  27.025  1.00  0.00    -0.032 C
HETATM   14  C27 UNL     1      -8.169  18.365  26.926  1.00  0.00     0.016 C
HETATM   15  C28 UNL     1      -9.659  17.059  28.445  1.00  0.00     0.031 C
HETATM   16  C29 UNL     1     -10.909  16.370  28.757  1.00  0.00    -0.083 C
HETATM   17  C30 UNL     1     -12.124  16.496  28.271  1.00  0.00     0.015 C
HETATM   18  C31 UNL     1     -10.961  15.306  29.874  1.00  0.00     0.046 C
HETATM   19  C32 UNL     1     -10.332  15.963  31.036  1.00  0.00    -0.005 C
HETATM   20  C33 UNL     1     -10.811  17.357  31.306  1.00  0.00     0.019 C
ENDROOT
BRANCH  10  21
HETATM   21  C16 UNL     1      -9.051  15.511  23.899  1.00  0.00     0.222 C
HETATM   22  O3  UNL     1      -8.155  14.668  23.802  1.00  0.00    -0.273 OA
HETATM   23  N1  UNL     1      -9.460  16.305  22.800  1.00  0.00    -0.361 N
ATOM     24  H1  UNL     1     -10.212  16.973  22.966  1.00  0.00     0.162 HD
BRANCH  23  25
HETATM   25  C17 UNL     1      -8.910  16.257  21.466  1.00  0.00     0.124 C
BRANCH  25  26
HETATM   26  C18 UNL     1      -7.943  17.405  21.304  1.00  0.00     0.039 C
BRANCH  26  27
HETATM   27  C19 UNL     1      -6.497  16.971  21.369  1.00  0.00     0.124 C
BRANCH  27  28
HETATM   28  N2  UNL     1      -6.097  16.985  22.782  1.00  0.00    -0.358 N
HETATM   29  C20 UNL     1      -5.358  18.084  23.258  1.00  0.00     0.241 C
HETATM   30  O4  UNL     1      -5.061  19.015  22.477  1.00  0.00    -0.269 OA
ATOM     31  H2  UNL     1      -6.348  16.217  23.404  1.00  0.00     0.162 HD
BRANCH  29  32
HETATM   32  C21 UNL     1      -4.942  18.142  24.644  1.00  0.00     0.081 C
HETATM   33  C22 UNL     1      -5.097  17.174  25.514  1.00  0.00     0.090 C
BRANCH  33  34
HETATM   34  C23 UNL     1      -4.637  17.352  26.880  1.00  0.00     0.198 C
HETATM   35  O5  UNL     1      -4.222  16.365  27.549  1.00  0.00    -0.645 OA
HETATM   36  O6  UNL     1      -4.648  18.602  27.464  1.00  0.00    -0.645 OA
ENDBRANCH  33  34
ENDBRANCH  29  32
ENDBRANCH  27  28
ENDBRANCH  26  27
ENDBRANCH  25  26
ENDBRANCH  23  25
ENDBRANCH  10  21
BRANCH   1  37
HETATM   37  C5  UNL     1     -11.228  15.145  33.307  1.00  0.00     0.122 C
BRANCH  37  38
HETATM   38  C4  UNL     1     -12.103  13.967  33.308  1.00  0.00     0.157 C
HETATM   39  O1  UNL     1     -11.959  13.083  34.162  1.00  0.00    -0.293 OA
BRANCH  38  40
HETATM   40  C2  UNL     1     -13.125  13.847  32.310  1.00  0.00    -0.025 C
HETATM   41  C1  UNL     1     -14.065  14.758  32.223  1.00  0.00     0.022 C
HETATM   42  C3  UNL     1     -13.130  12.706  31.375  1.00  0.00     0.051 C
ENDBRANCH  38  40
ENDBRANCH  37  38
ENDBRANCH   1  37
BRANCH   1  43
HETATM   43  O2  UNL     1      -9.488  14.029  32.267  1.00  0.00    -0.389 OA
ATOM     44  H2  UNL     1     -10.110  13.321  32.381  1.00  0.00     0.210 HD
ENDBRANCH   1  43
TORSDOF 11
ENDMDL