MODEL 4
REMARK VINA RESULT: -9.119431672      2.529      9.011
REMARK  13 active torsions:
REMARK  status: ('A' for Active; 'I' for Inactive)
REMARK    1  A    between atoms: N1_2  and  C2_5
REMARK    2  A    between atoms: C2_5  and  C4_7
REMARK       I    between atoms: C4_7  and  N2_9
REMARK    3  A    between atoms: N2_9  and  C5_11
REMARK    4  A    between atoms: C5_11  and  C6_12
REMARK    5  A    between atoms: C5_11  and  C13_19
REMARK    6  A    between atoms: C6_12  and  C7_13
REMARK       I    between atoms: C13_19  and  N3_21
REMARK    7  A    between atoms: N3_21  and  C14_23
REMARK    8  A    between atoms: C14_23  and  C15_24
REMARK    9  A    between atoms: C14_23  and  C22_31
REMARK   10  A    between atoms: C15_24  and  C16_25
REMARK   11  A    between atoms: C22_31  and  O3_32
REMARK   12  A    between atoms: C22_31  and  N4_34
REMARK   13  A    between atoms: N5_36  and  C24_37
ROOT
HETATM    1  N4  UNL     1      -9.481  16.351  32.176  1.00  0.00    -0.330 N
HETATM    2  C23 UNL     1     -10.912  16.280  32.348  1.00  0.00     0.247 C
HETATM    3  N5  UNL     1     -11.253  14.912  32.680  1.00  0.00    -0.392 N
HETATM    4  C29 UNL     1     -10.634  14.374  33.826  1.00  0.00     0.122 C
HETATM    5  C30 UNL     1      -9.101  14.466  33.676  1.00  0.00     0.060 C
HETATM    6  C31 UNL     1      -8.705  15.875  33.328  1.00  0.00     0.196 C
HETATM    7  C32 UNL     1      -8.955  16.762  34.468  1.00  0.00     0.085 C
HETATM    8  N6  UNL     1      -9.153  17.438  35.367  1.00  0.00    -0.195 NA
ENDROOT
BRANCH   1   9
HETATM    9  C22 UNL     1      -8.871  16.853  31.025  1.00  0.00     0.139 C
BRANCH   9  10
HETATM   10  C14 UNL     1      -8.212  16.096  29.970  1.00  0.00     0.159 C
BRANCH  10  11
HETATM   11  N3  UNL     1      -8.046  16.993  28.835  1.00  0.00    -0.347 N
HETATM   12  C13 UNL     1      -7.126  17.080  27.830  1.00  0.00     0.241 C
HETATM   13  O2  UNL     1      -6.142  16.285  27.666  1.00  0.00    -0.271 OA
ATOM     14  H3  UNL     1      -8.770  17.709  28.779  1.00  0.00     0.163 HD
BRANCH  12  15
HETATM   15  C5  UNL     1      -7.207  18.179  26.771  1.00  0.00     0.177 C
BRANCH  15  16
HETATM   16  N2  UNL     1      -6.137  17.850  25.861  1.00  0.00    -0.346 N
HETATM   17  C4  UNL     1      -5.349  18.797  25.168  1.00  0.00     0.248 C
HETATM   18  O1  UNL     1      -5.533  20.027  25.323  1.00  0.00    -0.271 OA
ATOM     19  H2  UNL     1      -5.935  16.862  25.706  1.00  0.00     0.163 HD
BRANCH  17  20
HETATM   20  C2  UNL     1      -4.287  18.346  24.245  1.00  0.00     0.272 C
HETATM   21  C3  UNL     1      -4.648  18.432  22.805  1.00  0.00     0.050 C
BRANCH  20  22
HETATM   22  N1  UNL     1      -3.690  17.069  24.643  1.00  0.00    -0.067 N
HETATM   23  C1  UNL     1      -2.268  17.063  24.291  1.00  0.00     0.267 C
ATOM     24  H12 UNL     1      -4.188  16.271  24.249  1.00  0.00     0.277 HD
ATOM     25  H11 UNL     1      -3.843  16.863  25.630  1.00  0.00     0.277 HD
ENDBRANCH  20  22
ENDBRANCH  17  20
ENDBRANCH  15  16
BRANCH  15  26
HETATM   26  C6  UNL     1      -8.551  18.197  26.204  1.00  0.00     0.039 C
BRANCH  26  27
HETATM   27  C7  UNL     1      -8.925  17.062  25.277  1.00  0.00    -0.012 C
HETATM   28  C8  UNL     1      -8.313  17.145  23.902  1.00  0.00     0.005 C
HETATM   29  C9  UNL     1      -8.395  15.694  23.354  1.00  0.00     0.000 C
HETATM   30  C10 UNL     1      -9.754  15.113  23.757  1.00  0.00     0.000 C
HETATM   31  C11 UNL     1     -10.753  16.230  23.879  1.00  0.00     0.000 C
HETATM   32  C12 UNL     1     -10.444  16.962  25.165  1.00  0.00     0.005 C
ENDBRANCH  26  27
ENDBRANCH  15  26
ENDBRANCH  12  15
ENDBRANCH  10  11
BRANCH  10  33
HETATM   33  C15 UNL     1      -9.195  15.017  29.418  1.00  0.00     0.038 C
BRANCH  33  34
HETATM   34  C16 UNL     1     -10.153  15.514  28.399  1.00  0.00    -0.012 C
HETATM   35  C17 UNL     1     -10.456  14.285  27.496  1.00  0.00     0.005 C
HETATM   36  C18 UNL     1     -11.489  13.451  28.174  1.00  0.00     0.000 C
HETATM   37  C19 UNL     1     -12.846  14.137  28.014  1.00  0.00     0.000 C
HETATM   38  C20 UNL     1     -12.611  15.618  27.998  1.00  0.00     0.000 C
HETATM   39  C21 UNL     1     -11.462  16.023  28.921  1.00  0.00     0.005 C
ENDBRANCH  33  34
ENDBRANCH  10  33
ENDBRANCH   9  10
BRANCH   9  40
HETATM   40  O3  UNL     1      -8.923  18.159  30.929  1.00  0.00    -0.348 OA
ATOM     41  H3  UNL     1      -8.817  18.682  31.716  1.00  0.00     0.219 HD
ENDBRANCH   9  40
ENDBRANCH   1   9
BRANCH   3  42
HETATM   42  C24 UNL     1     -12.645  14.618  32.489  1.00  0.00     0.080 C
HETATM   43  C25 UNL     1     -13.501  15.058  33.622  1.00  0.00     0.025 C
HETATM   44  C26 UNL     1     -14.811  14.336  33.384  1.00  0.00     0.002 C
HETATM   45  C27 UNL     1     -14.457  13.095  32.641  1.00  0.00     0.002 C
HETATM   46  C28 UNL     1     -12.986  13.207  32.245  1.00  0.00     0.025 C
ENDBRANCH   3  42
TORSDOF 13
ENDMDL