MODEL 2
REMARK VINA RESULT: -9.484552578      2.055      3.829
REMARK  10 active torsions:
REMARK  status: ('A' for Active; 'I' for Inactive)
REMARK    1  A    between atoms: S1_2  and  C2_5
REMARK    2  A    between atoms: C2_5  and  C3_6
REMARK    3  A    between atoms: C2_5  and  C10_13
REMARK    4  A    between atoms: C3_6  and  C4_7
REMARK       I    between atoms: C10_13  and  N1_15
REMARK    5  A    between atoms: N1_15  and  C11_17
REMARK    6  A    between atoms: C11_17  and  C12_18
REMARK    7  A    between atoms: C11_17  and  C13_21
REMARK    8  A    between atoms: C11_17  and  C25_35
REMARK       I    between atoms: C13_21  and  N2_23
REMARK    9  A    between atoms: N2_23  and  C14_24
REMARK   10  A    between atoms: C14_24  and  C15_25
ROOT
HETATM    1  C11 UNL     1      -9.362  15.783  26.595  1.00  0.00     0.245 C
ENDROOT
BRANCH   1   2
HETATM    2  N1  UNL     1      -8.327  16.623  27.181  1.00  0.00    -0.327 N
HETATM    3  C10 UNL     1      -7.915  17.869  26.728  1.00  0.00     0.260 C
HETATM    4  O3  UNL     1      -8.510  18.400  25.774  1.00  0.00    -0.267 OA
ATOM      5  H1  UNL     1      -7.857  16.258  28.009  1.00  0.00     0.164 HD
BRANCH   3   6
HETATM    6  C2  UNL     1      -6.741  18.639  27.303  1.00  0.00     0.104 C
BRANCH   6   7
HETATM    7  S1  UNL     1      -5.816  17.635  28.370  1.00  0.00     0.173 S
HETATM    8  C1  UNL     1      -4.176  18.161  28.703  1.00  0.00     0.166 C
HETATM    9  O1  UNL     1      -5.593  16.299  27.509  1.00  0.00    -0.223 OA
HETATM   10  O2  UNL     1      -6.568  17.100  29.518  1.00  0.00    -0.223 OA
ENDBRANCH   6   7
BRANCH   6  11
HETATM   11  C3  UNL     1      -6.069  19.527  26.380  1.00  0.00     0.061 C
BRANCH  11  12
HETATM   12  C4  UNL     1      -5.655  19.085  25.039  1.00  0.00    -0.010 C
HETATM   13  C5  UNL     1      -5.577  20.020  23.899  1.00  0.00     0.005 C
HETATM   14  C6  UNL     1      -6.075  19.268  22.646  1.00  0.00     0.000 C
HETATM   15  C7  UNL     1      -5.466  17.877  22.753  1.00  0.00     0.000 C
HETATM   16  C8  UNL     1      -4.192  17.853  23.544  1.00  0.00     0.000 C
HETATM   17  C9  UNL     1      -4.375  18.223  25.008  1.00  0.00     0.005 C
ENDBRANCH  11  12
ENDBRANCH   6  11
ENDBRANCH   3   6
ENDBRANCH   1   2
BRANCH   1  18
HETATM   18  C12 UNL     1      -9.226  14.470  27.405  1.00  0.00     0.216 C
HETATM   19  O4  UNL     1      -8.063  14.127  27.749  1.00  0.00    -0.646 OA
HETATM   20  O5  UNL     1     -10.302  13.696  27.736  1.00  0.00    -0.646 OA
ENDBRANCH   1  18
BRANCH   1  21
HETATM   21  C13 UNL     1     -10.637  16.374  27.258  1.00  0.00     0.333 C
HETATM   22  O6  UNL     1     -11.590  16.363  26.472  1.00  0.00    -0.254 OA
HETATM   23  N2  UNL     1     -10.544  16.851  28.531  1.00  0.00    -0.384 NA
BRANCH  23  24
HETATM   24  C14 UNL     1     -10.460  17.333  29.807  1.00  0.00     0.168 C
BRANCH  24  25
HETATM   25  C15 UNL     1     -10.039  16.551  30.992  1.00  0.00     0.005 C
HETATM   26  C16 UNL     1      -9.107  17.531  31.731  1.00  0.00     0.020 C
HETATM   27  C17 UNL     1      -8.709  17.087  33.082  1.00  0.00    -0.013 C
HETATM   28  C18 UNL     1      -9.941  17.020  33.916  1.00  0.00     0.009 C
HETATM   29  C22 UNL     1      -7.975  15.772  32.942  1.00  0.00     0.009 C
HETATM   30  C19 UNL     1     -10.843  15.972  33.256  1.00  0.00    -0.013 C
HETATM   31  C20 UNL     1     -10.080  14.667  33.240  1.00  0.00     0.009 C
HETATM   32  C24 UNL     1     -11.283  16.359  31.898  1.00  0.00     0.020 C
HETATM   33  C21 UNL     1      -8.926  14.794  32.249  1.00  0.00    -0.013 C
HETATM   34  C23 UNL     1      -9.365  15.253  30.892  1.00  0.00     0.020 C
ENDBRANCH  24  25
ENDBRANCH  23  24
ENDBRANCH   1  21
BRANCH   1  35
HETATM   35  C25 UNL     1      -9.456  15.458  25.236  1.00  0.00     0.235 C
HETATM   36  C26 UNL     1      -8.262  14.987  24.433  1.00  0.00     0.037 C
HETATM   37  C27 UNL     1      -8.301  15.477  22.991  1.00  0.00     0.004 C
HETATM   38  C28 UNL     1      -9.712  15.313  22.461  1.00  0.00     0.027 C
HETATM   39  C29 UNL     1     -10.711  16.085  23.279  1.00  0.00     0.233 C
HETATM   40  N3  UNL     1     -10.012  16.584  24.440  1.00  0.00    -0.067 N
ATOM     41  H32 UNL     1     -10.602  17.195  25.005  1.00  0.00     0.277 HD
ATOM     42  H31 UNL     1      -9.293  17.262  24.187  1.00  0.00     0.277 HD
ENDBRANCH   1  35
TORSDOF 10
ENDMDL