MODEL 2
REMARK VINA RESULT: -8.365139117      2.966      8.647
REMARK  15 active torsions:
REMARK  status: ('A' for Active; 'I' for Inactive)
REMARK    1  A    between atoms: N1_2  and  C2_3
REMARK    2  A    between atoms: N1_2  and  C15_25
REMARK    3  A    between atoms: C2_3  and  O1_4
REMARK    4  A    between atoms: C2_3  and  C3_6
REMARK    5  A    between atoms: C3_6  and  N2_7
REMARK    6  A    between atoms: C3_6  and  C11_21
REMARK       I    between atoms: N2_7  and  C4_9
REMARK       I    between atoms: C4_9  and  N3_11
REMARK    7  A    between atoms: N3_11  and  C5_13
REMARK    8  A    between atoms: C5_13  and  C6_14
REMARK    9  A    between atoms: C5_13  and  C7_17
REMARK   10  A    between atoms: C15_25  and  C16_26
REMARK   11  A    between atoms: C15_25  and  C26_37
REMARK   12  A    between atoms: C16_26  and  C17_27
REMARK   13  A    between atoms: C17_27  and  C18_28
REMARK   14  A    between atoms: C18_28  and  N4_29
REMARK       I    between atoms: C26_37  and  N5_39
REMARK   15  A    between atoms: N5_39  and  C27_41
ROOT
HETATM    1  C1  UNL     1     -10.670  17.254  29.523  1.00  0.00     0.152 C
HETATM    2  N1  UNL     1      -9.653  16.247  29.795  1.00  0.00    -0.355 N
ENDROOT
BRANCH   2   3
HETATM    3  C2  UNL     1      -9.964  14.889  29.613  1.00  0.00     0.138 C
BRANCH   3   4
HETATM    4  O1  UNL     1      -9.584  14.147  30.616  1.00  0.00    -0.348 OA
ATOM      5  H1  UNL     1     -10.314  13.831  31.135  1.00  0.00     0.219 HD
ENDBRANCH   3   4
BRANCH   3   6
HETATM    6  C3  UNL     1     -10.645  14.236  28.471  1.00  0.00     0.168 C
BRANCH   6   7
HETATM    7  N2  UNL     1     -10.410  15.021  27.275  1.00  0.00    -0.330 N
HETATM    8  C4  UNL     1      -9.401  15.019  26.338  1.00  0.00     0.317 C
HETATM    9  O2  UNL     1      -8.382  14.261  26.286  1.00  0.00    -0.247 OA
HETATM   10  N3  UNL     1      -9.469  15.961  25.278  1.00  0.00    -0.328 N
ATOM     11  H3  UNL     1     -10.233  16.635  25.323  1.00  0.00     0.165 HD
ATOM     12  H2  UNL     1     -11.137  15.713  27.091  1.00  0.00     0.165 HD
BRANCH  10  13
HETATM   13  C5  UNL     1      -8.595  16.076  24.156  1.00  0.00     0.194 C
BRANCH  13  14
HETATM   14  C6  UNL     1      -7.950  17.443  24.120  1.00  0.00     0.197 C
HETATM   15  O3  UNL     1      -8.474  18.452  24.550  1.00  0.00    -0.646 OA
HETATM   16  O4  UNL     1      -6.657  17.512  23.544  1.00  0.00    -0.646 OA
ENDBRANCH  13  14
BRANCH  13  17
HETATM   17  C7  UNL     1      -9.400  15.867  22.882  1.00  0.00    -0.021 C
HETATM   18  C8  UNL     1     -10.829  16.290  23.037  1.00  0.00     0.017 C
HETATM   19  C9  UNL     1      -8.777  16.456  21.668  1.00  0.00     0.017 C
HETATM   20  C10 UNL     1      -9.430  14.341  22.675  1.00  0.00     0.017 C
ENDBRANCH  13  17
ENDBRANCH  10  13
ENDBRANCH   6   7
BRANCH   6  21
HETATM   21  C11 UNL     1     -12.163  14.176  28.730  1.00  0.00    -0.023 C
HETATM   22  C12 UNL     1     -12.554  14.174  30.147  1.00  0.00     0.017 C
HETATM   23  C13 UNL     1     -12.666  12.819  28.165  1.00  0.00     0.017 C
HETATM   24  C14 UNL     1     -12.927  15.191  27.957  1.00  0.00     0.017 C
ENDBRANCH   6  21
ENDBRANCH   3   6
ENDBRANCH   2   3
BRANCH   2  25
HETATM   25  C15 UNL     1      -8.326  16.744  30.202  1.00  0.00     0.177 C
BRANCH  25  26
HETATM   26  C16 UNL     1      -8.441  17.852  31.161  1.00  0.00     0.036 C
BRANCH  26  27
HETATM   27  C17 UNL     1      -8.092  17.502  32.565  1.00  0.00     0.033 C
BRANCH  27  28
HETATM   28  C18 UNL     1      -8.572  16.114  32.883  1.00  0.00     0.272 C
BRANCH  28  29
HETATM   29  N4  UNL     1      -9.643  16.082  33.841  1.00  0.00     0.088 N
HETATM   30  C19 UNL     1      -9.589  17.122  34.816  1.00  0.00     0.272 C
HETATM   31  C20 UNL     1      -9.864  16.551  36.182  1.00  0.00     0.030 C
HETATM   32  C21 UNL     1      -9.910  15.057  36.204  1.00  0.00     0.002 C
HETATM   33  C22 UNL     1     -11.377  14.633  36.073  1.00  0.00     0.000 C
HETATM   34  C23 UNL     1     -11.645  14.321  34.635  1.00  0.00     0.002 C
HETATM   35  C24 UNL     1     -12.036  15.575  33.906  1.00  0.00     0.030 C
HETATM   36  C25 UNL     1     -10.882  16.124  33.087  1.00  0.00     0.272 C
ENDBRANCH  28  29
ENDBRANCH  27  28
ENDBRANCH  26  27
ENDBRANCH  25  26
BRANCH  25  37
HETATM   37  C26 UNL     1      -7.642  17.158  28.955  1.00  0.00     0.241 C
HETATM   38  O5  UNL     1      -8.210  17.301  27.866  1.00  0.00    -0.271 OA
HETATM   39  N5  UNL     1      -6.211  17.425  28.975  1.00  0.00    -0.351 N
ATOM     40  H5  UNL     1      -5.687  17.330  29.844  1.00  0.00     0.163 HD
BRANCH  39  41
HETATM   41  C27 UNL     1      -5.543  17.819  27.775  1.00  0.00     0.022 C
HETATM   42  C28 UNL     1      -6.161  19.061  27.123  1.00  0.00     0.037 C
HETATM   43  C29 UNL     1      -4.100  18.158  28.067  1.00  0.00     0.037 C
HETATM   44  C30 UNL     1      -5.542  16.744  26.696  1.00  0.00     0.037 C
ENDBRANCH  39  41
ENDBRANCH  25  37
ENDBRANCH   2  25
TORSDOF 15
ENDMDL