MODEL 1
REMARK VINA RESULT: -9.907453253      0.000      0.000
REMARK  11 active torsions:
REMARK  status: ('A' for Active; 'I' for Inactive)
REMARK    1  A    between atoms: C2_2  and  C4_4
REMARK    2  A    between atoms: C4_4  and  C5_5
REMARK    3  A    between atoms: C5_5  and  N1_6
REMARK    4  A    between atoms: C5_5  and  C27_31
REMARK       I    between atoms: N1_6  and  C6_8
REMARK    5  A    between atoms: C6_8  and  C7_10
REMARK       I    between atoms: C27_31  and  N2_33
REMARK    6  A    between atoms: N2_33  and  C28_35
REMARK    7  A    between atoms: C28_35  and  C30_37
REMARK    8  A    between atoms: C30_37  and  O4_38
REMARK    9  A    between atoms: C30_37  and  C31_40
REMARK   10  A    between atoms: C31_40  and  N3_41
REMARK   11  A    between atoms: N3_41  and  C32_44
ROOT
HETATM    1  N1  UNL     1      -9.178  15.042  25.862  1.00  0.00    -0.347 N
ATOM      2  H1  UNL     1     -10.110  15.270  25.517  1.00  0.00     0.163 HD
HETATM    3  C6  UNL     1      -9.085  14.438  27.120  1.00  0.00     0.222 C
HETATM    4  O1  UNL     1      -7.937  14.132  27.591  1.00  0.00    -0.273 OA
ENDROOT
BRANCH   1   5
HETATM    5  C5  UNL     1      -8.059  15.367  25.013  1.00  0.00     0.177 C
BRANCH   5   6
HETATM    6  C4  UNL     1      -8.284  15.128  23.571  1.00  0.00     0.038 C
BRANCH   6   7
HETATM    7  C2  UNL     1      -9.449  15.775  22.933  1.00  0.00    -0.020 C
HETATM    8  C1  UNL     1     -10.505  14.675  22.727  1.00  0.00     0.009 C
HETATM    9  C3  UNL     1      -9.232  16.388  21.596  1.00  0.00     0.009 C
ENDBRANCH   6   7
ENDBRANCH   5   6
BRANCH   5  10
HETATM   10  C27 UNL     1      -7.532  16.704  25.367  1.00  0.00     0.240 C
HETATM   11  O3  UNL     1      -7.779  17.727  24.667  1.00  0.00    -0.271 OA
HETATM   12  N2  UNL     1      -6.719  16.907  26.511  1.00  0.00    -0.353 N
ATOM     13  H2  UNL     1      -6.501  16.100  27.096  1.00  0.00     0.163 HD
BRANCH  12  14
HETATM   14  C28 UNL     1      -6.186  18.190  26.894  1.00  0.00     0.110 C
HETATM   15  C29 UNL     1      -4.886  18.057  27.656  1.00  0.00     0.035 C
BRANCH  14  16
HETATM   16  C30 UNL     1      -7.188  18.863  27.803  1.00  0.00     0.166 C
BRANCH  16  17
HETATM   17  O4  UNL     1      -8.031  19.698  27.070  1.00  0.00    -0.392 OA
ATOM     18  H4  UNL     1      -7.699  20.588  27.067  1.00  0.00     0.210 HD
ENDBRANCH  16  17
BRANCH  16  19
HETATM   19  C31 UNL     1      -8.029  17.888  28.561  1.00  0.00     0.266 C
BRANCH  19  20
HETATM   20  N3  UNL     1      -8.163  18.367  29.922  1.00  0.00    -0.068 N
ATOM     21  H32 UNL     1      -7.344  18.910  30.198  1.00  0.00     0.277 HD
ATOM     22  H31 UNL     1      -8.876  19.094  29.982  1.00  0.00     0.277 HD
BRANCH  20  23
HETATM   23  C32 UNL     1      -8.422  17.322  30.870  1.00  0.00     0.186 A
HETATM   24  C33 UNL     1      -8.581  17.684  32.321  1.00  0.00     0.035 A
HETATM   25  C34 UNL     1      -7.300  17.070  31.891  1.00  0.00     0.035 A
ENDBRANCH  20  23
ENDBRANCH  19  20
ENDBRANCH  16  19
ENDBRANCH  14  16
ENDBRANCH  12  14
ENDBRANCH   5  10
ENDBRANCH   1   5
BRANCH   3  26
HETATM   26  C7  UNL     1     -10.295  14.137  27.932  1.00  0.00     0.078 C
HETATM   27  C8  UNL     1     -11.300  15.225  27.618  1.00  0.00     0.015 C
HETATM   28  C9  UNL     1     -12.638  15.006  28.234  1.00  0.00     0.010 C
HETATM   29  C10 UNL     1     -12.475  14.461  29.656  1.00  0.00    -0.040 C
HETATM   30  C11 UNL     1     -12.616  12.979  29.574  1.00  0.00     0.015 C
HETATM   31  C12 UNL     1     -13.519  15.130  30.494  1.00  0.00     0.010 C
HETATM   32  C25 UNL     1     -11.124  14.915  30.147  1.00  0.00    -0.001 C
HETATM   33  C13 UNL     1     -13.449  14.732  31.947  1.00  0.00     0.006 C
HETATM   34  C14 UNL     1     -12.101  14.269  32.384  1.00  0.00    -0.001 C
HETATM   35  C15 UNL     1     -10.957  14.882  31.622  1.00  0.00    -0.005 C
HETATM   36  C23 UNL     1     -11.943  14.639  33.849  1.00  0.00    -0.025 C
HETATM   37  C16 UNL     1      -9.704  14.114  32.066  1.00  0.00     0.006 C
HETATM   38  C17 UNL     1      -9.448  14.503  33.485  1.00  0.00     0.018 C
HETATM   39  C18 UNL     1     -10.601  14.338  34.411  1.00  0.00     0.024 C
HETATM   40  C19 UNL     1     -10.587  12.992  35.109  1.00  0.00     0.024 C
HETATM   41  C20 UNL     1     -10.474  15.363  35.511  1.00  0.00     0.136 C
HETATM   42  O2  UNL     1      -9.865  15.268  36.550  1.00  0.00    -0.297 OA
HETATM   43  C21 UNL     1     -11.242  16.566  35.114  1.00  0.00     0.080 C
HETATM   44  C22 UNL     1     -12.271  16.076  34.112  1.00  0.00     0.018 C
HETATM   45  C24 UNL     1     -12.989  13.802  34.599  1.00  0.00     0.016 C
HETATM   46  C26 UNL     1      -9.998  14.207  29.414  1.00  0.00     0.020 C
ENDBRANCH   3  26
TORSDOF 11
ENDMDL