MODEL 4
REMARK VINA RESULT: -8.598739498      1.717      3.864
REMARK  13 active torsions:
REMARK  status: ('A' for Active; 'I' for Inactive)
REMARK    1  A    between atoms: C7_7  and  N1_8
REMARK    2  A    between atoms: N1_8  and  C8_11
REMARK    3  A    between atoms: C8_11  and  C9_12
REMARK    4  A    between atoms: C9_12  and  O1_13
REMARK    5  A    between atoms: C10_15  and  N2_16
REMARK    6  A    between atoms: C10_15  and  C17_24
REMARK    7  A    between atoms: N2_16  and  C11_18
REMARK    8  A    between atoms: C17_24  and  C18_25
REMARK    9  A    between atoms: C17_24  and  N4_41
REMARK   10  A    between atoms: C18_25  and  C19_26
REMARK   11  A    between atoms: C19_26  and  C20_27
REMARK   12  A    between atoms: C20_27  and  O2_28
REMARK   13  A    between atoms: C20_27  and  N3_30
REMARK       I    between atoms: N4_41  and  C30_43
REMARK       I    between atoms: C30_43  and  N5_45
ROOT
HETATM    1  C17 UNL     1      -9.029  16.987  27.755  1.00  0.00     0.140 C
ENDROOT
BRANCH   1   2
HETATM    2  C10 UNL     1      -9.314  16.277  29.149  1.00  0.00     0.063 C
HETATM    3  C9  UNL     1      -8.488  16.730  30.237  1.00  0.00     0.093 C
BRANCH   3   4
HETATM    4  C8  UNL     1      -8.460  16.109  31.585  1.00  0.00     0.298 C
BRANCH   4   5
HETATM    5  N1  UNL     1      -9.672  16.586  32.329  1.00  0.00    -0.065 N
ATOM      6  H12 UNL     1     -10.553  16.298  31.903  1.00  0.00     0.278 HD
ATOM      7  H11 UNL     1      -9.827  17.591  32.257  1.00  0.00     0.278 HD
BRANCH   5   8
HETATM    8  C7  UNL     1      -9.501  16.121  33.680  1.00  0.00     0.190 C
HETATM    9  C2  UNL     1     -10.773  16.497  34.425  1.00  0.00     0.012 C
HETATM   10  C1  UNL     1     -11.938  16.034  33.592  1.00  0.00     0.012 C
HETATM   11  C3  UNL     1     -10.733  15.912  35.802  1.00  0.00     0.006 C
HETATM   12  C4  UNL     1     -10.789  14.417  35.728  1.00  0.00     0.000 C
HETATM   13  C5  UNL     1     -10.205  13.836  34.485  1.00  0.00     0.002 C
HETATM   14  C6  UNL     1      -9.152  14.687  33.823  1.00  0.00     0.033 C
ENDBRANCH   5   8
ENDBRANCH   4   5
ENDBRANCH   3   4
BRANCH   3  15
HETATM   15  O1  UNL     1      -8.484  18.115  30.456  1.00  0.00    -0.361 OA
ATOM     16  H1  UNL     1      -9.397  18.377  30.468  1.00  0.00     0.217 HD
ENDBRANCH   3  15
BRANCH   2  17
HETATM   17  N2  UNL     1      -9.586  14.937  28.892  1.00  0.00    -0.363 N
ATOM     18  H2  UNL     1      -8.796  14.390  28.547  1.00  0.00     0.165 HD
BRANCH  17  19
HETATM   19  C11 UNL     1     -10.760  14.244  29.035  1.00  0.00    -0.013 C
HETATM   20  C12 UNL     1     -11.765  14.896  30.015  1.00  0.00     0.052 C
HETATM   21  C13 UNL     1     -12.431  13.778  30.773  1.00  0.00     0.006 C
HETATM   22  C14 UNL     1     -12.478  12.500  30.019  1.00  0.00     0.001 C
HETATM   23  C15 UNL     1     -12.548  12.591  28.536  1.00  0.00     0.006 C
HETATM   24  C16 UNL     1     -11.582  13.660  27.965  1.00  0.00     0.052 C
ENDBRANCH  17  19
ENDBRANCH   2  17
ENDBRANCH   1   2
BRANCH   1  25
HETATM   25  C18 UNL     1      -9.784  16.388  26.698  1.00  0.00     0.049 C
BRANCH  25  26
HETATM   26  C19 UNL     1      -9.552  16.710  25.272  1.00  0.00     0.027 C
HETATM   27  C25 UNL     1     -10.864  16.641  24.473  1.00  0.00     0.018 C
HETATM   28  C26 UNL     1     -10.551  16.403  23.026  1.00  0.00     0.001 C
HETATM   29  C27 UNL     1     -10.219  14.942  22.763  1.00  0.00     0.000 C
HETATM   30  C28 UNL     1      -9.552  14.479  24.061  1.00  0.00     0.001 C
HETATM   31  C29 UNL     1      -8.701  15.578  24.651  1.00  0.00     0.018 C
BRANCH  26  32
HETATM   32  C20 UNL     1      -8.877  17.965  24.985  1.00  0.00     0.122 C
BRANCH  32  33
HETATM   33  O2  UNL     1      -9.238  19.038  25.643  1.00  0.00    -0.349 OA
ATOM     34  H2  UNL     1      -9.463  19.821  25.153  1.00  0.00     0.219 HD
ENDBRANCH  32  33
BRANCH  32  35
HETATM   35  N3  UNL     1      -7.841  18.227  24.047  1.00  0.00    -0.361 N
HETATM   36  C21 UNL     1      -6.538  18.613  24.604  1.00  0.00     0.151 C
HETATM   37  C22 UNL     1      -5.441  17.949  23.849  1.00  0.00     0.187 C
HETATM   38  O3  UNL     1      -5.622  17.840  22.484  1.00  0.00    -0.388 OA
HETATM   39  C23 UNL     1      -6.614  18.728  22.062  1.00  0.00     0.187 C
HETATM   40  C24 UNL     1      -7.928  18.152  22.631  1.00  0.00     0.151 C
ENDBRANCH  32  35
ENDBRANCH  26  32
ENDBRANCH  25  26
ENDBRANCH   1  25
BRANCH   1  41
HETATM   41  N4  UNL     1      -7.600  16.850  27.688  1.00  0.00    -0.333 N
HETATM   42  C30 UNL     1      -6.716  17.964  27.765  1.00  0.00     0.318 C
HETATM   43  O4  UNL     1      -7.235  19.110  27.826  1.00  0.00    -0.247 OA
HETATM   44  N5  UNL     1      -5.307  17.878  27.788  1.00  0.00    -0.343 N
HETATM   45  C31 UNL     1      -4.498  19.073  27.760  1.00  0.00     0.154 C
HETATM   46  C32 UNL     1      -4.637  16.604  27.930  1.00  0.00     0.154 C
ATOM     47  H4  UNL     1      -7.203  15.917  27.581  1.00  0.00     0.165 HD
ENDBRANCH   1  41
TORSDOF 13
ENDMDL