MODEL 5
REMARK VINA RESULT: -10.048507417      1.953      9.166
REMARK  11 active torsions:
REMARK  status: ('A' for Active; 'I' for Inactive)
REMARK    1  A    between atoms: O1_2  and  C2_3
REMARK       I    between atoms: C2_3  and  N1_5
REMARK    2  A    between atoms: N1_5  and  C3_6
REMARK    3  A    between atoms: C3_6  and  C4_7
REMARK    4  A    between atoms: C3_6  and  C25_36
REMARK       I    between atoms: C4_7  and  N2_9
REMARK    5  A    between atoms: N2_9  and  C5_11
REMARK    6  A    between atoms: C5_11  and  C6_12
REMARK    7  A    between atoms: C5_11  and  C10_16
REMARK    8  A    between atoms: C6_12  and  C7_13
REMARK       I    between atoms: C10_16  and  N3_18
REMARK    9  A    between atoms: N3_18  and  C11_20
REMARK   10  A    between atoms: C15_24  and  C16_25
REMARK       I    between atoms: C16_25  and  N4_27
REMARK   11  A    between atoms: N4_27  and  C17_28
ROOT
HETATM    1  C5  UNL     1     -10.290  16.165  26.506  1.00  0.00     0.081 C
ENDROOT
BRANCH   1   2
HETATM    2  N2  UNL     1      -9.597  15.930  27.674  1.00  0.00    -0.320 N
HETATM    3  C4  UNL     1      -9.555  17.015  28.600  1.00  0.00     0.283 C
HETATM    4  O3  UNL     1     -10.259  17.960  28.534  1.00  0.00    -0.265 OA
ATOM      5  H2  UNL     1      -9.144  15.037  27.865  1.00  0.00     0.169 HD
BRANCH   3   6
HETATM    6  C3  UNL     1      -8.455  16.967  29.705  1.00  0.00     0.163 C
BRANCH   6   7
HETATM    7  N1  UNL     1      -7.374  17.110  28.909  1.00  0.00    -0.344 NA
HETATM    8  C2  UNL     1      -6.246  17.221  28.114  1.00  0.00     0.439 C
HETATM    9  O2  UNL     1      -5.203  16.455  28.098  1.00  0.00    -0.221 OA
BRANCH   8  10
HETATM   10  O1  UNL     1      -6.166  18.206  27.230  1.00  0.00    -0.298 OA
HETATM   11  C1  UNL     1      -6.029  19.317  26.597  1.00  0.00     0.216 C
ENDBRANCH   8  10
ENDBRANCH   6   7
BRANCH   6  12
HETATM   12  C25 UNL     1      -8.880  17.044  31.021  1.00  0.00     0.064 C
HETATM   13  C26 UNL     1      -7.788  17.420  32.011  1.00  0.00     0.013 C
HETATM   14  C27 UNL     1      -8.488  17.702  33.344  1.00  0.00     0.001 C
HETATM   15  C28 UNL     1      -8.998  16.431  33.916  1.00  0.00     0.001 C
HETATM   16  C29 UNL     1      -8.978  15.361  32.890  1.00  0.00     0.009 C
HETATM   17  C30 UNL     1      -9.590  15.845  31.602  1.00  0.00    -0.037 C
HETATM   18  C31 UNL     1     -11.080  16.127  31.840  1.00  0.00     0.015 C
HETATM   19  C32 UNL     1      -9.581  14.630  30.641  1.00  0.00     0.015 C
ENDBRANCH   6  12
ENDBRANCH   3   6
ENDBRANCH   1   2
BRANCH   1  20
HETATM   20  C6  UNL     1     -11.709  15.515  26.498  1.00  0.00     0.067 C
BRANCH  20  21
HETATM   21  C7  UNL     1     -12.095  14.948  27.837  1.00  0.00    -0.017 C
HETATM   22  C8  UNL     1     -12.413  13.564  28.095  1.00  0.00     0.010 C
HETATM   23  C9  UNL     1     -13.140  15.856  28.477  1.00  0.00     0.010 C
ENDBRANCH  20  21
ENDBRANCH   1  20
BRANCH   1  24
HETATM   24  C10 UNL     1      -9.811  16.395  25.214  1.00  0.00     0.268 C
HETATM   25  O4  UNL     1     -10.372  16.117  24.173  1.00  0.00    -0.266 OA
HETATM   26  N3  UNL     1      -8.446  16.987  25.064  1.00  0.00    -0.329 N
ATOM     27  H3  UNL     1      -7.999  17.340  25.911  1.00  0.00     0.168 HD
BRANCH  26  28
HETATM   28  C11 UNL     1      -7.729  17.101  23.877  1.00  0.00    -0.005 C
HETATM   29  C12 UNL     1      -7.418  15.829  23.140  1.00  0.00     0.057 C
HETATM   30  C13 UNL     1      -7.487  16.257  21.641  1.00  0.00    -0.008 C
HETATM   31  C14 UNL     1      -6.361  17.203  21.467  1.00  0.00     0.021 C
HETATM   32  C24 UNL     1      -8.668  17.207  21.757  1.00  0.00     0.016 C
HETATM   33  C15 UNL     1      -6.868  18.555  22.071  1.00  0.00     0.102 C
HETATM   34  C23 UNL     1      -8.030  18.134  22.886  1.00  0.00     0.046 C
BRANCH  33  35
HETATM   35  C16 UNL     1      -5.701  19.177  22.854  1.00  0.00     0.291 C
HETATM   36  O5  UNL     1      -5.981  20.355  23.301  1.00  0.00    -0.257 OA
HETATM   37  N4  UNL     1      -4.625  18.481  22.971  1.00  0.00    -0.409 NA
BRANCH  37  38
HETATM   38  C17 UNL     1      -3.429  17.715  23.107  1.00  0.00     0.166 C
HETATM   39  C18 UNL     1      -2.310  18.335  22.328  1.00  0.00     0.039 C
HETATM   40  C19 UNL     1      -1.251  17.348  22.016  1.00  0.00     0.003 C
HETATM   41  C20 UNL     1      -1.417  16.060  22.847  1.00  0.00     0.000 C
HETATM   42  C21 UNL     1      -1.825  16.297  24.259  1.00  0.00     0.003 C
HETATM   43  C22 UNL     1      -2.905  17.302  24.452  1.00  0.00     0.039 C
ENDBRANCH  37  38
ENDBRANCH  33  35
ENDBRANCH  26  28
ENDBRANCH   1  24
TORSDOF 11
ENDMDL