MODEL 2
REMARK VINA RESULT: -7.468166816      4.959      7.445
REMARK  12 active torsions:
REMARK  status: ('A' for Active; 'I' for Inactive)
REMARK    1  A    between atoms: C1_2  and  C2_4
REMARK       I    between atoms: C2_4  and  N1_6
REMARK    2  A    between atoms: N1_6  and  N2_8
REMARK    3  A    between atoms: C8_21  and  O6_22
REMARK    4  A    between atoms: C8_21  and  C9_24
REMARK    5  A    between atoms: C9_24  and  S2_25
REMARK    6  A    between atoms: S2_25  and  C10_26
REMARK    7  A    between atoms: C11_31  and  C12_32
REMARK    8  A    between atoms: C12_32  and  O7_33
REMARK    9  A    between atoms: C12_32  and  C13_35
REMARK   10  A    between atoms: C13_35  and  N7_36
REMARK   11  A    between atoms: N7_36  and  O8_37
REMARK   12  A    between atoms: N7_36  and  O9_39
ROOT
HETATM    1  N2  UNL     1      14.126  -8.201  62.593  1.00  0.00    -0.283 N
ATOM      2  H2  UNL     1      14.545  -7.516  63.223  1.00  0.00     0.188 HD
HETATM    3  C3  UNL     1      13.324  -9.070  63.091  1.00  0.00     0.139 A
HETATM    4  N3  UNL     1      12.628 -10.105  62.431  1.00  0.00    -0.321 N
HETATM    5  C4  UNL     1      12.486 -10.628  61.103  1.00  0.00     0.151 C
HETATM    6  C5  UNL     1      12.851 -12.074  60.974  1.00  0.00     0.152 C
HETATM    7  N4  UNL     1      11.983 -12.971  61.682  1.00  0.00    -0.313 N
ATOM      8  H4  UNL     1      11.996 -13.984  61.562  1.00  0.00     0.172 HD
HETATM    9  S1  UNL     1      10.914 -12.147  62.759  1.00  0.00     0.274 S
HETATM   10  O4  UNL     1       9.678 -11.670  62.067  1.00  0.00    -0.199 OA
HETATM   11  O5  UNL     1      10.546 -13.112  63.848  1.00  0.00    -0.199 OA
HETATM   12  C6  UNL     1      11.844 -10.821  63.418  1.00  0.00     0.152 A
HETATM   13  C7  UNL     1      12.022 -10.293  64.600  1.00  0.00     0.063 A
HETATM   14  C8  UNL     1      12.950  -9.157  64.545  1.00  0.00     0.147 A
ENDROOT
BRANCH  14  15
HETATM   15  O6  UNL     1      12.245  -8.009  64.907  1.00  0.00    -0.377 OA
ATOM     16  H6  UNL     1      12.473  -7.769  65.797  1.00  0.00     0.211 HD
ENDBRANCH  14  15
BRANCH  14  17
HETATM   17  C9  UNL     1      14.150  -9.391  65.404  1.00  0.00     0.133 C
BRANCH  17  18
HETATM   18  S2  UNL     1      13.684  -9.247  67.140  1.00  0.00    -0.089 SA
BRANCH  18  19
HETATM   19  C10 UNL     1      13.867  -7.584  67.752  1.00  0.00     0.160 A
HETATM   20  N5  UNL     1      14.975  -6.970  68.187  1.00  0.00    -0.278 N
HETATM   21  N6  UNL     1      14.711  -5.726  68.549  1.00  0.00    -0.285 N
ATOM     22  H5  UNL     1      15.898  -7.403  68.233  1.00  0.00     0.189 HD
HETATM   23  C11 UNL     1      13.388  -5.490  68.354  1.00  0.00     0.128 A
ATOM     24  H6  UNL     1      15.388  -5.056  68.914  1.00  0.00     0.188 HD
HETATM   25  N8  UNL     1      12.890  -6.638  67.865  1.00  0.00    -0.322 N
ATOM     26  H8  UNL     1      11.912  -6.782  67.612  1.00  0.00     0.169 HD
BRANCH  23  27
HETATM   27  C12 UNL     1      12.683  -4.213  68.637  1.00  0.00     0.204 C
BRANCH  27  28
HETATM   28  O7  UNL     1      12.658  -3.402  67.492  1.00  0.00    -0.387 OA
ATOM     29  H7  UNL     1      13.251  -2.666  67.592  1.00  0.00     0.210 HD
ENDBRANCH  27  28
BRANCH  27  30
HETATM   30  C13 UNL     1      13.286  -3.442  69.766  1.00  0.00     0.192 C
BRANCH  30  31
HETATM   31  N7  UNL     1      14.134  -2.407  69.195  1.00  0.00    -0.071 NA
BRANCH  31  32
HETATM   32  O8  UNL     1      15.392  -2.860  69.019  1.00  0.00    -0.289 OA
ATOM     33  H8  UNL     1      15.896  -2.775  69.819  1.00  0.00     0.239 HD
ENDBRANCH  31  32
BRANCH  31  34
HETATM   34  O9  UNL     1      14.173  -1.294  69.939  1.00  0.00    -0.289 OA
ATOM     35  H9  UNL     1      14.512  -0.543  69.466  1.00  0.00     0.239 HD
ENDBRANCH  31  34
ENDBRANCH  30  31
ENDBRANCH  27  30
ENDBRANCH  23  27
ENDBRANCH  18  19
ENDBRANCH  17  18
ENDBRANCH  14  17
BRANCH   1  36
HETATM   36  N1  UNL     1      14.453  -8.140  61.257  1.00  0.00    -0.259 N
HETATM   37  C2  UNL     1      13.748  -7.336  60.321  1.00  0.00     0.336 C
HETATM   38  O3  UNL     1      12.788  -6.651  60.723  1.00  0.00    -0.259 OA
ATOM     39  H1  UNL     1      15.239  -8.699  60.923  1.00  0.00     0.190 HD
BRANCH  37  40
HETATM   40  C1  UNL     1      14.129  -7.305  58.935  1.00  0.00     0.271 C
HETATM   41  O1  UNL     1      14.959  -6.495  58.447  1.00  0.00    -0.640 OA
HETATM   42  O2  UNL     1      13.562  -8.219  58.031  1.00  0.00    -0.640 OA
ENDBRANCH  37  40
ENDBRANCH   1  36
TORSDOF 12
ENDMDL