MODEL 1
REMARK VINA RESULT: -6.642464518      0.000      0.000
REMARK  9 active torsions:
REMARK  status: ('A' for Active; 'I' for Inactive)
REMARK    1  A    between atoms: O1_2  and  C2_3
REMARK    2  A    between atoms: C2_3  and  C3_5
REMARK    3  A    between atoms: C3_5  and  N1_6
REMARK    4  A    between atoms: C9_16  and  N3_17
REMARK    5  A    between atoms: N3_17  and  N4_19
REMARK       I    between atoms: N4_19  and  C10_21
REMARK    6  A    between atoms: C10_21  and  C11_23
REMARK    7  A    between atoms: C11_23  and  N5_24
REMARK    8  A    between atoms: C11_23  and  C12_28
REMARK    9  A    between atoms: C14_33  and  C15_34
ROOT
HETATM    1  N4  UNL     1      12.357 -12.896  64.616  1.00  0.00    -0.271 N
ATOM      2  H4  UNL     1      13.347 -12.893  64.861  1.00  0.00     0.189 HD
HETATM    3  C10 UNL     1      11.876 -13.957  63.827  1.00  0.00     0.268 C
HETATM    4  O5  UNL     1      10.680 -14.020  63.497  1.00  0.00    -0.269 OA
ENDROOT
BRANCH   1   5
HETATM    5  N3  UNL     1      11.592 -11.884  65.071  1.00  0.00    -0.316 N
ATOM      6  H3  UNL     1      10.637 -12.054  65.389  1.00  0.00     0.181 HD
BRANCH   5   7
HETATM    7  C9  UNL     1      12.152 -10.560  65.098  1.00  0.00     0.201 A
HETATM    8  C8  UNL     1      11.681  -9.696  63.992  1.00  0.00     0.202 A
HETATM    9  N2  UNL     1      12.702  -9.195  63.168  1.00  0.00    -0.276 N
HETATM   10  S1  UNL     1      10.345 -10.499  63.032  1.00  0.00    -0.066 SA
HETATM   11  C6  UNL     1      13.949  -9.588  63.369  1.00  0.00     0.084 A
HETATM   12  C7  UNL     1      12.539  -8.300  62.130  1.00  0.00     0.334 A
HETATM   13  C5  UNL     1      15.047  -9.177  62.640  1.00  0.00     0.112 A
HETATM   14  S2  UNL     1      13.918 -10.733  64.735  1.00  0.00    -0.082 SA
HETATM   15  C4  UNL     1      14.853  -8.282  61.608  1.00  0.00     0.254 A
HETATM   16  N1  UNL     1      13.567  -7.891  61.416  1.00  0.00    -0.257 N
HETATM   17  O3  UNL     1      15.790  -7.856  60.893  1.00  0.00    -0.268 OA
HETATM   18  O4  UNL     1      11.399  -7.857  61.844  1.00  0.00    -0.246 OA
BRANCH  16  19
HETATM   19  C3  UNL     1      13.342  -6.952  60.320  1.00  0.00     0.248 C
BRANCH  19  20
HETATM   20  C2  UNL     1      12.755  -7.713  59.192  1.00  0.00     0.277 C
HETATM   21  O2  UNL     1      13.379  -8.687  58.654  1.00  0.00    -0.263 OA
BRANCH  20  22
HETATM   22  O1  UNL     1      11.501  -7.400  58.673  1.00  0.00    -0.325 OA
HETATM   23  C1  UNL     1      10.936  -6.128  58.897  1.00  0.00     0.213 C
ENDBRANCH  20  22
ENDBRANCH  19  20
ENDBRANCH  16  19
ENDBRANCH   5   7
ENDBRANCH   1   5
BRANCH   3  24
HETATM   24  C11 UNL     1      12.796 -15.046  63.356  1.00  0.00     0.308 C
BRANCH  24  25
HETATM   25  N5  UNL     1      12.033 -16.208  62.969  1.00  0.00    -0.064 N
ATOM     26  H53 UNL     1      11.468 -16.567  63.738  1.00  0.00     0.275 HD
ATOM     27  H52 UNL     1      11.278 -15.972  62.325  1.00  0.00     0.275 HD
ATOM     28  H51 UNL     1      12.652 -16.923  62.585  1.00  0.00     0.275 HD
ENDBRANCH  24  25
BRANCH  24  29
HETATM   29  C12 UNL     1      13.629 -14.553  62.187  1.00  0.00     0.251 C
HETATM   30  C13 UNL     1      14.135 -15.745  61.435  1.00  0.00     0.269 C
HETATM   31  N6  UNL     1      13.712 -15.698  60.034  1.00  0.00    -0.057 N
HETATM   32  C14 UNL     1      14.242 -14.458  59.488  1.00  0.00     0.311 C
ATOM     33  H62 UNL     1      13.984 -16.524  59.502  1.00  0.00     0.278 HD
ATOM     34  H61 UNL     1      12.704 -15.796  59.913  1.00  0.00     0.278 HD
HETATM   35  C16 UNL     1      13.652 -13.270  60.208  1.00  0.00     0.277 C
HETATM   36  N7  UNL     1      12.848 -13.658  61.349  1.00  0.00    -0.064 N
ATOM     37  H72 UNL     1      11.952 -14.063  61.075  1.00  0.00     0.277 HD
ATOM     38  H71 UNL     1      12.489 -12.855  61.864  1.00  0.00     0.277 HD
BRANCH  32  39
HETATM   39  C15 UNL     1      14.032 -14.379  58.022  1.00  0.00     0.206 C
HETATM   40  O6  UNL     1      14.941 -14.206  57.201  1.00  0.00    -0.646 OA
HETATM   41  O7  UNL     1      12.733 -14.508  57.565  1.00  0.00    -0.646 OA
ENDBRANCH  32  39
ENDBRANCH  24  29
ENDBRANCH   3  24
TORSDOF 9
ENDMDL