MODEL 2
REMARK VINA RESULT: -7.859087132      2.168      7.906
REMARK  9 active torsions:
REMARK  status: ('A' for Active; 'I' for Inactive)
REMARK    1  A    between atoms: C2_7  and  N3_8
REMARK    2  A    between atoms: C5_11  and  N4_12
REMARK    3  A    between atoms: N4_12  and  O1_14
REMARK    4  A    between atoms: O1_14  and  C6_15
REMARK    5  A    between atoms: C6_15  and  C7_16
REMARK    6  A    between atoms: C7_16  and  N5_17
REMARK    7  A    between atoms: N5_17  and  C8_19
REMARK    8  A    between atoms: N6_21  and  C10_22
REMARK    9  A    between atoms: C13_31  and  C14_32
ROOT
HETATM    1  C7  UNL     1       8.558 -12.955  62.303  1.00  0.00     0.144 C
ENDROOT
BRANCH   1   2
HETATM    2  C6  UNL     1       7.793 -13.163  60.922  1.00  0.00     0.220 C
BRANCH   2   3
HETATM    3  O1  UNL     1       8.876 -13.587  60.191  1.00  0.00    -0.283 OA
BRANCH   3   4
HETATM    4  N4  UNL     1       8.903 -14.791  59.820  1.00  0.00    -0.296 N
ATOM      5  H4  UNL     1       8.048 -15.274  59.540  1.00  0.00     0.188 HD
BRANCH   4   6
HETATM    6  C5  UNL     1      10.132 -15.447  59.804  1.00  0.00     0.125 C
HETATM    7  C4  UNL     1       9.937 -16.880  59.247  1.00  0.00     0.048 C
HETATM    8  C3  UNL     1      11.342 -17.214  58.900  1.00  0.00     0.126 C
HETATM    9  N3  UNL     1      11.823 -15.940  58.275  1.00  0.00    -0.365 N
HETATM   10  C16 UNL     1      11.023 -14.864  58.663  1.00  0.00     0.151 C
BRANCH   9  11
HETATM   11  C2  UNL     1      12.989 -16.108  57.422  1.00  0.00     0.124 A
HETATM   12  N2  UNL     1      13.138 -17.127  56.650  1.00  0.00    -0.177 N
HETATM   13  C1  UNL     1      14.349 -17.418  56.067  1.00  0.00     0.680 A
ATOM     14  H2  UNL     1      12.339 -17.733  56.467  1.00  0.00     0.185 HD
HETATM   15  N1  UNL     1      14.538 -18.468  55.392  1.00  0.00    -0.234 N
HETATM   16  N12 UNL     1      15.313 -16.575  56.379  1.00  0.00    -0.156 N
ATOM     17  H12 UNL     1      13.792 -19.121  55.151  1.00  0.00     0.174 HD
ATOM     18  H11 UNL     1      15.436 -18.683  54.959  1.00  0.00     0.174 HD
HETATM   19  C18 UNL     1      15.265 -15.495  57.145  1.00  0.00     0.263 A
ATOM     20  H12 UNL     1      16.225 -16.783  55.973  1.00  0.00     0.187 HD
HETATM   21  C17 UNL     1      13.999 -15.203  57.729  1.00  0.00     0.123 A
HETATM   22  O4  UNL     1      16.188 -14.730  57.399  1.00  0.00    -0.268 OA
ENDBRANCH   9  11
ENDBRANCH   4   6
ENDBRANCH   3   4
ENDBRANCH   2   3
ENDBRANCH   1   2
BRANCH   1  23
HETATM   23  N5  UNL     1       9.391 -11.847  62.162  1.00  0.00    -0.392 N
ATOM     24  H5  UNL     1       8.963 -10.990  61.813  1.00  0.00     0.155 HD
BRANCH  23  25
HETATM   25  C8  UNL     1      10.739 -11.797  62.449  1.00  0.00     0.300 C
HETATM   26  C9  UNL     1      11.235 -10.358  62.605  1.00  0.00     0.180 C
HETATM   27  N6  UNL     1      12.452 -10.334  61.793  1.00  0.00    -0.341 N
HETATM   28  C15 UNL     1      12.865 -11.673  61.689  1.00  0.00     0.360 C
HETATM   29  N11 UNL     1      11.573 -12.364  61.388  1.00  0.00    -0.037 N
ATOM     30 2H11 UNL     1      11.611 -13.383  61.345  1.00  0.00     0.281 HD
ATOM     31 1H11 UNL     1      11.221 -12.259  60.437  1.00  0.00     0.281 HD
BRANCH  27  32
HETATM   32  C10 UNL     1      12.915  -9.103  61.292  1.00  0.00     0.121 C
HETATM   33  N7  UNL     1      12.069  -8.572  60.402  1.00  0.00    -0.318 N
HETATM   34  C11 UNL     1      12.111  -7.372  59.678  1.00  0.00     0.191 C
ATOM     35  H7  UNL     1      11.244  -9.143  60.218  1.00  0.00     0.170 HD
HETATM   36  N8  UNL     1      11.057  -7.133  58.750  1.00  0.00    -0.063 NA
HETATM   37  N9  UNL     1      12.999  -6.455  59.868  1.00  0.00    -0.343 N
HETATM   38  C12 UNL     1      14.082  -6.318  60.777  1.00  0.00     0.294 C
ATOM     39  H9  UNL     1      12.904  -5.663  59.232  1.00  0.00     0.164 HD
HETATM   40  O2  UNL     1      13.897  -7.099  61.914  1.00  0.00    -0.350 OA
HETATM   41  C13 UNL     1      14.160  -8.467  61.676  1.00  0.00     0.279 C
BRANCH  41  42
HETATM   42  C14 UNL     1      14.769  -8.953  62.928  1.00  0.00     0.267 C
HETATM   43  N10 UNL     1      14.177  -8.451  64.106  1.00  0.00    -0.059 NA
HETATM   44  O3  UNL     1      15.715  -9.745  62.936  1.00  0.00    -0.273 OA
ENDBRANCH  41  42
ENDBRANCH  27  32
ENDBRANCH  23  25
ENDBRANCH   1  23
TORSDOF 9
ENDMDL