MODEL 5
REMARK VINA RESULT: -7.501254666      1.939      2.430
REMARK  11 active torsions:
REMARK  status: ('A' for Active; 'I' for Inactive)
REMARK    1  A    between atoms: N1_1  and  C1_4
REMARK    2  A    between atoms: C3_8  and  C4_9
REMARK    3  A    between atoms: C4_9  and  O2_11
REMARK    4  A    between atoms: O2_11  and  C5_12
REMARK    5  A    between atoms: C6_16  and  O3_17
REMARK    6  A    between atoms: C7_19  and  O4_20
REMARK    7  A    between atoms: O4_20  and  N4_21
REMARK    8  A    between atoms: C9_25  and  N5_26
REMARK    9  A    between atoms: C14_35  and  C15_36
REMARK   10  A    between atoms: C15_36  and  S1_37
REMARK   11  A    between atoms: S1_37  and  N7_38
ROOT
HETATM    1  C5  UNL     1      13.904  -9.342  61.041  1.00  0.00     0.356 C
HETATM    2  N3  UNL     1      14.949  -8.845  60.166  1.00  0.00    -0.018 N
ATOM      3  H31 UNL     1      15.310  -9.591  59.571  1.00  0.00     0.283 HD
ATOM      4  H32 UNL     1      15.795  -8.630  60.696  1.00  0.00     0.283 HD
HETATM    5  C6  UNL     1      14.544  -7.729  59.389  1.00  0.00     0.353 C
HETATM    6  C7  UNL     1      13.795  -6.667  60.092  1.00  0.00     0.217 C
HETATM    7  C8  UNL     1      12.969  -7.132  61.259  1.00  0.00     0.069 C
HETATM    8  C9  UNL     1      13.629  -8.241  62.036  1.00  0.00     0.153 C
ENDROOT
BRANCH   1   9
HETATM    9  O2  UNL     1      14.188 -10.567  61.610  1.00  0.00    -0.280 OA
BRANCH   9  10
HETATM   10  C4  UNL     1      13.307 -11.666  61.494  1.00  0.00     0.314 C
HETATM   11  O1  UNL     1      13.184 -12.089  60.345  1.00  0.00    -0.257 OA
BRANCH  10  12
HETATM   12  C3  UNL     1      12.664 -12.161  62.702  1.00  0.00     0.132 A
HETATM   13  N2  UNL     1      13.439 -12.445  63.778  1.00  0.00    -0.356 N
HETATM   14  C2  UNL     1      12.936 -12.907  64.924  1.00  0.00     0.136 A
ATOM     15  H2  UNL     1      14.446 -12.299  63.708  1.00  0.00     0.165 HD
HETATM   16  C1  UNL     1      11.584 -13.104  65.025  1.00  0.00     0.114 A
HETATM   17  N8  UNL     1      10.756 -12.837  63.981  1.00  0.00    -0.342 N
HETATM   18  C14 UNL     1      11.312 -12.375  62.852  1.00  0.00     0.057 A
ATOM     19  H8  UNL     1       9.749 -12.983  64.053  1.00  0.00     0.167 HD
BRANCH  16  20
HETATM   20  N1  UNL     1      11.021 -13.549  66.102  1.00  0.00    -0.384 N
ATOM     21  H12 UNL     1      10.035 -13.321  66.223  1.00  0.00     0.157 HD
ATOM     22  H11 UNL     1      11.523 -14.098  66.799  1.00  0.00     0.157 HD
ENDBRANCH  16  20
BRANCH  18  23
HETATM   23  C15 UNL     1      10.463 -12.046  61.696  1.00  0.00     0.191 C
BRANCH  23  24
HETATM   24  S1  UNL     1       8.721 -12.235  61.986  1.00  0.00     0.113 S
HETATM   25  O9  UNL     1       8.221 -11.397  63.120  1.00  0.00    -0.236 OA
BRANCH  24  26
HETATM   26  N7  UNL     1       8.225 -13.849  62.187  1.00  0.00    -0.349 NA
ATOM     27  H72 UNL     1       8.534 -14.203  63.092  1.00  0.00     0.166 HD
ATOM     28  H71 UNL     1       8.480 -14.460  61.411  1.00  0.00     0.166 HD
ENDBRANCH  24  26
ENDBRANCH  23  24
ENDBRANCH  18  23
ENDBRANCH  10  12
ENDBRANCH   9  10
ENDBRANCH   1   9
BRANCH   8  29
HETATM   29  N5  UNL     1      12.809  -8.621  63.140  1.00  0.00    -0.300 N
HETATM   30  C10 UNL     1      11.479  -8.700  63.065  1.00  0.00     0.102 A
HETATM   31  C11 UNL     1      10.722  -9.067  64.143  1.00  0.00     0.092 A
HETATM   32  C12 UNL     1      11.361  -9.365  65.338  1.00  0.00     0.250 A
HETATM   33  O7  UNL     1      10.716  -9.712  66.376  1.00  0.00    -0.268 OA
HETATM   34  N6  UNL     1      12.689  -9.282  65.396  1.00  0.00    -0.275 N
HETATM   35  C13 UNL     1      13.396  -8.918  64.316  1.00  0.00     0.329 A
ATOM     36  H6  UNL     1      13.173  -9.497  66.267  1.00  0.00     0.173 HD
HETATM   37  O8  UNL     1      14.648  -8.858  64.437  1.00  0.00    -0.246 OA
ENDBRANCH   8  29
BRANCH   5  38
HETATM   38  O3  UNL     1      13.878  -8.221  58.243  1.00  0.00    -0.368 OA
ATOM     39  H3  UNL     1      12.944  -8.117  58.383  1.00  0.00     0.212 HD
ENDBRANCH   5  38
BRANCH   6  40
HETATM   40  O4  UNL     1      12.872  -6.093  59.156  1.00  0.00    -0.211 OA
BRANCH  40  41
HETATM   41  N4  UNL     1      11.551  -6.406  59.128  1.00  0.00     0.005 N
HETATM   42  O5  UNL     1      10.721  -5.480  59.080  1.00  0.00    -0.511 OA
HETATM   43  O6  UNL     1      11.143  -7.706  59.153  1.00  0.00    -0.511 OA
ENDBRANCH  40  41
ENDBRANCH   6  40
TORSDOF 11
ENDMDL