MODEL 1
REMARK VINA RESULT: -6.219221192      0.000      0.000
REMARK  13 active torsions:
REMARK  status: ('A' for Active; 'I' for Inactive)
REMARK    1  A    between atoms: C3_3  and  C4_4
REMARK    2  A    between atoms: C5_7  and  N1_8
REMARK    3  A    between atoms: N1_8  and  N2_9
REMARK       I    between atoms: N1_8  and  C12_40
REMARK    4  A    between atoms: N2_9  and  C6_11
REMARK    5  A    between atoms: C6_11  and  C10_28
REMARK    6  A    between atoms: N3_12  and  N4_14
REMARK       I    between atoms: N4_14  and  C7_16
REMARK    7  A    between atoms: C7_16  and  C8_18
REMARK    8  A    between atoms: C8_18  and  N5_19
REMARK    9  A    between atoms: C8_18  and  C9_23
REMARK   10  A    between atoms: C9_23  and  N6_24
REMARK   11  A    between atoms: C10_28  and  O4_29
REMARK   12  A    between atoms: C10_28  and  C11_31
REMARK   13  A    between atoms: C12_40  and  O6_42
ROOT
HETATM    1  C6  UNL     1      11.574 -11.665  63.087  1.00  0.00     0.148 C
HETATM    2  N3  UNL     1      10.601 -12.528  63.125  1.00  0.00    -0.283 N
ATOM      3  H3  UNL     1      10.570 -13.193  63.898  1.00  0.00     0.188 HD
ENDROOT
BRANCH   1   4
HETATM    4  N2  UNL     1      11.662 -10.729  62.044  1.00  0.00    -0.278 N
ATOM      5  H2  UNL     1      10.955  -9.996  62.001  1.00  0.00     0.189 HD
BRANCH   4   6
HETATM    6  N1  UNL     1      12.680 -10.737  61.036  1.00  0.00    -0.227 N
HETATM    7  C12 UNL     1      12.977 -12.033  60.550  1.00  0.00     0.381 C
HETATM    8  O5  UNL     1      13.861 -12.205  59.684  1.00  0.00    -0.236 OA
BRANCH   6   9
HETATM    9  C5  UNL     1      13.239  -9.514  60.648  1.00  0.00     0.159 C
HETATM   10  C3  UNL     1      14.607  -9.139  61.095  1.00  0.00     0.162 C
HETATM   11  C2  UNL     1      14.715  -7.775  60.424  1.00  0.00     0.016 C
HETATM   12  C1  UNL     1      15.819  -7.132  60.133  1.00  0.00     0.039 C
HETATM   13  N11 UNL     1      13.405  -7.313  60.163  1.00  0.00    -0.354 N
HETATM   14  C14 UNL     1      12.484  -8.253  60.833  1.00  0.00     0.136 C
HETATM   15  C16 UNL     1      12.508  -6.345  59.536  1.00  0.00     0.293 C
HETATM   16  C15 UNL     1      11.254  -8.085  60.010  1.00  0.00     0.197 C
HETATM   17  O7  UNL     1      11.539  -7.210  58.996  1.00  0.00    -0.370 OA
BRANCH  10  18
HETATM   18  C4  UNL     1      14.902  -8.922  62.481  1.00  0.00     0.185 C
HETATM   19  O1  UNL     1      15.727  -9.648  63.085  1.00  0.00    -0.647 OA
HETATM   20  O2  UNL     1      14.290  -7.909  63.194  1.00  0.00    -0.647 OA
ENDBRANCH  10  18
ENDBRANCH   6   9
BRANCH   7  21
HETATM   21  O6  UNL     1      12.329 -13.181  60.985  1.00  0.00    -0.308 OA
HETATM   22  C13 UNL     1      13.051 -14.390  61.051  1.00  0.00     0.215 C
ENDBRANCH   7  21
ENDBRANCH   4   6
ENDBRANCH   1   4
BRANCH   1  23
HETATM   23  C10 UNL     1      12.558 -11.678  64.174  1.00  0.00     0.258 C
BRANCH  23  24
HETATM   24  O4  UNL     1      13.848 -12.019  63.697  1.00  0.00    -0.380 OA
ATOM     25  H4  UNL     1      14.515 -11.848  64.352  1.00  0.00     0.211 HD
ENDBRANCH  23  24
BRANCH  23  26
HETATM   26  C11 UNL     1      12.713 -10.353  64.846  1.00  0.00     0.150 A
HETATM   27  N7  UNL     1      11.900  -9.316  64.902  1.00  0.00    -0.270 N
HETATM   28  N8  UNL     1      12.474  -8.374  65.616  1.00  0.00    -0.227 N
ATOM     29  H7  UNL     1      10.980  -9.256  64.464  1.00  0.00     0.190 HD
HETATM   30  N9  UNL     1      13.647  -8.832  66.002  1.00  0.00    -0.227 N
ATOM     31  H8  UNL     1      12.082  -7.458  65.832  1.00  0.00     0.210 HD
HETATM   32  N10 UNL     1      13.833 -10.055  65.545  1.00  0.00    -0.270 N
ATOM     33  H9  UNL     1      14.316  -8.314  66.572  1.00  0.00     0.210 HD
ATOM     34  H10 UNL     1      14.649 -10.651  65.688  1.00  0.00     0.190 HD
ENDBRANCH  23  26
ENDBRANCH   1  23
BRANCH   2  35
HETATM   35  N4  UNL     1       9.596 -12.586  62.153  1.00  0.00    -0.267 N
HETATM   36  C7  UNL     1       9.063 -13.792  61.657  1.00  0.00     0.268 C
HETATM   37  O3  UNL     1       9.482 -14.888  62.079  1.00  0.00    -0.269 OA
ATOM     38  H4  UNL     1       9.230 -11.708  61.785  1.00  0.00     0.190 HD
BRANCH  36  39
HETATM   39  C8  UNL     1       8.002 -13.775  60.632  1.00  0.00     0.301 C
BRANCH  39  40
HETATM   40  N5  UNL     1       6.803 -14.371  61.172  1.00  0.00    -0.065 N
ATOM     41  H53 UNL     1       6.064 -13.683  61.324  1.00  0.00     0.275 HD
ATOM     42  H52 UNL     1       6.320 -14.954  60.489  1.00  0.00     0.275 HD
ATOM     43  H51 UNL     1       7.033 -14.883  62.024  1.00  0.00     0.275 HD
ENDBRANCH  39  40
BRANCH  39  44
HETATM   44  C9  UNL     1       8.436 -14.544  59.382  1.00  0.00     0.272 C
BRANCH  44  45
HETATM   45  N6  UNL     1       9.862 -14.418  59.199  1.00  0.00    -0.077 N
ATOM     46  H63 UNL     1      10.373 -15.194  59.622  1.00  0.00     0.274 HD
ATOM     47  H62 UNL     1      10.138 -14.569  58.229  1.00  0.00     0.274 HD
ATOM     48  H61 UNL     1      10.179 -13.515  59.552  1.00  0.00     0.274 HD
ENDBRANCH  44  45
ENDBRANCH  39  44
ENDBRANCH  36  39
ENDBRANCH   2  35
TORSDOF 13
ENDMDL