MODEL 4
REMARK VINA RESULT: -6.436299296      3.945      8.961
REMARK  12 active torsions:
REMARK  status: ('A' for Active; 'I' for Inactive)
REMARK    1  A    between atoms: N1_1  and  C1_4
REMARK    2  A    between atoms: C4_9  and  N3_10
REMARK    3  A    between atoms: N4_13  and  C7_14
REMARK    4  A    between atoms: C7_14  and  C8_15
REMARK    5  A    between atoms: C8_15  and  O1_16
REMARK    6  A    between atoms: N7_28  and  N8_30
REMARK    7  A    between atoms: N8_30  and  C12_32
REMARK    8  A    between atoms: C12_32  and  C13_33
REMARK    9  A    between atoms: C13_33  and  N9_34
REMARK   10  A    between atoms: C15_38  and  N11_39
REMARK   11  A    between atoms: C16_44  and  N13_45
REMARK   12  A    between atoms: N13_45  and  N14_47
ROOT
HETATM    1  C1  UNL     1      10.401  -8.330  65.517  1.00  0.00     0.678 A
HETATM    2  N2  UNL     1      10.981  -8.997  66.523  1.00  0.00    -0.186 N
ATOM      3  H2  UNL     1      10.579  -8.947  67.459  1.00  0.00     0.184 HD
HETATM    4  C2  UNL     1      12.114  -9.748  66.309  1.00  0.00     0.122 A
HETATM    5  C3  UNL     1      12.581  -9.757  65.027  1.00  0.00     0.155 A
HETATM    6  C4  UNL     1      11.985  -9.068  63.975  1.00  0.00     0.145 A
HETATM    7  N5  UNL     1      10.886  -8.359  64.259  1.00  0.00    -0.175 N
ATOM      8  H5  UNL     1      10.413  -7.837  63.521  1.00  0.00     0.186 HD
HETATM    9  S1  UNL     1      14.014 -10.790  65.051  1.00  0.00     0.270 S
HETATM   10  O2  UNL     1      13.747 -12.030  64.241  1.00  0.00    -0.200 OA
HETATM   11  O3  UNL     1      15.239 -10.081  64.630  1.00  0.00    -0.200 OA
HETATM   12  N6  UNL     1      13.987 -11.178  66.718  1.00  0.00    -0.263 N
ATOM     13  H6  UNL     1      14.650 -11.770  67.219  1.00  0.00     0.180 HD
HETATM   14  C11 UNL     1      12.872 -10.523  67.257  1.00  0.00     0.159 A
HETATM   15  N7  UNL     1      12.585 -10.638  68.533  1.00  0.00    -0.287 N
ATOM     16  H7  UNL     1      13.176 -11.209  69.137  1.00  0.00     0.188 HD
ENDROOT
BRANCH  15  17
HETATM   17  N8  UNL     1      11.449  -9.969  69.076  1.00  0.00    -0.333 N
ATOM     18  H8  UNL     1      10.514 -10.273  68.806  1.00  0.00     0.180 HD
BRANCH  17  19
HETATM   19  C12 UNL     1      11.591  -8.890  69.983  1.00  0.00     0.160 C
BRANCH  19  20
HETATM   20  C13 UNL     1      10.905  -7.613  69.623  1.00  0.00     0.169 C
BRANCH  20  21
HETATM   21  N9  UNL     1      11.780  -6.546  69.243  1.00  0.00    -0.175 N
HETATM   22  C14 UNL     1      13.099  -6.890  69.118  1.00  0.00     0.218 A
HETATM   23  N10 UNL     1      14.034  -5.961  68.817  1.00  0.00    -0.187 N
HETATM   24  C15 UNL     1      13.699  -4.674  68.631  1.00  0.00     0.691 A
ATOM     25  H10 UNL     1      15.010  -6.243  68.729  1.00  0.00     0.185 HD
HETATM   26  N12 UNL     1      12.405  -4.356  68.757  1.00  0.00    -0.021 N
HETATM   27  C16 UNL     1      11.439  -5.273  69.059  1.00  0.00     0.714 A
ATOM     28  H12 UNL     1      12.128  -3.383  68.622  1.00  0.00     0.203 HD
BRANCH  24  29
HETATM   29  N11 UNL     1      14.614  -3.817  68.348  1.00  0.00    -0.234 N
ATOM     30 2H11 UNL     1      14.980  -3.676  67.407  1.00  0.00     0.174 HD
ATOM     31 1H11 UNL     1      15.007  -3.238  69.091  1.00  0.00     0.174 HD
ENDBRANCH  24  29
BRANCH  27  32
HETATM   32  N13 UNL     1      10.200  -4.931  69.119  1.00  0.00    -0.138 N
ATOM     33  H13 UNL     1       9.490  -5.661  69.169  1.00  0.00     0.205 HD
BRANCH  32  34
HETATM   34  N14 UNL     1       9.796  -3.595  69.120  1.00  0.00    -0.331 N
ATOM     35 2H14 UNL     1      10.425  -2.907  69.533  1.00  0.00     0.177 HD
ATOM     36 1H14 UNL     1       8.905  -3.296  68.725  1.00  0.00     0.177 HD
ENDBRANCH  32  34
ENDBRANCH  27  32
ENDBRANCH  20  21
ENDBRANCH  19  20
ENDBRANCH  17  19
ENDBRANCH  15  17
BRANCH   1  37
HETATM   37  N1  UNL     1       9.336  -7.622  65.711  1.00  0.00    -0.234 N
ATOM     38  H12 UNL     1       8.459  -8.008  65.360  1.00  0.00     0.174 HD
ATOM     39  H11 UNL     1       9.381  -6.725  66.194  1.00  0.00     0.174 HD
ENDBRANCH   1  37
BRANCH   6  40
HETATM   40  N3  UNL     1      12.538  -9.126  62.668  1.00  0.00    -0.362 N
HETATM   41  C5  UNL     1      12.006 -10.077  61.735  1.00  0.00     0.154 C
HETATM   42  C6  UNL     1      13.115 -10.560  60.845  1.00  0.00     0.292 C
HETATM   43  N4  UNL     1      13.762  -9.436  60.251  1.00  0.00     0.093 N
HETATM   44  C9  UNL     1      14.471  -8.667  61.227  1.00  0.00     0.292 C
HETATM   45  C10 UNL     1      13.608  -8.206  62.369  1.00  0.00     0.154 C
BRANCH  43  46
HETATM   46  C7  UNL     1      12.924  -8.607  59.441  1.00  0.00     0.298 C
BRANCH  46  47
HETATM   47  C8  UNL     1      13.726  -7.583  58.664  1.00  0.00     0.194 C
BRANCH  47  48
HETATM   48  O1  UNL     1      14.344  -8.193  57.572  1.00  0.00    -0.399 OA
ATOM     49  H1  UNL     1      14.397  -7.582  56.847  1.00  0.00     0.209 HD
ENDBRANCH  47  48
ENDBRANCH  46  47
ENDBRANCH  43  46
ENDBRANCH   6  40
TORSDOF 12
ENDMDL