MODEL 3
REMARK VINA RESULT: -5.446669804      3.189      5.365
REMARK  13 active torsions:
REMARK  status: ('A' for Active; 'I' for Inactive)
REMARK    1  A    between atoms: O1_2  and  C2_3
REMARK    2  A    between atoms: C2_3  and  C3_5
REMARK    3  A    between atoms: C3_5  and  O3_6
REMARK    4  A    between atoms: C7_11  and  S1_12
REMARK    5  A    between atoms: C10_18  and  C11_19
REMARK    6  A    between atoms: C11_19  and  N1_20
REMARK    7  A    between atoms: N1_20  and  N2_22
REMARK    8  A    between atoms: N2_22  and  N3_23
REMARK    9  A    between atoms: C13_26  and  N4_27
REMARK   10  A    between atoms: C15_29  and  C16_30
REMARK   11  A    between atoms: C16_30  and  N5_31
REMARK   12  A    between atoms: N5_31  and  N6_32
REMARK   13  A    between atoms: C17_39  and  O7_40
ROOT
HETATM    1  C3  UNL     1      10.542  -8.809  65.488  1.00  0.00     0.203 C
HETATM    2  C4  UNL     1       9.199  -9.200  66.024  1.00  0.00    -0.039 C
HETATM    3  C5  UNL     1       8.238  -8.129  66.493  1.00  0.00     0.047 C
HETATM    4  C6  UNL     1       8.852 -10.457  66.088  1.00  0.00     0.003 C
HETATM    5  C7  UNL     1       9.647 -11.626  65.680  1.00  0.00     0.164 C
HETATM    6  C8  UNL     1      11.066 -11.200  65.419  1.00  0.00     0.074 C
HETATM    7  C9  UNL     1      11.711 -12.073  64.353  1.00  0.00    -0.011 C
HETATM    8  C10 UNL     1      12.459 -11.328  63.571  1.00  0.00    -0.041 C
HETATM    9  C13 UNL     1      12.364  -9.893  64.070  1.00  0.00     0.178 C
HETATM   10  C17 UNL     1      10.985  -9.918  64.629  1.00  0.00     0.137 C
ENDROOT
BRANCH   9  11
HETATM   11  N4  UNL     1      12.630  -8.962  63.036  1.00  0.00    -0.275 N
HETATM   12  C14 UNL     1      13.652  -8.173  62.736  1.00  0.00     0.140 A
HETATM   13  C15 UNL     1      13.359  -7.473  61.605  1.00  0.00     0.060 A
HETATM   14  N7  UNL     1      12.138  -7.858  61.230  1.00  0.00    -0.288 N
HETATM   15  N8  UNL     1      11.708  -8.739  62.078  1.00  0.00    -0.240 N
ATOM     16  H7  UNL     1      11.628  -7.517  60.415  1.00  0.00     0.188 HD
ATOM     17  H8  UNL     1      10.800  -9.200  62.027  1.00  0.00     0.208 HD
BRANCH  13  18
HETATM   18  C16 UNL     1      14.151  -6.474  60.853  1.00  0.00     0.194 C
BRANCH  18  19
HETATM   19  N5  UNL     1      13.929  -6.692  59.418  1.00  0.00    -0.142 NA
BRANCH  19  20
HETATM   20  N6  UNL     1      14.984  -7.460  58.904  1.00  0.00    -0.348 N
ATOM     21  H62 UNL     1      14.974  -8.475  58.818  1.00  0.00     0.172 HD
ATOM     22  H61 UNL     1      15.747  -6.838  58.636  1.00  0.00     0.172 HD
ENDBRANCH  19  20
ENDBRANCH  18  19
ENDBRANCH  13  18
ENDBRANCH   9  11
BRANCH   8  23
HETATM   23  C11 UNL     1      13.251 -11.796  62.419  1.00  0.00     0.147 C
BRANCH  23  24
HETATM   24  N1  UNL     1      12.444 -11.816  61.234  1.00  0.00    -0.215 NA
HETATM   25  C12 UNL     1      12.379 -13.163  60.722  1.00  0.00     0.134 C
BRANCH  24  26
HETATM   26  N2  UNL     1      12.808 -10.860  60.313  1.00  0.00    -0.056 NA
BRANCH  26  27
HETATM   27  N3  UNL     1      14.201 -10.759  60.312  1.00  0.00    -0.333 N
ATOM     28  H32 UNL     1      14.824 -11.237  60.963  1.00  0.00     0.173 HD
ATOM     29  H31 UNL     1      14.477 -10.133  59.555  1.00  0.00     0.173 HD
ENDBRANCH  26  27
ENDBRANCH  24  26
ENDBRANCH  23  24
ENDBRANCH   8  23
BRANCH  10  30
HETATM   30  O7  UNL     1      10.012 -10.128  63.641  1.00  0.00    -0.383 OA
ATOM     31  H7  UNL     1       9.511 -10.900  63.875  1.00  0.00     0.210 HD
ENDBRANCH  10  30
BRANCH   1  32
HETATM   32  C2  UNL     1      11.391  -8.463  66.639  1.00  0.00     0.301 C
HETATM   33  O2  UNL     1      12.131  -7.416  66.572  1.00  0.00    -0.261 OA
BRANCH  32  34
HETATM   34  O1  UNL     1      11.501  -9.144  67.832  1.00  0.00    -0.324 OA
HETATM   35  C1  UNL     1      12.706  -9.585  68.388  1.00  0.00     0.213 C
ENDBRANCH  32  34
ENDBRANCH   1  32
BRANCH   1  36
HETATM   36  O3  UNL     1      10.402  -7.606  64.744  1.00  0.00    -0.373 OA
ATOM     37  H3  UNL     1       9.589  -7.215  65.042  1.00  0.00     0.211 HD
ENDBRANCH   1  36
BRANCH   5  38
HETATM   38  S1  UNL     1       9.701 -12.853  66.979  1.00  0.00     0.110 S
HETATM   39  O4  UNL     1       9.581 -14.204  66.289  1.00  0.00    -0.594 OA
HETATM   40  O5  UNL     1       8.577 -12.694  67.935  1.00  0.00    -0.594 OA
HETATM   41  O6  UNL     1      11.138 -12.738  67.819  1.00  0.00    -0.594 OA
ENDBRANCH   5  38
TORSDOF 13
ENDMDL