MODEL 4
REMARK VINA RESULT: -7.045701848      4.709     10.632
REMARK  12 active torsions:
REMARK  status: ('A' for Active; 'I' for Inactive)
REMARK    1  A    between atoms: N1_1  and  C1_5
REMARK    2  A    between atoms: C1_5  and  C2_6
REMARK    3  A    between atoms: C2_6  and  C3_7
REMARK       I    between atoms: C3_7  and  N2_9
REMARK    4  A    between atoms: N2_9  and  C4_11
REMARK    5  A    between atoms: C5_12  and  O2_13
REMARK    6  A    between atoms: C6_16  and  N3_17
REMARK    7  A    between atoms: C9_22  and  N5_23
REMARK    8  A    between atoms: N5_23  and  C10_24
REMARK    9  A    between atoms: C10_24  and  C11_25
REMARK   10  A    between atoms: C12_28  and  C13_29
REMARK   11  A    between atoms: C13_29  and  N7_30
REMARK   12  A    between atoms: C13_29  and  O4_34
ROOT
HETATM    1  N3  UNL     1      13.957 -10.274  63.322  1.00  0.00    -0.297 N
HETATM    2  C7  UNL     1      14.446  -9.038  63.537  1.00  0.00     0.188 A
HETATM    3  N4  UNL     1      14.560  -8.806  64.859  1.00  0.00    -0.345 N
ATOM      4  H4  UNL     1      14.904  -7.947  65.289  1.00  0.00     0.167 HD
HETATM    5  C8  UNL     1      14.145  -9.891  65.504  1.00  0.00     0.137 A
HETATM    6  C9  UNL     1      14.059 -10.167  66.881  1.00  0.00     0.210 A
HETATM    7  N11 UNL     1      13.575 -11.412  67.172  1.00  0.00    -0.325 N
ATOM      8  H11 UNL     1      13.488 -11.677  68.153  1.00  0.00     0.169 HD
HETATM    9  C17 UNL     1      13.210 -12.301  66.244  1.00  0.00     0.184 A
HETATM   10  N12 UNL     1      13.302 -12.013  64.938  1.00  0.00    -0.336 N
ATOM     11  H12 UNL     1      13.019 -12.704  64.243  1.00  0.00     0.168 HD
HETATM   12  C18 UNL     1      13.770 -10.805  64.543  1.00  0.00     0.143 A
ENDROOT
BRANCH   6  13
HETATM   13  N5  UNL     1      14.399  -9.340  67.679  1.00  0.00    -0.394 NA
BRANCH  13  14
HETATM   14  C10 UNL     1      14.880  -8.503  68.595  1.00  0.00     0.235 C
BRANCH  14  15
HETATM   15  C11 UNL     1      14.101  -7.209  68.645  1.00  0.00     0.157 A
HETATM   16  N6  UNL     1      14.659  -6.011  68.576  1.00  0.00    -0.337 N
HETATM   17  C12 UNL     1      13.716  -5.028  68.651  1.00  0.00     0.102 A
ATOM     18  H6  UNL     1      15.660  -5.844  68.481  1.00  0.00     0.167 HD
HETATM   19  C14 UNL     1      12.514  -5.700  68.771  1.00  0.00     0.153 A
HETATM   20  C15 UNL     1      11.235  -5.248  68.875  1.00  0.00     0.277 A
HETATM   21  N10 UNL     1      12.794  -7.024  68.763  1.00  0.00    -0.229 N
HETATM   22  O5  UNL     1      10.989  -4.016  68.878  1.00  0.00    -0.266 OA
HETATM   23  N8  UNL     1      10.218  -6.152  68.978  1.00  0.00    -0.317 N
HETATM   24  C16 UNL     1      10.543  -7.450  68.968  1.00  0.00     0.200 A
ATOM     25  H8  UNL     1       9.247  -5.850  69.058  1.00  0.00     0.170 HD
HETATM   26  N9  UNL     1      11.806  -7.884  68.863  1.00  0.00    -0.287 N
ATOM     27  H9  UNL     1      12.001  -8.885  68.862  1.00  0.00     0.188 HD
BRANCH  17  28
HETATM   28  C13 UNL     1      14.043  -3.590  68.629  1.00  0.00     0.369 C
BRANCH  28  29
HETATM   29  N7  UNL     1      13.746  -2.861  69.818  1.00  0.00    -0.047 N
ATOM     30  H73 UNL     1      12.887  -3.217  70.237  1.00  0.00     0.277 HD
ATOM     31  H72 UNL     1      14.418  -3.101  70.547  1.00  0.00     0.277 HD
ATOM     32  H71 UNL     1      13.689  -1.847  69.721  1.00  0.00     0.277 HD
ENDBRANCH  28  29
BRANCH  28  33
HETATM   33  O4  UNL     1      13.435  -2.986  67.492  1.00  0.00    -0.365 OA
ATOM     34  H4  UNL     1      13.601  -2.051  67.507  1.00  0.00     0.212 HD
ENDBRANCH  28  33
ENDBRANCH  17  28
ENDBRANCH  14  15
ENDBRANCH  13  14
ENDBRANCH   6  13
BRANCH   1  35
HETATM   35  C6  UNL     1      13.696 -10.872  62.039  1.00  0.00     0.261 C
HETATM   36  C4  UNL     1      12.303 -10.726  61.505  1.00  0.00     0.188 C
HETATM   37  C5  UNL     1      12.670 -12.068  60.923  1.00  0.00     0.286 C
HETATM   38  O3  UNL     1      13.514 -12.259  62.048  1.00  0.00    -0.332 OA
BRANCH  36  39
HETATM   39  N2  UNL     1      12.173  -9.628  60.590  1.00  0.00    -0.347 N
HETATM   40  C3  UNL     1      11.679  -8.350  60.979  1.00  0.00     0.219 C
HETATM   41  O1  UNL     1      11.345  -8.188  62.195  1.00  0.00    -0.274 OA
ATOM     42  H2  UNL     1      12.446  -9.769  59.618  1.00  0.00     0.163 HD
BRANCH  40  43
HETATM   43  C2  UNL     1      11.547  -7.223  60.034  1.00  0.00     0.130 C
BRANCH  43  44
HETATM   44  C1  UNL     1      12.915  -6.647  59.752  1.00  0.00     0.238 C
BRANCH  44  45
HETATM   45  N1  UNL     1      13.738  -6.609  60.944  1.00  0.00    -0.079 N
ATOM     46  H13 UNL     1      13.269  -6.116  61.704  1.00  0.00     0.274 HD
ATOM     47  H12 UNL     1      13.812  -7.531  61.374  1.00  0.00     0.274 HD
ATOM     48  H11 UNL     1      14.659  -6.211  60.755  1.00  0.00     0.274 HD
ENDBRANCH  44  45
ENDBRANCH  43  44
ENDBRANCH  40  43
ENDBRANCH  36  39
BRANCH  37  49
HETATM   49  O2  UNL     1      13.449 -12.048  59.788  1.00  0.00    -0.369 OA
ATOM     50  H2  UNL     1      13.375 -12.801  59.215  1.00  0.00     0.212 HD
ENDBRANCH  37  49
ENDBRANCH   1  35
TORSDOF 12
ENDMDL