MODEL 2
REMARK VINA RESULT: -7.519601726      1.702      2.516
REMARK  10 active torsions:
REMARK  status: ('A' for Active; 'I' for Inactive)
REMARK    1  A    between atoms: C4_5  and  C5_6
REMARK    2  A    between atoms: N4_14  and  C9_15
REMARK    3  A    between atoms: C9_15  and  C10_16
REMARK    4  A    between atoms: C10_16  and  N5_17
REMARK    5  A    between atoms: C10_16  and  C17_36
REMARK       I    between atoms: N5_17  and  C11_19
REMARK    6  A    between atoms: C11_19  and  C12_21
REMARK    7  A    between atoms: C12_21  and  N6_22
REMARK    8  A    between atoms: C12_21  and  C13_27
REMARK    9  A    between atoms: C17_36  and  O4_37
REMARK   10  A    between atoms: C17_36  and  O5_39
ROOT
HETATM    1  C10 UNL     1      10.461  -7.970  67.823  1.00  0.00     0.157 C
ENDROOT
BRANCH   1   2
HETATM    2  C9  UNL     1      10.084  -8.523  66.464  1.00  0.00     0.161 C
BRANCH   2   3
HETATM    3  N4  UNL     1      10.918  -9.614  66.046  1.00  0.00    -0.325 N
HETATM    4  C6  UNL     1      11.579  -9.622  64.851  1.00  0.00     0.143 A
HETATM    5  N2  UNL     1      11.662  -8.737  63.843  1.00  0.00    -0.324 N
HETATM    6  C7  UNL     1      12.251 -10.829  64.808  1.00  0.00     0.146 A
HETATM    7  C5  UNL     1      12.398  -8.972  62.744  1.00  0.00     0.138 A
ATOM      8  H2  UNL     1      11.150  -7.857  63.915  1.00  0.00     0.169 HD
HETATM    9  N10 UNL     1      13.052 -10.151  62.706  1.00  0.00    -0.306 N
HETATM   10  C18 UNL     1      13.012 -11.074  63.674  1.00  0.00     0.277 A
ATOM     11  H10 UNL     1      13.616 -10.353  61.881  1.00  0.00     0.170 HD
HETATM   12  O6  UNL     1      13.631 -12.162  63.609  1.00  0.00    -0.265 OA
HETATM   13  N3  UNL     1      11.980 -11.482  65.938  1.00  0.00    -0.345 N
HETATM   14  C8  UNL     1      11.160 -10.753  66.717  1.00  0.00     0.185 A
ATOM     15  H3  UNL     1      12.344 -12.404  66.178  1.00  0.00     0.167 HD
BRANCH   7  16
HETATM   16  C4  UNL     1      12.497  -8.011  61.649  1.00  0.00     0.093 A
HETATM   17  C3  UNL     1      13.616  -7.316  61.243  1.00  0.00     0.053 A
HETATM   18  C2  UNL     1      13.212  -6.525  60.160  1.00  0.00     0.112 A
HETATM   19  N1  UNL     1      11.919  -6.747  59.943  1.00  0.00    -0.307 N
HETATM   20  C1  UNL     1      11.105  -6.112  58.891  1.00  0.00     0.177 C
HETATM   21  N11 UNL     1      11.525  -7.627  60.837  1.00  0.00    -0.296 N
ATOM     22  H11 UNL     1      10.570  -7.978  60.898  1.00  0.00     0.187 HD
ENDBRANCH   7  16
ENDBRANCH   2   3
ENDBRANCH   1   2
BRANCH   1  23
HETATM   23  N5  UNL     1      11.490  -6.969  67.726  1.00  0.00    -0.348 N
HETATM   24  C11 UNL     1      12.693  -6.983  68.475  1.00  0.00     0.246 C
HETATM   25  O1  UNL     1      12.858  -7.941  69.272  1.00  0.00    -0.271 OA
ATOM     26  H5  UNL     1      11.344  -6.198  67.075  1.00  0.00     0.163 HD
BRANCH  24  27
HETATM   27  C12 UNL     1      13.741  -5.964  68.383  1.00  0.00     0.242 C
BRANCH  27  28
HETATM   28  N6  UNL     1      14.994  -6.384  68.922  1.00  0.00    -0.325 N
HETATM   29  N7  UNL     1      15.635  -7.365  68.590  1.00  0.00    -0.348 N
ATOM     30  H72 UNL     1      15.220  -7.933  67.851  1.00  0.00     0.176 HD
ATOM     31  H71 UNL     1      16.530  -7.665  68.975  1.00  0.00     0.176 HD
ATOM     32  H6  UNL     1      15.393  -5.804  69.660  1.00  0.00     0.180 HD
ENDBRANCH  27  28
BRANCH  27  33
HETATM   33  C13 UNL     1      13.301  -4.635  69.016  1.00  0.00     0.177 C
HETATM   34  C14 UNL     1      12.965  -3.630  67.926  1.00  0.00     0.070 C
HETATM   35  N8  UNL     1      12.054  -4.924  69.708  1.00  0.00    -0.097 NA
HETATM   36  N9  UNL     1      11.519  -3.775  70.303  1.00  0.00    -0.269 N
HETATM   37  C15 UNL     1      12.473  -2.776  70.645  1.00  0.00     0.257 C
ATOM     38  H9  UNL     1      10.521  -3.663  70.479  1.00  0.00     0.185 HD
HETATM   39  O2  UNL     1      12.132  -1.581  70.803  1.00  0.00    -0.270 OA
HETATM   40  C16 UNL     1      13.869  -3.263  70.795  1.00  0.00     0.274 C
HETATM   41  O3  UNL     1      14.274  -4.147  69.836  1.00  0.00    -0.351 OA
ENDBRANCH  27  33
ENDBRANCH  24  27
ENDBRANCH   1  23
BRANCH   1  42
HETATM   42  C17 UNL     1       9.255  -7.320  68.459  1.00  0.00     0.278 C
BRANCH  42  43
HETATM   43  O4  UNL     1       8.194  -7.216  67.543  1.00  0.00    -0.369 OA
ATOM     44  H4  UNL     1       7.523  -7.865  67.721  1.00  0.00     0.212 HD
ENDBRANCH  42  43
BRANCH  42  45
HETATM   45  O5  UNL     1       9.534  -5.993  68.827  1.00  0.00    -0.369 OA
ATOM     46  H5  UNL     1       8.916  -5.392  68.427  1.00  0.00     0.212 HD
ENDBRANCH  42  45
ENDBRANCH   1  42
TORSDOF 10
ENDMDL