MODEL 5
REMARK VINA RESULT: -7.302173536      6.161      9.688
REMARK  13 active torsions:
REMARK  status: ('A' for Active; 'I' for Inactive)
REMARK    1  A    between atoms: C2_7  and  C3_8
REMARK    2  A    between atoms: C3_8  and  N3_9
REMARK    3  A    between atoms: C3_8  and  C4_13
REMARK    4  A    between atoms: C4_13  and  O1_14
REMARK    5  A    between atoms: C4_13  and  C5_16
REMARK    6  A    between atoms: C7_20  and  C8_21
REMARK    7  A    between atoms: C8_21  and  N5_22
REMARK    8  A    between atoms: C8_21  and  C9_26
REMARK    9  A    between atoms: N8_37  and  C13_38
REMARK   10  A    between atoms: C15_41  and  N9_42
REMARK   11  A    between atoms: N10_46  and  C16_47
REMARK   12  A    between atoms: C16_47  and  C17_48
REMARK   13  A    between atoms: C17_48  and  O6_49
ROOT
HETATM    1  N1  UNL     1      16.212 -10.739  67.959  1.00  0.00    -0.383 N
ATOM      2  H11 UNL     1      16.616 -10.788  68.894  1.00  0.00     0.157 HD
ATOM      3  H12 UNL     1      16.531 -11.422  67.271  1.00  0.00     0.157 HD
HETATM    4  C1  UNL     1      15.324  -9.857  67.618  1.00  0.00     0.131 A
HETATM    5  N2  UNL     1      14.794  -9.793  66.394  1.00  0.00    -0.329 N
ATOM      6  H2  UNL     1      15.108 -10.471  65.700  1.00  0.00     0.168 HD
HETATM    7  C2  UNL     1      13.878  -8.894  66.020  1.00  0.00     0.118 A
HETATM    8  N6  UNL     1      13.451  -7.994  66.907  1.00  0.00    -0.328 N
ATOM      9  H6  UNL     1      12.752  -7.304  66.631  1.00  0.00     0.169 HD
HETATM   10  C10 UNL     1      13.933  -7.989  68.164  1.00  0.00     0.143 A
HETATM   11  C11 UNL     1      14.892  -8.934  68.548  1.00  0.00     0.122 A
HETATM   12  N7  UNL     1      15.171  -8.682  69.828  1.00  0.00    -0.346 N
ATOM     13  H7  UNL     1      15.835  -9.197  70.405  1.00  0.00     0.167 HD
HETATM   14  C12 UNL     1      14.429  -7.634  70.230  1.00  0.00     0.188 A
HETATM   15  N8  UNL     1      13.658  -7.191  69.221  1.00  0.00    -0.291 N
ENDROOT
BRANCH   7  16
HETATM   16  C3  UNL     1      13.357  -8.901  64.658  1.00  0.00     0.281 C
BRANCH  16  17
HETATM   17  N3  UNL     1      11.920  -9.069  64.660  1.00  0.00    -0.066 N
ATOM     18  H33 UNL     1      11.439  -8.214  64.380  1.00  0.00     0.275 HD
ATOM     19  H32 UNL     1      11.610  -9.675  63.902  1.00  0.00     0.275 HD
ATOM     20  H31 UNL     1      11.597  -9.405  65.568  1.00  0.00     0.275 HD
ENDBRANCH  16  17
BRANCH  16  21
HETATM   21  C4  UNL     1      13.971  -9.937  63.761  1.00  0.00     0.187 C
BRANCH  21  22
HETATM   22  O1  UNL     1      15.273  -9.611  63.385  1.00  0.00    -0.390 OA
ATOM     23  H1  UNL     1      15.350  -9.439  62.454  1.00  0.00     0.210 HD
ENDBRANCH  21  22
BRANCH  21  24
HETATM   24  C5  UNL     1      13.186 -10.221  62.531  1.00  0.00     0.179 C
HETATM   25  C6  UNL     1      13.949 -10.878  61.430  1.00  0.00     0.156 C
HETATM   26  N4  UNL     1      14.086  -9.841  60.447  1.00  0.00    -0.370 N
HETATM   27  C7  UNL     1      13.452  -8.780  60.747  1.00  0.00     0.156 C
ATOM     28  H4  UNL     1      14.637  -9.945  59.594  1.00  0.00     0.161 HD
HETATM   29  O4  UNL     1      12.826  -8.976  61.945  1.00  0.00    -0.327 OA
BRANCH  27  30
HETATM   30  C8  UNL     1      13.400  -7.527  59.927  1.00  0.00     0.356 C
BRANCH  30  31
HETATM   31  N5  UNL     1      12.506  -7.745  58.808  1.00  0.00    -0.058 N
ATOM     32  H53 UNL     1      11.614  -7.265  58.921  1.00  0.00     0.275 HD
ATOM     33  H52 UNL     1      12.816  -7.268  57.961  1.00  0.00     0.275 HD
ATOM     34  H51 UNL     1      12.396  -8.750  58.672  1.00  0.00     0.275 HD
ENDBRANCH  30  31
BRANCH  30  35
HETATM   35  C9  UNL     1      14.753  -7.214  59.409  1.00  0.00     0.213 C
HETATM   36  O2  UNL     1      14.874  -6.578  58.332  1.00  0.00    -0.646 OA
HETATM   37  O3  UNL     1      15.892  -7.606  60.082  1.00  0.00    -0.646 OA
ENDBRANCH  30  35
ENDBRANCH  27  30
ENDBRANCH  21  24
ENDBRANCH  16  21
ENDBRANCH   7  16
BRANCH  15  38
HETATM   38  C13 UNL     1      12.705  -6.079  69.218  1.00  0.00     0.323 C
HETATM   39  O5  UNL     1      12.687  -5.437  68.009  1.00  0.00    -0.353 OA
HETATM   40  C14 UNL     1      12.563  -4.075  68.040  1.00  0.00     0.225 C
HETATM   41  C15 UNL     1      13.702  -3.394  68.773  1.00  0.00     0.310 C
HETATM   42  N10 UNL     1      13.666  -3.904  70.145  1.00  0.00    -0.317 N
HETATM   43  C18 UNL     1      13.017  -5.148  70.329  1.00  0.00     0.271 C
HETATM   44  O7  UNL     1      12.692  -5.469  71.520  1.00  0.00    -0.268 OA
BRANCH  41  45
HETATM   45  N9  UNL     1      14.969  -3.658  68.157  1.00  0.00    -0.056 N
ATOM     46  H93 UNL     1      14.858  -3.925  67.179  1.00  0.00     0.276 HD
ATOM     47  H92 UNL     1      15.505  -2.799  68.028  1.00  0.00     0.276 HD
ATOM     48  H91 UNL     1      15.507  -4.355  68.673  1.00  0.00     0.276 HD
ENDBRANCH  41  45
BRANCH  42  49
HETATM   49  C16 UNL     1      14.273  -3.130  71.191  1.00  0.00     0.154 C
BRANCH  49  50
HETATM   50  C17 UNL     1      15.682  -3.587  71.497  1.00  0.00     0.184 C
BRANCH  50  51
HETATM   51  O6  UNL     1      16.645  -2.953  70.724  1.00  0.00    -0.399 OA
ATOM     52  H6  UNL     1      17.135  -2.292  71.201  1.00  0.00     0.209 HD
ENDBRANCH  50  51
ENDBRANCH  49  50
ENDBRANCH  42  49
ENDBRANCH  15  38
TORSDOF 13
ENDMDL