MODEL 1
REMARK VINA RESULT: -6.671949044      0.000      0.000
REMARK  12 active torsions:
REMARK  status: ('A' for Active; 'I' for Inactive)
REMARK    1  A    between atoms: N1_1  and  N2_4
REMARK       I    between atoms: N2_4  and  C1_6
REMARK    2  A    between atoms: C1_6  and  C2_8
REMARK    3  A    between atoms: C2_8  and  S1_9
REMARK    4  A    between atoms: S1_9  and  C3_10
REMARK    5  A    between atoms: C4_13  and  C5_14
REMARK    6  A    between atoms: N4_18  and  C7_19
REMARK    7  A    between atoms: C8_20  and  O4_21
REMARK    8  A    between atoms: C9_23  and  N5_24
REMARK    9  A    between atoms: C14_34  and  C15_35
REMARK   10  A    between atoms: C15_35  and  O8_36
REMARK   11  A    between atoms: C15_35  and  C16_38
REMARK       I    between atoms: C16_38  and  N7_40
REMARK   12  A    between atoms: N7_40  and  N8_42
ROOT
HETATM    1  C7  UNL     1      19.730  41.562  20.964  1.00  0.00     0.156 C
HETATM    2  C8  UNL     1      20.932  42.235  20.397  1.00  0.00     0.193 C
HETATM    3  C9  UNL     1      20.525  42.067  18.915  1.00  0.00     0.263 C
HETATM    4  O7  UNL     1      20.163  40.757  18.850  1.00  0.00    -0.353 OA
HETATM    5  C14 UNL     1      19.693  40.334  20.105  1.00  0.00     0.188 C
ENDROOT
BRANCH   1   6
HETATM    6  N4  UNL     1      19.570  41.455  22.350  1.00  0.00    -0.325 N
HETATM    7  C3  UNL     1      18.614  40.910  23.110  1.00  0.00     0.148 A
HETATM    8  N3  UNL     1      18.965  41.055  24.400  1.00  0.00    -0.330 N
HETATM    9  C4  UNL     1      20.137  41.686  24.481  1.00  0.00     0.127 A
ATOM     10  H3  UNL     1      18.417  40.731  25.196  1.00  0.00     0.168 HD
HETATM   11  C6  UNL     1      20.513  41.936  23.204  1.00  0.00     0.130 A
BRANCH   7  12
HETATM   12  S1  UNL     1      17.110  40.080  22.530  1.00  0.00    -0.084 SA
BRANCH  12  13
HETATM   13  C2  UNL     1      16.955  38.486  23.332  1.00  0.00     0.186 C
BRANCH  13  14
HETATM   14  C1  UNL     1      17.026  37.411  22.327  1.00  0.00     0.245 C
HETATM   15  N2  UNL     1      16.222  37.466  21.172  1.00  0.00    -0.276 N
ATOM     16  H2  UNL     1      15.596  38.262  21.053  1.00  0.00     0.189 HD
HETATM   17  O1  UNL     1      17.795  36.445  22.488  1.00  0.00    -0.271 OA
BRANCH  15  18
HETATM   18  N1  UNL     1      16.240  36.484  20.186  1.00  0.00    -0.343 N
ATOM     19  H12 UNL     1      16.535  35.547  20.461  1.00  0.00     0.176 HD
ATOM     20  H11 UNL     1      15.974  36.663  19.218  1.00  0.00     0.176 HD
ENDBRANCH  15  18
ENDBRANCH  13  14
ENDBRANCH  12  13
ENDBRANCH   7  12
BRANCH   9  21
HETATM   21  C5  UNL     1      20.868  42.040  25.691  1.00  0.00     0.228 C
HETATM   22  O2  UNL     1      21.018  41.197  26.619  1.00  0.00    -0.643 OA
HETATM   23  O3  UNL     1      21.410  43.303  25.847  1.00  0.00    -0.643 OA
ENDBRANCH   9  21
ENDBRANCH   1   6
BRANCH   2  24
HETATM   24  O4  UNL     1      22.067  41.563  20.689  1.00  0.00    -0.389 OA
ATOM     25  H4  UNL     1      22.731  41.686  20.020  1.00  0.00     0.210 HD
ENDBRANCH   2  24
BRANCH   5  26
HETATM   26  C15 UNL     1      20.519  39.163  20.496  1.00  0.00     0.242 C
BRANCH  26  27
HETATM   27  O8  UNL     1      20.705  39.040  21.894  1.00  0.00    -0.383 OA
ATOM     28  H8  UNL     1      20.712  38.141  22.200  1.00  0.00     0.210 HD
ENDBRANCH  26  27
BRANCH  26  29
HETATM   29  C16 UNL     1      19.781  37.889  20.145  1.00  0.00     0.267 C
HETATM   30  O9  UNL     1      18.708  37.933  19.502  1.00  0.00    -0.269 OA
HETATM   31  N7  UNL     1      20.258  36.623  20.523  1.00  0.00    -0.274 N
ATOM     32  H7  UNL     1      21.128  36.566  21.053  1.00  0.00     0.189 HD
BRANCH  31  33
HETATM   33  N8  UNL     1      19.590  35.439  20.203  1.00  0.00    -0.343 N
ATOM     34  H82 UNL     1      19.668  35.096  19.246  1.00  0.00     0.176 HD
ATOM     35  H81 UNL     1      19.037  34.917  20.883  1.00  0.00     0.176 HD
ENDBRANCH  31  33
ENDBRANCH  26  29
ENDBRANCH   5  26
BRANCH   3  36
HETATM   36  N5  UNL     1      21.478  42.542  17.996  1.00  0.00    -0.280 N
HETATM   37  C10 UNL     1      22.500  41.808  17.554  1.00  0.00     0.104 A
HETATM   38  C11 UNL     1      23.384  42.349  16.659  1.00  0.00     0.092 A
HETATM   39  C12 UNL     1      23.206  43.641  16.228  1.00  0.00     0.250 A
HETATM   40  O5  UNL     1      24.028  44.128  15.401  1.00  0.00    -0.268 OA
HETATM   41  N6  UNL     1      22.178  44.387  16.666  1.00  0.00    -0.275 N
HETATM   42  C13 UNL     1      21.352  43.795  17.542  1.00  0.00     0.331 A
ATOM     43  H6  UNL     1      22.035  45.347  16.352  1.00  0.00     0.173 HD
HETATM   44  O6  UNL     1      20.382  44.534  17.941  1.00  0.00    -0.246 OA
ENDBRANCH   3  36
TORSDOF 12
ENDMDL