MODEL 4
REMARK VINA RESULT: -7.098375253      2.457      3.302
REMARK  12 active torsions:
REMARK  status: ('A' for Active; 'I' for Inactive)
REMARK    1  A    between atoms: C3_7  and  N3_8
REMARK    2  A    between atoms: N3_8  and  C4_10
REMARK    3  A    between atoms: C4_10  and  C5_11
REMARK    4  A    between atoms: C5_11  and  S1_12
REMARK    5  A    between atoms: S1_12  and  C6_13
REMARK    6  A    between atoms: C6_13  and  C7_14
REMARK    7  A    between atoms: C7_14  and  C8_15
REMARK    8  A    between atoms: C9_17  and  N4_18
REMARK    9  A    between atoms: C12_23  and  N6_24
REMARK   10  A    between atoms: C15_33  and  O3_34
REMARK   11  A    between atoms: C16_39  and  O4_40
REMARK   12  A    between atoms: C16_39  and  O5_42
ROOT
HETATM    1  C8  UNL     1      19.187  41.656  24.840  1.00  0.00     0.218 C
HETATM    2  O2  UNL     1      19.933  40.626  24.388  1.00  0.00    -0.349 OA
HETATM    3  C9  UNL     1      19.926  40.336  23.052  1.00  0.00     0.287 C
HETATM    4  C15 UNL     1      20.158  41.589  22.227  1.00  0.00     0.375 C
HETATM    5  N9  UNL     1      19.186  42.580  22.544  1.00  0.00     0.016 N
ATOM      6  H91 UNL     1      18.278  42.332  22.149  1.00  0.00     0.287 HD
ATOM      7  H92 UNL     1      19.367  43.440  22.028  1.00  0.00     0.287 HD
HETATM    8  C16 UNL     1      19.072  42.845  23.935  1.00  0.00     0.363 C
ENDROOT
BRANCH   1   9
HETATM    9  C7  UNL     1      19.795  42.159  26.132  1.00  0.00     0.050 C
BRANCH   9  10
HETATM   10  C6  UNL     1      18.902  41.900  27.333  1.00  0.00     0.076 C
BRANCH  10  11
HETATM   11  S1  UNL     1      18.598  43.460  28.185  1.00  0.00    -0.167 SA
BRANCH  11  12
HETATM   12  C5  UNL     1      19.584  43.690  29.655  1.00  0.00     0.094 C
BRANCH  12  13
HETATM   13  C4  UNL     1      18.950  43.129  30.908  1.00  0.00     0.148 C
BRANCH  13  14
HETATM   14  N3  UNL     1      19.025  41.683  30.874  1.00  0.00    -0.225 N
ATOM     15  H3  UNL     1      18.181  41.128  31.012  1.00  0.00     0.177 HD
BRANCH  14  16
HETATM   16  C3  UNL     1      20.133  41.104  30.675  1.00  0.00     0.686 A
HETATM   17  N2  UNL     1      21.263  41.510  31.262  1.00  0.00    -0.141 N
HETATM   18  C2  UNL     1      22.430  40.865  31.027  1.00  0.00     0.344 A
ATOM     19  H2  UNL     1      21.246  42.311  31.892  1.00  0.00     0.189 HD
HETATM   20  N1  UNL     1      22.502  39.793  30.196  1.00  0.00    -0.255 N
HETATM   21  O1  UNL     1      23.519  41.230  31.572  1.00  0.00    -0.246 OA
HETATM   22  C1  UNL     1      23.753  39.095  29.940  1.00  0.00     0.166 C
HETATM   23  C17 UNL     1      21.346  39.418  29.627  1.00  0.00     0.344 A
HETATM   24  N10 UNL     1      20.181  40.047  29.850  1.00  0.00    -0.141 N
HETATM   25  O6  UNL     1      21.379  38.422  28.848  1.00  0.00    -0.246 OA
ATOM     26  H10 UNL     1      19.331  39.720  29.390  1.00  0.00     0.189 HD
ENDBRANCH  14  16
ENDBRANCH  13  14
ENDBRANCH  12  13
ENDBRANCH  11  12
ENDBRANCH  10  11
ENDBRANCH   9  10
ENDBRANCH   1   9
BRANCH   8  27
HETATM   27  O4  UNL     1      17.784  43.394  24.145  1.00  0.00    -0.342 OA
ATOM     28  H4  UNL     1      17.482  43.714  23.302  1.00  0.00     0.215 HD
ENDBRANCH   8  27
BRANCH   8  29
HETATM   29  O5  UNL     1      20.048  43.786  24.276  1.00  0.00    -0.342 OA
ATOM     30  H5  UNL     1      19.674  44.428  24.869  1.00  0.00     0.215 HD
ENDBRANCH   8  29
BRANCH   3  31
HETATM   31  N4  UNL     1      18.820  39.548  22.591  1.00  0.00    -0.295 N
HETATM   32  C10 UNL     1      17.527  39.617  22.913  1.00  0.00     0.188 A
HETATM   33  N5  UNL     1      16.841  38.674  22.230  1.00  0.00    -0.346 N
HETATM   34  C11 UNL     1      17.677  37.987  21.461  1.00  0.00     0.122 A
ATOM     35  H5  UNL     1      15.835  38.515  22.295  1.00  0.00     0.167 HD
HETATM   36  C12 UNL     1      17.513  36.940  20.581  1.00  0.00     0.131 A
HETATM   37  C14 UNL     1      18.922  38.535  21.686  1.00  0.00     0.142 A
HETATM   38  N7  UNL     1      18.590  36.470  19.952  1.00  0.00    -0.337 N
HETATM   39  C13 UNL     1      19.817  36.977  20.146  1.00  0.00     0.183 A
ATOM     40  H7  UNL     1      18.477  35.695  19.298  1.00  0.00     0.168 HD
HETATM   41  N8  UNL     1      19.962  37.993  21.002  1.00  0.00    -0.336 N
ATOM     42  H8  UNL     1      20.895  38.378  21.148  1.00  0.00     0.168 HD
BRANCH  36  43
HETATM   43  N6  UNL     1      16.350  36.429  20.370  1.00  0.00    -0.383 N
ATOM     44  H62 UNL     1      15.645  36.936  19.836  1.00  0.00     0.157 HD
ATOM     45  H61 UNL     1      16.109  35.506  20.733  1.00  0.00     0.157 HD
ENDBRANCH  36  43
ENDBRANCH   3  31
BRANCH   4  46
HETATM   46  O3  UNL     1      20.178  41.304  20.876  1.00  0.00    -0.366 OA
ATOM     47  H3  UNL     1      19.805  40.448  20.698  1.00  0.00     0.212 HD
ENDBRANCH   4  46
TORSDOF 12
ENDMDL