MODEL 4
REMARK VINA RESULT: -7.286433046      1.128      1.581
REMARK  12 active torsions:
REMARK  status: ('A' for Active; 'I' for Inactive)
REMARK    1  A    between atoms: C2_2  and  N1_3
REMARK    2  A    between atoms: C2_2  and  C14_34
REMARK       I    between atoms: N1_3  and  C3_5
REMARK    3  A    between atoms: C3_5  and  C4_7
REMARK    4  A    between atoms: C5_8  and  O2_9
REMARK    5  A    between atoms: C7_12  and  C8_13
REMARK    6  A    between atoms: C8_13  and  O3_14
REMARK    7  A    between atoms: C8_13  and  N2_16
REMARK    8  A    between atoms: N2_16  and  N3_18
REMARK    9  A    between atoms: N3_18  and  C9_20
REMARK   10  A    between atoms: C14_34  and  O7_35
REMARK   11  A    between atoms: C14_34  and  C15_37
REMARK   12  A    between atoms: C15_37  and  N8_38
ROOT
HETATM    1  C4  UNL     1      20.687  40.222  22.220  1.00  0.00     0.133 A
HETATM    2  C5  UNL     1      21.968  40.789  22.255  1.00  0.00     0.088 A
HETATM    3  C6  UNL     1      22.276  41.603  23.372  1.00  0.00     0.067 A
HETATM    4  C7  UNL     1      21.417  41.861  24.391  1.00  0.00     0.066 A
HETATM    5  N7  UNL     1      20.207  41.302  24.320  1.00  0.00    -0.317 N
HETATM    6  C12 UNL     1      19.263  41.554  25.393  1.00  0.00     0.159 C
HETATM    7  C13 UNL     1      19.853  40.507  23.266  1.00  0.00     0.266 A
HETATM    8  O6  UNL     1      18.683  40.057  23.347  1.00  0.00    -0.267 OA
ENDROOT
BRANCH   4   9
HETATM    9  C8  UNL     1      21.807  42.739  25.558  1.00  0.00     0.284 C
BRANCH   9  10
HETATM   10  O3  UNL     1      22.183  43.997  25.095  1.00  0.00    -0.370 OA
ATOM     11  H3  UNL     1      21.426  44.449  24.742  1.00  0.00     0.212 HD
ENDBRANCH   9  10
BRANCH   9  12
HETATM   12  N2  UNL     1      22.765  42.101  26.390  1.00  0.00    -0.301 N
ATOM     13  H2  UNL     1      23.725  42.446  26.432  1.00  0.00     0.183 HD
BRANCH  12  14
HETATM   14  N3  UNL     1      22.389  41.033  27.126  1.00  0.00    -0.289 N
ATOM     15  H3  UNL     1      22.638  40.113  26.761  1.00  0.00     0.188 HD
BRANCH  14  16
HETATM   16  C9  UNL     1      21.663  41.061  28.391  1.00  0.00     0.129 C
HETATM   17  N4  UNL     1      21.593  42.092  29.141  1.00  0.00    -0.269 N
HETATM   18  S1  UNL     1      20.655  41.704  30.521  1.00  0.00     0.253 S
ATOM     19  H4  UNL     1      22.025  42.996  28.950  1.00  0.00     0.180 HD
HETATM   20  O4  UNL     1      19.284  42.257  30.494  1.00  0.00    -0.204 OA
HETATM   21  O5  UNL     1      21.404  42.042  31.772  1.00  0.00    -0.204 OA
HETATM   22  C10 UNL     1      20.645  39.920  30.293  1.00  0.00     0.266 C
HETATM   23  N5  UNL     1      21.867  39.257  30.602  1.00  0.00    -0.123 NA
HETATM   24  C11 UNL     1      20.959  39.865  28.835  1.00  0.00     0.201 C
HETATM   25  N6  UNL     1      21.863  38.784  29.262  1.00  0.00    -0.132 NA
ENDBRANCH  14  16
ENDBRANCH  12  14
ENDBRANCH   9  12
ENDBRANCH   4   9
BRANCH   2  26
HETATM   26  O2  UNL     1      22.907  40.618  21.323  1.00  0.00    -0.359 OA
ATOM     27  H2  UNL     1      23.841  40.586  21.489  1.00  0.00     0.217 HD
ENDBRANCH   2  26
BRANCH   1  28
HETATM   28  C3  UNL     1      20.324  39.368  21.082  1.00  0.00     0.260 C
HETATM   29  N1  UNL     1      19.857  38.066  21.164  1.00  0.00    -0.350 N
ATOM     30  H1  UNL     1      19.748  37.707  22.113  1.00  0.00     0.163 HD
HETATM   31  O1  UNL     1      20.437  39.835  19.902  1.00  0.00    -0.267 OA
BRANCH  29  32
HETATM   32  C2  UNL     1      19.499  37.136  20.118  1.00  0.00     0.111 C
HETATM   33  C1  UNL     1      20.002  35.751  20.384  1.00  0.00     0.035 C
BRANCH  32  34
HETATM   34  C14 UNL     1      18.116  37.107  19.611  1.00  0.00     0.164 C
BRANCH  34  35
HETATM   35  O7  UNL     1      17.693  38.494  19.562  1.00  0.00    -0.392 OA
ATOM     36  H7  UNL     1      17.023  38.530  18.891  1.00  0.00     0.210 HD
ENDBRANCH  34  35
BRANCH  34  37
HETATM   37  C15 UNL     1      17.059  36.521  20.531  1.00  0.00     0.234 C
BRANCH  37  38
HETATM   38  N8  UNL     1      16.762  37.298  21.696  1.00  0.00    -0.153 N
HETATM   39  O8  UNL     1      15.940  38.198  21.822  1.00  0.00    -0.536 OA
HETATM   40  O9  UNL     1      17.491  36.952  22.843  1.00  0.00    -0.536 OA
ENDBRANCH  37  38
ENDBRANCH  34  37
ENDBRANCH  32  34
ENDBRANCH  29  32
ENDBRANCH   1  28
TORSDOF 12
ENDMDL