MODEL 5
REMARK VINA RESULT: -6.362701427      2.821      8.506
REMARK  11 active torsions:
REMARK  status: ('A' for Active; 'I' for Inactive)
REMARK    1  A    between atoms: N1_1  and  C1_4
REMARK    2  A    between atoms: C2_7  and  C3_8
REMARK    3  A    between atoms: C3_8  and  C4_13
REMARK    4  A    between atoms: N3_9  and  O1_11
REMARK       I    between atoms: C4_13  and  N4_15
REMARK    5  A    between atoms: N4_15  and  C5_17
REMARK    6  A    between atoms: C7_21  and  C8_22
REMARK    7  A    between atoms: C9_25  and  C10_26
REMARK    8  A    between atoms: C10_26  and  O6_27
REMARK    9  A    between atoms: O6_27  and  S1_28
REMARK   10  A    between atoms: N6_32  and  N7_33
REMARK   11  A    between atoms: C11_36  and  O10_37
ROOT
HETATM    1  C5  UNL     1      19.383  41.482  25.036  1.00  0.00     0.205 C
HETATM    2  C6  UNL     1      18.955  42.803  25.590  1.00  0.00     0.250 C
HETATM    3  O3  UNL     1      18.131  43.713  25.395  1.00  0.00    -0.271 OA
HETATM    4  N5  UNL     1      19.972  42.608  26.547  1.00  0.00    -0.297 N
HETATM    5  C7  UNL     1      20.555  42.687  27.865  1.00  0.00     0.141 C
HETATM    6  C9  UNL     1      21.685  42.088  28.176  1.00  0.00     0.090 C
HETATM    7  N6  UNL     1      22.361  41.319  27.143  1.00  0.00    -0.267 N
HETATM    8  C11 UNL     1      21.615  40.898  26.002  1.00  0.00     0.266 C
HETATM    9  C12 UNL     1      20.740  41.996  25.461  1.00  0.00     0.175 C
ENDROOT
BRANCH   1  10
HETATM   10  N4  UNL     1      19.329  41.380  23.594  1.00  0.00    -0.340 N
HETATM   11  C4  UNL     1      18.510  40.419  22.928  1.00  0.00     0.273 C
HETATM   12  O2  UNL     1      17.818  39.642  23.681  1.00  0.00    -0.266 OA
ATOM     13  H4  UNL     1      19.896  42.016  23.033  1.00  0.00     0.163 HD
BRANCH  11  14
HETATM   14  C3  UNL     1      18.504  40.372  21.489  1.00  0.00     0.149 C
HETATM   15  N3  UNL     1      18.539  41.386  20.743  1.00  0.00    -0.262 N
ATOM     16  H3  UNL     1      18.526  41.117  19.760  1.00  0.00     0.194 HD
BRANCH  14  17
HETATM   17  C2  UNL     1      18.451  39.012  20.836  1.00  0.00     0.075 A
HETATM   18  N2  UNL     1      17.434  38.512  20.207  1.00  0.00    -0.335 N
HETATM   19  C1  UNL     1      17.550  37.274  19.677  1.00  0.00     0.142 A
ATOM     20  H2  UNL     1      16.567  39.041  20.115  1.00  0.00     0.168 HD
HETATM   21  S2  UNL     1      19.127  36.820  20.082  1.00  0.00    -0.064 SA
HETATM   22  C13 UNL     1      19.588  38.233  20.919  1.00  0.00     0.085 A
BRANCH  19  23
HETATM   23  N1  UNL     1      16.623  36.614  19.008  1.00  0.00    -0.380 N
ATOM     24  H12 UNL     1      16.555  36.408  18.011  1.00  0.00     0.158 HD
ATOM     25  H11 UNL     1      15.784  36.181  19.396  1.00  0.00     0.158 HD
ENDBRANCH  19  23
ENDBRANCH  14  17
BRANCH  15  26
HETATM   26  O1  UNL     1      18.586  42.661  20.868  1.00  0.00    -0.289 OA
ATOM     27  H1  UNL     1      19.194  43.319  21.186  1.00  0.00     0.244 HD
ENDBRANCH  15  26
ENDBRANCH  11  14
ENDBRANCH   1  10
BRANCH   8  28
HETATM   28  O10 UNL     1      22.421  40.439  24.973  1.00  0.00    -0.373 OA
ATOM     29  H10 UNL     1      22.303  39.513  24.798  1.00  0.00     0.212 HD
ENDBRANCH   8  28
BRANCH   5  30
HETATM   30  C8  UNL     1      19.786  43.448  28.831  1.00  0.00     0.229 C
HETATM   31  O4  UNL     1      18.933  42.921  29.549  1.00  0.00    -0.643 OA
HETATM   32  O5  UNL     1      19.976  44.826  28.998  1.00  0.00    -0.643 OA
ENDBRANCH   5  30
BRANCH   7  33
HETATM   33  N7  UNL     1      23.741  41.012  27.297  1.00  0.00    -0.340 N
ATOM     34  H72 UNL     1      24.091  40.477  28.093  1.00  0.00     0.177 HD
ATOM     35  H71 UNL     1      24.405  41.333  26.593  1.00  0.00     0.177 HD
ENDBRANCH   7  33
BRANCH   6  36
HETATM   36  C10 UNL     1      22.369  42.101  29.473  1.00  0.00     0.254 C
BRANCH  36  37
HETATM   37  O6  UNL     1      21.677  41.245  30.367  1.00  0.00    -0.251 OA
BRANCH  37  38
HETATM   38  S1  UNL     1      22.377  39.727  30.391  1.00  0.00     0.251 S
HETATM   39  O7  UNL     1      22.232  39.081  31.758  1.00  0.00    -0.572 OA
HETATM   40  O8  UNL     1      23.857  39.799  30.121  1.00  0.00    -0.572 OA
HETATM   41  O9  UNL     1      21.655  38.685  29.292  1.00  0.00    -0.572 OA
ENDBRANCH  37  38
ENDBRANCH  36  37
ENDBRANCH   6  36
TORSDOF 11
ENDMDL