MODEL 4
REMARK VINA RESULT: -7.284300792      2.096      2.939
REMARK  11 active torsions:
REMARK  status: ('A' for Active; 'I' for Inactive)
REMARK       I    between atoms: C1_4  and  N2_5
REMARK       I    between atoms: C1_4  and  N7_23
REMARK    1  A    between atoms: N2_5  and  C2_7
REMARK    2  A    between atoms: C2_7  and  C3_8
REMARK    3  A    between atoms: C4_12  and  C5_13
REMARK    4  A    between atoms: N7_23  and  C9_25
REMARK    5  A    between atoms: C9_25  and  C10_26
REMARK    6  A    between atoms: C12_29  and  N8_30
REMARK    7  A    between atoms: C13_34  and  C14_35
REMARK    8  A    between atoms: C14_35  and  N9_36
REMARK    9  A    between atoms: C15_37  and  C16_38
REMARK   10  A    between atoms: C17_44  and  N13_45
REMARK   11  A    between atoms: C18_49  and  O4_50
ROOT
HETATM    1  C10 UNL     1      20.107  42.240  19.227  1.00  0.00     0.105 C
HETATM    2  C11 UNL     1      19.207  42.337  18.072  1.00  0.00     0.166 C
HETATM    3  O2  UNL     1      19.106  43.214  17.222  1.00  0.00    -0.295 OA
HETATM    4  C12 UNL     1      18.372  41.117  18.101  1.00  0.00     0.264 C
HETATM    5  C13 UNL     1      18.122  40.844  19.615  1.00  0.00     0.092 C
HETATM    6  C18 UNL     1      19.218  41.626  20.301  1.00  0.00     0.142 C
ENDROOT
BRANCH   1   7
HETATM    7  C9  UNL     1      21.318  41.441  18.958  1.00  0.00     0.153 C
BRANCH   7   8
HETATM    8  N7  UNL     1      21.909  40.795  20.067  1.00  0.00    -0.226 N
HETATM    9  C1  UNL     1      22.400  41.397  21.236  1.00  0.00     0.667 C
HETATM   10  N1  UNL     1      23.095  42.473  21.183  1.00  0.00    -0.235 N
HETATM   11  N2  UNL     1      22.138  40.794  22.500  1.00  0.00    -0.220 N
ATOM     12  H12 UNL     1      23.451  42.911  22.032  1.00  0.00     0.174 HD
ATOM     13  H11 UNL     1      23.282  42.905  20.277  1.00  0.00     0.174 HD
ATOM     14  H2  UNL     1      21.295  40.226  22.583  1.00  0.00     0.178 HD
ATOM     15  H7  UNL     1      21.987  39.779  20.013  1.00  0.00     0.177 HD
BRANCH  11  16
HETATM   16  C2  UNL     1      22.965  40.922  23.664  1.00  0.00     0.216 C
BRANCH  16  17
HETATM   17  C3  UNL     1      22.109  41.030  24.875  1.00  0.00     0.122 A
HETATM   18  N3  UNL     1      20.881  41.531  25.059  1.00  0.00    -0.245 N
HETATM   19  O1  UNL     1      20.527  41.410  26.300  1.00  0.00    -0.216 OA
ATOM     20  H3  UNL     1      20.306  41.948  24.326  1.00  0.00     0.196 HD
HETATM   21  C4  UNL     1      21.487  40.833  26.999  1.00  0.00     0.200 A
HETATM   22  N6  UNL     1      22.467  40.598  26.114  1.00  0.00    -0.320 N
ATOM     23  H6  UNL     1      23.358  40.156  26.339  1.00  0.00     0.169 HD
BRANCH  21  24
HETATM   24  C5  UNL     1      21.505  40.514  28.416  1.00  0.00     0.101 A
HETATM   25  C6  UNL     1      20.475  40.861  29.265  1.00  0.00     0.121 A
HETATM   26  N4  UNL     1      20.509  40.556  30.579  1.00  0.00    -0.372 N
HETATM   27  C7  UNL     1      21.536  39.905  31.113  1.00  0.00     0.104 A
ATOM     28  H4  UNL     1      19.729  40.832  31.175  1.00  0.00     0.164 HD
HETATM   29  C8  UNL     1      22.588  39.551  30.251  1.00  0.00     0.105 A
HETATM   30  N5  UNL     1      22.544  39.860  28.949  1.00  0.00    -0.360 N
ATOM     31  H5  UNL     1      23.323  39.590  28.347  1.00  0.00     0.165 HD
ENDBRANCH  21  24
ENDBRANCH  16  17
ENDBRANCH  11  16
ENDBRANCH   7   8
ENDBRANCH   1   7
BRANCH   6  32
HETATM   32  O4  UNL     1      18.602  42.677  20.975  1.00  0.00    -0.394 OA
ATOM     33  H4  UNL     1      18.774  43.469  20.478  1.00  0.00     0.210 HD
ENDBRANCH   6  32
BRANCH   4  34
HETATM   34  N8  UNL     1      17.130  41.379  17.417  1.00  0.00    -0.068 N
ATOM     35  H83 UNL     1      16.687  40.525  17.078  1.00  0.00     0.275 HD
ATOM     36  H82 UNL     1      16.392  41.679  18.055  1.00  0.00     0.275 HD
ATOM     37  H81 UNL     1      17.295  42.054  16.671  1.00  0.00     0.275 HD
ENDBRANCH   4  34
BRANCH   5  38
HETATM   38  C14 UNL     1      18.253  39.379  19.776  1.00  0.00     0.079 C
BRANCH  38  39
HETATM   39  N9  UNL     1      17.704  38.675  20.837  1.00  0.00    -0.298 N
HETATM   40  C15 UNL     1      17.626  38.804  22.226  1.00  0.00     0.188 C
HETATM   41  N11 UNL     1      17.474  37.600  22.769  1.00  0.00    -0.281 N
HETATM   42  N12 UNL     1      17.439  36.634  21.771  1.00  0.00    -0.084 NA
ATOM     43  H11 UNL     1      17.395  37.413  23.769  1.00  0.00     0.184 HD
HETATM   44  C17 UNL     1      16.934  37.404  20.604  1.00  0.00     0.404 C
BRANCH  40  45
HETATM   45  C16 UNL     1      17.610  40.018  23.027  1.00  0.00     0.300 C
HETATM   46  N10 UNL     1      16.611  41.011  22.717  1.00  0.00    -0.054 NA
HETATM   47  O3  UNL     1      18.356  40.322  23.964  1.00  0.00    -0.268 OA
ENDBRANCH  40  45
BRANCH  44  48
HETATM   48  N13 UNL     1      17.384  36.727  19.433  1.00  0.00    -0.042 N
ATOM     49 3H13 UNL     1      17.371  37.341  18.618  1.00  0.00     0.278 HD
ATOM     50 2H13 UNL     1      18.386  36.540  19.472  1.00  0.00     0.278 HD
ATOM     51 1H13 UNL     1      16.851  35.873  19.267  1.00  0.00     0.278 HD
ENDBRANCH  44  48
ENDBRANCH  38  39
ENDBRANCH   5  38
TORSDOF 11
ENDMDL