MODEL 4
REMARK VINA RESULT: -7.581124031      5.635      9.835
REMARK  10 active torsions:
REMARK  status: ('A' for Active; 'I' for Inactive)
REMARK    1  A    between atoms: N1_1  and  C1_4
REMARK    2  A    between atoms: N3_9  and  C3_10
REMARK    3  A    between atoms: C4_11  and  O2_12
REMARK    4  A    between atoms: C5_14  and  N4_15
REMARK    5  A    between atoms: C7_17  and  C8_18
REMARK       I    between atoms: C8_18  and  N5_20
REMARK       I    between atoms: N5_20  and  C9_22
REMARK    6  A    between atoms: N7_24  and  C10_26
REMARK    7  A    between atoms: C10_26  and  C11_27
REMARK    8  A    between atoms: C11_27  and  N8_28
REMARK    9  A    between atoms: C14_40  and  O5_41
REMARK   10  A    between atoms: C14_40  and  C15_43
ROOT
HETATM    1  N4  UNL     1      21.019  41.619  22.849  1.00  0.00    -0.255 N
HETATM    2  C6  UNL     1      21.671  41.316  23.977  1.00  0.00     0.151 A
HETATM    3  C7  UNL     1      23.002  41.557  23.749  1.00  0.00     0.134 A
HETATM    4  N11 UNL     1      23.117  42.000  22.491  1.00  0.00    -0.280 N
ATOM      5  H11 UNL     1      23.982  42.268  22.022  1.00  0.00     0.189 HD
HETATM    6  N12 UNL     1      21.904  42.028  21.969  1.00  0.00    -0.238 N
ATOM      7  H12 UNL     1      21.684  42.325  21.019  1.00  0.00     0.208 HD
ENDROOT
BRANCH   1   8
HETATM    8  C5  UNL     1      19.611  41.515  22.638  1.00  0.00     0.280 C
HETATM    9  C4  UNL     1      19.119  40.124  22.956  1.00  0.00     0.199 C
HETATM   10  C3  UNL     1      18.573  39.663  21.646  1.00  0.00     0.220 C
HETATM   11  C14 UNL     1      19.148  40.590  20.645  1.00  0.00     0.281 C
HETATM   12  O4  UNL     1      19.237  41.812  21.355  1.00  0.00    -0.315 OA
BRANCH   9  13
HETATM   13  O2  UNL     1      18.100  40.263  23.922  1.00  0.00    -0.389 OA
ATOM     14  H2  UNL     1      17.918  41.177  24.107  1.00  0.00     0.210 HD
ENDBRANCH   9  13
BRANCH  10  15
HETATM   15  N3  UNL     1      18.771  38.258  21.382  1.00  0.00    -0.214 N
HETATM   16  C2  UNL     1      18.135  37.300  22.059  1.00  0.00     0.356 A
HETATM   17  N2  UNL     1      18.529  36.105  21.584  1.00  0.00    -0.139 N
HETATM   18  O1  UNL     1      17.294  37.386  22.995  1.00  0.00    -0.244 OA
HETATM   19  C1  UNL     1      19.411  36.359  20.611  1.00  0.00     0.694 A
ATOM     20  H2  UNL     1      18.217  35.187  21.903  1.00  0.00     0.189 HD
HETATM   21  N13 UNL     1      19.556  37.681  20.493  1.00  0.00    -0.125 N
ATOM     22  H13 UNL     1      20.166  38.160  19.831  1.00  0.00     0.206 HD
BRANCH  19  23
HETATM   23  N1  UNL     1      20.048  35.480  19.877  1.00  0.00    -0.233 N
ATOM     24  H12 UNL     1      19.855  35.311  18.890  1.00  0.00     0.174 HD
ATOM     25  H11 UNL     1      20.802  34.863  20.177  1.00  0.00     0.174 HD
ENDBRANCH  19  23
ENDBRANCH  10  15
BRANCH  11  26
HETATM   26  O5  UNL     1      20.430  40.299  20.234  1.00  0.00    -0.355 OA
ATOM     27  H5  UNL     1      20.526  39.503  19.726  1.00  0.00     0.213 HD
ENDBRANCH  11  26
BRANCH  11  28
HETATM   28  C15 UNL     1      18.212  40.815  19.535  1.00  0.00     0.241 C
HETATM   29  O6  UNL     1      17.870  39.905  18.742  1.00  0.00    -0.644 OA
HETATM   30  O7  UNL     1      17.681  42.081  19.350  1.00  0.00    -0.644 OA
ENDBRANCH  11  28
ENDBRANCH   1   8
BRANCH   3  31
HETATM   31  C8  UNL     1      24.048  41.349  24.739  1.00  0.00     0.277 C
HETATM   32  O3  UNL     1      25.269  41.331  24.436  1.00  0.00    -0.266 OA
HETATM   33  N5  UNL     1      23.668  41.162  26.095  1.00  0.00    -0.296 N
HETATM   34  C9  UNL     1      24.627  40.954  27.123  1.00  0.00     0.191 C
ATOM     35  H5  UNL     1      22.677  41.177  26.338  1.00  0.00     0.171 HD
HETATM   36  N6  UNL     1      26.008  40.925  26.822  1.00  0.00    -0.063 NA
HETATM   37  N7  UNL     1      24.247  40.789  28.337  1.00  0.00    -0.363 N
ATOM     38  H7  UNL     1      24.938  40.639  29.072  1.00  0.00     0.162 HD
BRANCH  37  39
HETATM   39  C10 UNL     1      22.834  40.815  28.665  1.00  0.00     0.144 C
BRANCH  39  40
HETATM   40  C11 UNL     1      22.444  39.620  29.510  1.00  0.00     0.169 C
BRANCH  40  41
HETATM   41  N8  UNL     1      21.130  39.853  30.032  1.00  0.00    -0.285 N
HETATM   42  C12 UNL     1      20.072  39.051  29.941  1.00  0.00     0.201 A
HETATM   43  N9  UNL     1      19.040  39.643  30.562  1.00  0.00    -0.346 N
HETATM   44  C13 UNL     1      19.468  40.808  31.035  1.00  0.00     0.198 A
ATOM     45  H9  UNL     1      18.096  39.266  30.654  1.00  0.00     0.167 HD
HETATM   46  N10 UNL     1      20.761  40.927  30.701  1.00  0.00    -0.293 N
ATOM     47  H10 UNL     1      21.361  41.720  30.927  1.00  0.00     0.188 HD
ENDBRANCH  40  41
ENDBRANCH  39  40
ENDBRANCH  37  39
ENDBRANCH   3  31
TORSDOF 10
ENDMDL