MODEL 1
REMARK VINA RESULT: -7.115981902      0.000      0.000
REMARK  9 active torsions:
REMARK  status: ('A' for Active; 'I' for Inactive)
REMARK    1  A    between atoms: C2_5  and  N2_6
REMARK       I    between atoms: N2_6  and  C3_8
REMARK    2  A    between atoms: C3_8  and  C4_10
REMARK    3  A    between atoms: C4_10  and  N3_11
REMARK    4  A    between atoms: C4_10  and  C5_15
REMARK    5  A    between atoms: C8_22  and  C9_23
REMARK    6  A    between atoms: N7_28  and  C10_29
REMARK    7  A    between atoms: C10_29  and  C11_30
REMARK    8  A    between atoms: C11_30  and  N8_31
REMARK    9  A    between atoms: C15_43  and  C16_44
ROOT
HETATM    1  N1  UNL     1      17.427  39.918  18.803  1.00  0.00    -0.387 N
ATOM      2  H11 UNL     1      16.812  39.242  19.256  1.00  0.00     0.157 HD
ATOM      3  H12 UNL     1      16.888  39.747  17.954  1.00  0.00     0.157 HD
HETATM    4  C1  UNL     1      18.412  40.653  19.114  1.00  0.00     0.106 C
HETATM    5  C2  UNL     1      19.320  41.652  18.446  1.00  0.00     0.202 C
HETATM    6  C6  UNL     1      19.263  42.285  19.815  1.00  0.00     0.323 C
HETATM    7  N4  UNL     1      20.534  42.809  20.305  1.00  0.00    -0.047 N
ATOM      8  H41 UNL     1      20.782  43.720  19.919  1.00  0.00     0.280 HD
ATOM      9  H42 UNL     1      21.350  42.307  19.954  1.00  0.00     0.280 HD
HETATM   10  C7  UNL     1      20.414  42.797  21.735  1.00  0.00     0.280 C
HETATM   11  C8  UNL     1      20.379  41.356  22.235  1.00  0.00     0.048 C
HETATM   12  C15 UNL     1      19.760  40.469  21.506  1.00  0.00     0.127 C
HETATM   13  N13 UNL     1      19.150  40.888  20.279  1.00  0.00    -0.297 N
ENDROOT
BRANCH  11  14
HETATM   14  C9  UNL     1      20.983  41.121  23.535  1.00  0.00     0.147 A
HETATM   15  N5  UNL     1      21.986  40.358  23.929  1.00  0.00    -0.268 N
HETATM   16  N6  UNL     1      22.157  40.505  25.244  1.00  0.00    -0.224 N
ATOM     17  H5  UNL     1      22.542  39.754  23.324  1.00  0.00     0.190 HD
HETATM   18  N7  UNL     1      21.264  41.359  25.700  1.00  0.00    -0.216 N
ATOM     19  H6  UNL     1      22.863  40.030  25.807  1.00  0.00     0.210 HD
HETATM   20  N12 UNL     1      20.550  41.740  24.680  1.00  0.00    -0.266 N
ATOM     21  H12 UNL     1      19.778  42.405  24.726  1.00  0.00     0.190 HD
BRANCH  18  22
HETATM   22  C10 UNL     1      21.072  41.832  27.093  1.00  0.00     0.191 C
BRANCH  22  23
HETATM   23  C11 UNL     1      21.622  40.801  28.001  1.00  0.00     0.149 C
BRANCH  23  24
HETATM   24  N8  UNL     1      20.953  40.502  29.206  1.00  0.00    -0.344 N
HETATM   25  C12 UNL     1      20.756  41.657  30.131  1.00  0.00     0.229 C
HETATM   26  C13 UNL     1      19.463  41.480  30.838  1.00  0.00     0.254 C
HETATM   27  O2  UNL     1      18.800  42.501  31.138  1.00  0.00    -0.270 OA
HETATM   28  N9  UNL     1      19.011  40.172  31.155  1.00  0.00    -0.266 N
HETATM   29  N10 UNL     1      19.540  39.085  30.495  1.00  0.00    -0.271 N
ATOM     30  H9  UNL     1      18.295  40.036  31.869  1.00  0.00     0.190 HD
HETATM   31  C14 UNL     1      20.457  39.244  29.575  1.00  0.00     0.205 C
ATOM     32  H10 UNL     1      19.214  38.147  30.725  1.00  0.00     0.189 HD
HETATM   33  N11 UNL     1      20.960  38.080  28.941  1.00  0.00    -0.062 NA
ENDBRANCH  23  24
ENDBRANCH  22  23
ENDBRANCH  18  22
ENDBRANCH  11  14
BRANCH  12  34
HETATM   34  C16 UNL     1      19.683  39.073  21.898  1.00  0.00     0.227 C
HETATM   35  O3  UNL     1      20.714  38.319  21.689  1.00  0.00    -0.643 OA
HETATM   36  O4  UNL     1      18.618  38.454  22.482  1.00  0.00    -0.643 OA
ENDBRANCH  12  34
BRANCH   5  37
HETATM   37  N2  UNL     1      18.697  42.404  17.407  1.00  0.00    -0.344 N
HETATM   38  C3  UNL     1      18.972  42.145  16.052  1.00  0.00     0.249 C
HETATM   39  O1  UNL     1      19.783  41.236  15.757  1.00  0.00    -0.271 OA
ATOM     40  H2  UNL     1      18.039  43.144  17.651  1.00  0.00     0.163 HD
BRANCH  38  41
HETATM   41  C4  UNL     1      18.336  42.913  14.957  1.00  0.00     0.284 C
BRANCH  41  42
HETATM   42  N3  UNL     1      19.298  43.232  13.923  1.00  0.00    -0.066 N
ATOM     43  H33 UNL     1      19.607  44.202  13.984  1.00  0.00     0.275 HD
ATOM     44  H32 UNL     1      20.194  42.775  14.087  1.00  0.00     0.275 HD
ATOM     45  H31 UNL     1      18.926  43.012  12.999  1.00  0.00     0.275 HD
ENDBRANCH  41  42
BRANCH  41  46
HETATM   46  C5  UNL     1      17.244  42.095  14.302  1.00  0.00     0.128 C
HETATM   47  S1  UNL     1      15.699  42.416  15.227  1.00  0.00    -0.095 SA
ENDBRANCH  41  46
ENDBRANCH  38  41
ENDBRANCH   5  37
TORSDOF 9
ENDMDL