MODEL 1
REMARK VINA RESULT: -8.121702407      0.000      0.000
REMARK  11 active torsions:
REMARK  status: ('A' for Active; 'I' for Inactive)
REMARK    1  A    between atoms: C2_2  and  N1_3
REMARK       I    between atoms: N1_3  and  C3_4
REMARK    2  A    between atoms: N1_3  and  C15_45
REMARK    3  A    between atoms: C3_4  and  C4_6
REMARK    4  A    between atoms: C6_11  and  N3_12
REMARK       I    between atoms: N3_12  and  C7_14
REMARK    5  A    between atoms: C7_14  and  C8_16
REMARK    6  A    between atoms: C8_16  and  C9_17
REMARK    7  A    between atoms: N6_21  and  C10_22
REMARK    8  A    between atoms: C12_27  and  O5_28
REMARK    9  A    between atoms: C13_30  and  C14_31
REMARK   10  A    between atoms: C14_31  and  N8_32
REMARK   11  A    between atoms: C14_31  and  O6_36
ROOT
HETATM    1  C8  UNL     1      23.694  41.789  18.339  1.00  0.00     0.181 C
ENDROOT
BRANCH   1   2
HETATM    2  C7  UNL     1      23.195  41.452  17.006  1.00  0.00     0.226 C
HETATM    3  N3  UNL     1      22.044  42.048  16.436  1.00  0.00    -0.325 N
ATOM      4  H3  UNL     1      21.546  42.745  16.989  1.00  0.00     0.165 HD
HETATM    5  O3  UNL     1      23.793  40.588  16.292  1.00  0.00    -0.273 OA
BRANCH   3   6
HETATM    6  C6  UNL     1      21.532  41.739  15.136  1.00  0.00     0.382 C
HETATM    7  C5  UNL     1      21.590  42.852  14.175  1.00  0.00     0.270 C
HETATM    8  N2  UNL     1      20.252  43.298  14.034  1.00  0.00    -0.322 N
HETATM    9  O2  UNL     1      22.565  43.354  13.572  1.00  0.00    -0.269 OA
HETATM   10  C4  UNL     1      19.469  42.819  15.193  1.00  0.00     0.383 C
ATOM     11  H2  UNL     1      19.889  43.856  13.262  1.00  0.00     0.165 HD
HETATM   12  N11 UNL     1      20.090  41.484  15.288  1.00  0.00    -0.016 N
ATOM     13 2H11 UNL     1      19.844  40.969  16.134  1.00  0.00     0.283 HD
ATOM     14 1H11 UNL     1      19.715  40.802  14.628  1.00  0.00     0.283 HD
BRANCH  10  15
HETATM   15  C3  UNL     1      18.055  42.614  14.825  1.00  0.00     0.277 C
HETATM   16  N1  UNL     1      16.968  42.554  15.725  1.00  0.00    -0.287 N
HETATM   17  O1  UNL     1      17.844  42.487  13.595  1.00  0.00    -0.269 OA
BRANCH  16  18
HETATM   18  C2  UNL     1      17.128  42.720  17.161  1.00  0.00     0.130 C
HETATM   19  C1  UNL     1      17.390  41.347  17.749  1.00  0.00     0.027 C
ENDBRANCH  16  18
BRANCH  16  20
HETATM   20  C15 UNL     1      15.638  42.333  15.276  1.00  0.00     0.180 C
HETATM   21  N12 UNL     1      15.292  41.367  14.453  1.00  0.00    -0.360 N
HETATM   22  C16 UNL     1      13.893  41.378  14.168  1.00  0.00     0.142 C
ATOM     23  H12 UNL     1      15.947  40.689  14.063  1.00  0.00     0.162 HD
HETATM   24  C17 UNL     1      13.518  42.821  14.476  1.00  0.00     0.142 C
HETATM   25  N13 UNL     1      14.451  43.052  15.598  1.00  0.00    -0.360 N
ATOM     26  H13 UNL     1      14.280  43.611  16.433  1.00  0.00     0.162 HD
ENDBRANCH  16  20
ENDBRANCH  10  15
ENDBRANCH   3   6
ENDBRANCH   1   2
BRANCH   1  27
HETATM   27  C9  UNL     1      22.781  41.258  19.403  1.00  0.00     0.119 A
HETATM   28  N4  UNL     1      23.053  41.121  20.721  1.00  0.00    -0.269 N
HETATM   29  N5  UNL     1      21.973  40.617  21.299  1.00  0.00     0.018 NA
ATOM     30  H4  UNL     1      23.929  41.363  21.185  1.00  0.00     0.185 HD
HETATM   31  N6  UNL     1      21.012  40.420  20.414  1.00  0.00    -0.003 N
HETATM   32  N10 UNL     1      21.521  40.817  19.250  1.00  0.00    -0.253 N
ATOM     33  H10 UNL     1      21.021  40.791  18.361  1.00  0.00     0.190 HD
BRANCH  31  34
HETATM   34  C10 UNL     1      19.705  39.896  20.636  1.00  0.00     0.720 A
HETATM   35  N7  UNL     1      18.743  40.644  21.202  1.00  0.00    -0.151 N
HETATM   36  C11 UNL     1      17.499  40.179  21.427  1.00  0.00     0.295 A
ATOM     37  H7  UNL     1      18.963  41.603  21.472  1.00  0.00     0.188 HD
HETATM   38  O4  UNL     1      16.601  40.902  21.964  1.00  0.00    -0.265 OA
HETATM   39  C12 UNL     1      17.201  38.891  21.063  1.00  0.00     0.162 A
HETATM   40  C13 UNL     1      18.190  38.122  20.481  1.00  0.00     0.120 A
HETATM   41  N9  UNL     1      19.417  38.641  20.281  1.00  0.00    -0.185 N
ATOM     42  H9  UNL     1      20.140  38.064  19.849  1.00  0.00     0.184 HD
BRANCH  39  43
HETATM   43  O5  UNL     1      15.919  38.391  21.289  1.00  0.00    -0.354 OA
ATOM     44  H5  UNL     1      15.593  37.677  20.753  1.00  0.00     0.218 HD
ENDBRANCH  39  43
BRANCH  40  45
HETATM   45  C14 UNL     1      17.846  36.729  20.096  1.00  0.00     0.370 C
BRANCH  45  46
HETATM   46  N8  UNL     1      16.737  36.758  19.156  1.00  0.00    -0.047 N
ATOM     47  H83 UNL     1      16.208  37.629  19.206  1.00  0.00     0.277 HD
ATOM     48  H82 UNL     1      17.050  36.837  18.188  1.00  0.00     0.277 HD
ATOM     49  H81 UNL     1      16.150  35.938  19.310  1.00  0.00     0.277 HD
ENDBRANCH  45  46
BRANCH  45  50
HETATM   50  O6  UNL     1      17.434  36.002  21.205  1.00  0.00    -0.365 OA
ATOM     51  H6  UNL     1      18.145  35.467  21.539  1.00  0.00     0.212 HD
ENDBRANCH  45  50
ENDBRANCH  40  45
ENDBRANCH  31  34
ENDBRANCH   1  27
TORSDOF 11
ENDMDL