MODEL 5
REMARK VINA RESULT: -7.538762526      2.152      7.709
REMARK  11 active torsions:
REMARK  status: ('A' for Active; 'I' for Inactive)
REMARK    1  A    between atoms: N1_1  and  C1_4
REMARK    2  A    between atoms: N2_7  and  C4_8
REMARK    3  A    between atoms: C4_8  and  C5_9
REMARK    4  A    between atoms: C5_9  and  C6_10
REMARK    5  A    between atoms: C6_10  and  C7_11
REMARK    6  A    between atoms: N4_16  and  C9_17
REMARK    7  A    between atoms: C10_19  and  C11_20
REMARK    8  A    between atoms: C11_20  and  N5_21
REMARK    9  A    between atoms: C14_31  and  N9_32
REMARK   10  A    between atoms: C16_38  and  O4_39
REMARK   11  A    between atoms: C17_41  and  N11_42
ROOT
HETATM    1  C9  UNL     1      19.761  42.636  20.475  1.00  0.00     0.262 C
HETATM    2  O2  UNL     1      20.042  41.363  20.958  1.00  0.00    -0.354 OA
HETATM    3  C10 UNL     1      20.882  41.449  22.078  1.00  0.00     0.175 C
HETATM    4  C16 UNL     1      20.574  42.863  22.601  1.00  0.00     0.175 C
HETATM    5  C17 UNL     1      20.757  43.447  21.155  1.00  0.00     0.155 C
ENDROOT
BRANCH   1   6
HETATM    6  N4  UNL     1      19.670  42.570  19.082  1.00  0.00    -0.221 N
HETATM    7  C8  UNL     1      18.684  43.161  18.400  1.00  0.00     0.334 A
HETATM    8  N3  UNL     1      18.575  43.112  17.061  1.00  0.00    -0.297 N
HETATM    9  O1  UNL     1      17.831  43.783  19.034  1.00  0.00    -0.246 OA
HETATM   10  C7  UNL     1      19.485  42.446  16.362  1.00  0.00     0.088 A
ATOM     11  H3  UNL     1      17.802  43.580  16.588  1.00  0.00     0.172 HD
HETATM   12  N12 UNL     1      20.486  41.840  16.994  1.00  0.00    -0.297 N
HETATM   13  C18 UNL     1      20.579  41.902  18.351  1.00  0.00     0.334 A
ATOM     14  H12 UNL     1      21.187  41.327  16.459  1.00  0.00     0.172 HD
HETATM   15  O5  UNL     1      21.564  41.294  18.843  1.00  0.00    -0.246 OA
BRANCH  10  16
HETATM   16  C6  UNL     1      19.327  42.415  14.863  1.00  0.00     0.078 C
BRANCH  16  17
HETATM   17  C5  UNL     1      17.959  42.849  14.450  1.00  0.00     0.029 C
BRANCH  17  18
HETATM   18  C4  UNL     1      17.042  41.681  14.310  1.00  0.00     0.148 C
BRANCH  18  19
HETATM   19  N2  UNL     1      15.666  41.952  14.580  1.00  0.00    -0.302 N
HETATM   20  C3  UNL     1      15.156  42.966  15.298  1.00  0.00     0.114 A
HETATM   21  C2  UNL     1      13.782  42.857  15.311  1.00  0.00     0.068 A
HETATM   22  C1  UNL     1      13.484  41.725  14.567  1.00  0.00     0.114 A
HETATM   23  N13 UNL     1      14.645  41.235  14.163  1.00  0.00    -0.284 N
ATOM     24  H13 UNL     1      14.738  40.396  13.592  1.00  0.00     0.188 HD
BRANCH  22  25
HETATM   25  N1  UNL     1      12.295  41.256  14.326  1.00  0.00    -0.384 N
ATOM     26  H12 UNL     1      12.023  40.583  13.610  1.00  0.00     0.157 HD
ATOM     27  H11 UNL     1      11.441  41.497  14.827  1.00  0.00     0.157 HD
ENDBRANCH  22  25
ENDBRANCH  18  19
ENDBRANCH  17  18
ENDBRANCH  16  17
ENDBRANCH  10  16
ENDBRANCH   1   6
BRANCH   5  28
HETATM   28  N11 UNL     1      22.061  43.570  20.741  1.00  0.00    -0.420 N
ATOM     29 2H11 UNL     1      22.307  44.483  20.360  1.00  0.00     0.150 HD
ATOM     30 1H11 UNL     1      22.868  43.444  21.352  1.00  0.00     0.150 HD
ENDBRANCH   5  28
BRANCH   3  31
HETATM   31  C11 UNL     1      20.462  40.423  23.072  1.00  0.00     0.187 C
BRANCH  31  32
HETATM   32  N5  UNL     1      19.214  39.772  22.812  1.00  0.00    -0.257 N
HETATM   33  N6  UNL     1      18.023  40.216  23.263  1.00  0.00    -0.238 N
HETATM   34  N7  UNL     1      17.046  39.453  22.835  1.00  0.00    -0.278 N
ATOM     35  H6  UNL     1      17.899  41.035  23.857  1.00  0.00     0.208 HD
HETATM   36  C12 UNL     1      17.604  38.479  22.083  1.00  0.00     0.164 A
ATOM     37  H7  UNL     1      16.053  39.571  23.033  1.00  0.00     0.189 HD
HETATM   38  C13 UNL     1      17.083  37.402  21.397  1.00  0.00     0.291 A
HETATM   39  C15 UNL     1      18.973  38.701  22.084  1.00  0.00     0.173 A
HETATM   40  O3  UNL     1      15.825  37.240  21.423  1.00  0.00    -0.265 OA
HETATM   41  N8  UNL     1      17.838  36.532  20.713  1.00  0.00    -0.154 N
HETATM   42  C14 UNL     1      19.169  36.763  20.726  1.00  0.00     0.680 A
ATOM     43  H8  UNL     1      17.432  35.741  20.212  1.00  0.00     0.187 HD
HETATM   44  N10 UNL     1      19.701  37.804  21.386  1.00  0.00    -0.173 N
ATOM     45  H10 UNL     1      20.713  37.923  21.358  1.00  0.00     0.186 HD
BRANCH  42  46
HETATM   46  N9  UNL     1      19.926  35.933  20.071  1.00  0.00    -0.234 N
ATOM     47  H92 UNL     1      19.529  35.110  19.618  1.00  0.00     0.174 HD
ATOM     48  H91 UNL     1      20.923  36.142  20.030  1.00  0.00     0.174 HD
ENDBRANCH  42  46
ENDBRANCH  31  32
ENDBRANCH   3  31
BRANCH   4  49
HETATM   49  O4  UNL     1      19.251  43.026  22.946  1.00  0.00    -0.391 OA
ATOM     50  H4  UNL     1      19.086  42.838  23.862  1.00  0.00     0.210 HD
ENDBRANCH   4  49
TORSDOF 11
ENDMDL