MODEL 5
REMARK VINA RESULT: -6.466692994      3.387      8.305
REMARK  13 active torsions:
REMARK  status: ('A' for Active; 'I' for Inactive)
REMARK    1  A    between atoms: N1_1  and  N2_4
REMARK    2  A    between atoms: N3_6  and  C1_8
REMARK    3  A    between atoms: C2_9  and  O1_10
REMARK    4  A    between atoms: C3_13  and  N4_14
REMARK    5  A    between atoms: C4_15  and  C5_16
REMARK       I    between atoms: C5_16  and  N5_18
REMARK    6  A    between atoms: N5_18  and  C6_20
REMARK    7  A    between atoms: C6_20  and  C7_21
REMARK    8  A    between atoms: C6_20  and  C8_24
REMARK    9  A    between atoms: C8_24  and  N6_25
REMARK   10  A    between atoms: C8_24  and  O6_29
REMARK   11  A    between atoms: C10_34  and  N8_35
REMARK   12  A    between atoms: C13_44  and  N11_45
REMARK       I    between atoms: N11_45  and  C14_47
REMARK   13  A    between atoms: C14_47  and  C15_49
ROOT
HETATM    1  N4  UNL     1      18.333  42.643  18.757  1.00  0.00    -0.279 N
HETATM    2  C4  UNL     1      18.522  41.943  19.924  1.00  0.00     0.181 A
HETATM    3  N7  UNL     1      19.521  42.596  20.610  1.00  0.00    -0.332 N
ATOM      4  H7  UNL     1      19.893  42.318  21.517  1.00  0.00     0.168 HD
HETATM    5  C9  UNL     1      19.919  43.634  19.911  1.00  0.00     0.123 A
HETATM    6  C10 UNL     1      20.881  44.592  20.173  1.00  0.00     0.131 A
HETATM    7  N9  UNL     1      21.102  45.576  19.286  1.00  0.00    -0.337 N
ATOM      8  H9  UNL     1      21.807  46.292  19.461  1.00  0.00     0.168 HD
HETATM    9  C11 UNL     1      20.365  45.590  18.157  1.00  0.00     0.183 A
HETATM   10  N10 UNL     1      19.430  44.674  17.882  1.00  0.00    -0.336 N
ATOM     11  H10 UNL     1      18.899  44.729  17.013  1.00  0.00     0.168 HD
HETATM   12  C12 UNL     1      19.195  43.695  18.743  1.00  0.00     0.143 A
ENDROOT
BRANCH   1  13
HETATM   13  C3  UNL     1      17.366  42.197  17.839  1.00  0.00     0.283 C
HETATM   14  O2  UNL     1      17.873  40.956  17.332  1.00  0.00    -0.329 OA
HETATM   15  C2  UNL     1      18.761  41.317  16.337  1.00  0.00     0.289 C
HETATM   16  C1  UNL     1      18.168  42.558  15.674  1.00  0.00     0.205 C
HETATM   17  C13 UNL     1      17.013  42.810  16.573  1.00  0.00     0.068 C
BRANCH  15  18
HETATM   18  O1  UNL     1      20.039  41.583  16.748  1.00  0.00    -0.369 OA
ATOM     19  H1  UNL     1      20.355  40.867  17.288  1.00  0.00     0.212 HD
ENDBRANCH  15  18
BRANCH  16  20
HETATM   20  N3  UNL     1      17.663  42.195  14.338  1.00  0.00    -0.307 N
HETATM   21  N2  UNL     1      16.716  41.397  14.255  1.00  0.00    -0.253 N
ATOM     22  H2  UNL     1      15.920  42.032  14.201  1.00  0.00     0.207 HD
ATOM     23  H3  UNL     1      18.083  42.591  13.498  1.00  0.00     0.182 HD
BRANCH  21  24
HETATM   24  N1  UNL     1      16.157  40.300  14.199  1.00  0.00    -0.331 N
ATOM     25  H12 UNL     1      16.806  39.831  13.567  1.00  0.00     0.178 HD
ATOM     26  H11 UNL     1      15.449  39.595  14.402  1.00  0.00     0.178 HD
ENDBRANCH  21  24
ENDBRANCH  16  20
BRANCH  17  27
HETATM   27  N11 UNL     1      16.296  44.000  16.470  1.00  0.00    -0.319 N
HETATM   28  C14 UNL     1      15.049  44.085  15.765  1.00  0.00     0.322 C
HETATM   29  O7  UNL     1      14.584  43.045  15.220  1.00  0.00    -0.261 OA
ATOM     30  H11 UNL     1      16.671  44.840  16.910  1.00  0.00     0.169 HD
BRANCH  28  31
HETATM   31  C15 UNL     1      14.281  45.309  15.640  1.00  0.00     0.270 C
HETATM   32  O8  UNL     1      14.112  46.044  16.641  1.00  0.00    -0.640 OA
HETATM   33  O9  UNL     1      13.725  45.688  14.433  1.00  0.00    -0.640 OA
ENDBRANCH  28  31
ENDBRANCH  17  27
ENDBRANCH   1  13
BRANCH   2  34
HETATM   34  C5  UNL     1      17.865  40.771  20.463  1.00  0.00     0.286 C
HETATM   35  O3  UNL     1      16.950  40.827  21.280  1.00  0.00    -0.264 OA
HETATM   36  N5  UNL     1      18.290  39.459  20.035  1.00  0.00    -0.336 N
ATOM     37  H5  UNL     1      19.048  39.374  19.358  1.00  0.00     0.164 HD
BRANCH  36  38
HETATM   38  C6  UNL     1      17.659  38.263  20.550  1.00  0.00     0.242 C
BRANCH  38  39
HETATM   39  C7  UNL     1      18.348  37.739  21.741  1.00  0.00     0.201 C
HETATM   40  O4  UNL     1      19.435  38.235  22.126  1.00  0.00    -0.646 OA
HETATM   41  O5  UNL     1      17.826  36.687  22.478  1.00  0.00    -0.646 OA
ENDBRANCH  38  39
BRANCH  38  42
HETATM   42  C8  UNL     1      17.588  37.173  19.500  1.00  0.00     0.349 C
BRANCH  42  43
HETATM   43  N6  UNL     1      18.752  36.326  19.664  1.00  0.00    -0.051 N
ATOM     44  H63 UNL     1      18.785  35.871  20.577  1.00  0.00     0.277 HD
ATOM     45  H62 UNL     1      18.710  35.481  19.095  1.00  0.00     0.277 HD
ATOM     46  H61 UNL     1      19.578  36.892  19.473  1.00  0.00     0.277 HD
ENDBRANCH  42  43
BRANCH  42  47
HETATM   47  O6  UNL     1      16.467  36.372  19.688  1.00  0.00    -0.368 OA
ATOM     48  H6  UNL     1      16.513  35.590  19.151  1.00  0.00     0.212 HD
ENDBRANCH  42  47
ENDBRANCH  38  42
ENDBRANCH  36  38
ENDBRANCH   2  34
BRANCH   6  49
HETATM   49  N8  UNL     1      21.557  44.534  21.265  1.00  0.00    -0.383 N
ATOM     50  H82 UNL     1      22.013  43.666  21.546  1.00  0.00     0.157 HD
ATOM     51  H81 UNL     1      21.639  45.363  21.854  1.00  0.00     0.157 HD
ENDBRANCH   6  49
TORSDOF 13
ENDMDL