MODEL 5
REMARK VINA RESULT: -4.731769101      1.699      2.293
REMARK  4 active torsions:
REMARK  status: ('A' for Active; 'I' for Inactive)
REMARK    1  A    between atoms: C2_2  and  C3_3
REMARK    2  A    between atoms: C6_6  and  N1_7
REMARK    3  A    between atoms: C6_6  and  C7_11
REMARK    4  A    between atoms: C7_11  and  N2_12
ROOT
HETATM    1  C3  UNL     1      -5.298  11.782  -3.819  1.00  0.00    -0.012 C
HETATM    2  C4  UNL     1      -6.667  11.376  -4.258  1.00  0.00     0.007 C
HETATM    3  C5  UNL     1      -6.645  10.298  -5.305  1.00  0.00     0.044 C
HETATM    4  C6  UNL     1      -5.872   9.086  -4.911  1.00  0.00     0.177 C
HETATM    5  C8  UNL     1      -5.244   9.330  -3.568  1.00  0.00     0.208 C
HETATM    6  F1  UNL     1      -4.385   8.313  -3.192  1.00  0.00    -0.247 F
HETATM    7  C9  UNL     1      -4.412  10.598  -3.623  1.00  0.00     0.044 C
ENDROOT
BRANCH   4   8
HETATM    8  N1  UNL     1      -4.846   8.838  -5.886  1.00  0.00    -0.066 N
ATOM      9  H13 UNL     1      -5.213   8.388  -6.725  1.00  0.00     0.275 HD
ATOM     10  H12 UNL     1      -4.508   9.697  -6.318  1.00  0.00     0.275 HD
ATOM     11  H11 UNL     1      -4.094   8.300  -5.456  1.00  0.00     0.275 HD
ENDBRANCH   4   8
BRANCH   4  12
HETATM   12  C7  UNL     1      -6.771   7.865  -4.843  1.00  0.00     0.271 C
BRANCH  12  13
HETATM   13  N2  UNL     1      -6.372   6.844  -5.765  1.00  0.00    -0.077 N
ATOM     14  H23 UNL     1      -6.381   5.925  -5.324  1.00  0.00     0.274 HD
ATOM     15  H22 UNL     1      -7.087   6.691  -6.477  1.00  0.00     0.274 HD
ATOM     16  H21 UNL     1      -5.465   7.039  -6.190  1.00  0.00     0.274 HD
ENDBRANCH  12  13
ENDBRANCH   4  12
BRANCH   1  17
HETATM   17  C2  UNL     1      -5.372  12.614  -2.560  1.00  0.00     0.000 C
HETATM   18  C1  UNL     1      -5.647  14.049  -2.917  1.00  0.00     0.005 C
ENDBRANCH   1  17
TORSDOF 4
ENDMDL