MODEL 4
REMARK VINA RESULT: -4.611023280      1.767      2.448
REMARK  3 active torsions:
REMARK  status: ('A' for Active; 'I' for Inactive)
REMARK    1  A    between atoms: C6_7  and  N1_8
REMARK    2  A    between atoms: N1_8  and  C7_10
REMARK    3  A    between atoms: C7_10  and  C8_11
ROOT
HETATM    1  C1  UNL     1      -6.305   8.982  -3.222  1.00  0.00     0.046 C
HETATM    2  C2  UNL     1      -5.599   9.681  -4.374  1.00  0.00     0.125 C
HETATM    3  C3  UNL     1      -5.651   8.739  -5.550  1.00  0.00     0.046 C
HETATM    4  C4  UNL     1      -4.161   9.840  -3.942  1.00  0.00     0.064 C
HETATM    5  C5  UNL     1      -3.978  11.262  -3.475  1.00  0.00     0.174 C
HETATM    6  O1  UNL     1      -5.040  11.745  -2.766  1.00  0.00    -0.344 OA
HETATM    7  C6  UNL     1      -6.265  11.729  -3.424  1.00  0.00     0.425 C
HETATM    8  N2  UNL     1      -6.240  10.932  -4.621  1.00  0.00    -0.023 N
ATOM      9  H21 UNL     1      -7.173  10.809  -5.015  1.00  0.00     0.283 HD
ATOM     10  H22 UNL     1      -5.811  11.431  -5.401  1.00  0.00     0.283 HD
ENDROOT
BRANCH   7  11
HETATM   11  N1  UNL     1      -6.765  13.066  -3.644  1.00  0.00    -0.374 N
ATOM     12  H1  UNL     1      -7.762  13.258  -3.736  1.00  0.00     0.157 HD
BRANCH  11  13
HETATM   13  C7  UNL     1      -5.797  14.097  -3.723  1.00  0.00     0.133 C
BRANCH  13  14
HETATM   14  C8  UNL     1      -6.116  15.091  -2.598  1.00  0.00     0.134 C
HETATM   15 CL1  UNL     1      -4.799  14.970  -1.387  1.00  0.00    -0.129 Cl
ENDBRANCH  13  14
ENDBRANCH  11  13
ENDBRANCH   7  11
TORSDOF 3
ENDMDL