MODEL 1
REMARK VINA RESULT: -5.659941366      0.000      0.000
REMARK  2 active torsions:
REMARK  status: ('A' for Active; 'I' for Inactive)
REMARK    1  A    between atoms: C2_2  and  C3_4
REMARK    2  A    between atoms: C3_4  and  C4_5
ROOT
HETATM    1  C4  UNL     1      -5.272  13.065  -3.361  1.00  0.00    -0.010 C
HETATM    2  C5  UNL     1      -5.737  14.390  -3.822  1.00  0.00     0.024 C
HETATM    3  C6  UNL     1      -6.421  15.124  -2.660  1.00  0.00     0.114 C
HETATM    4  N1  UNL     1      -5.324  15.402  -1.750  1.00  0.00    -0.421 N
ATOM      5  H1  UNL     1      -5.037  16.352  -1.514  1.00  0.00     0.153 HD
HETATM    6  C7  UNL     1      -4.680  14.260  -1.213  1.00  0.00     0.114 C
HETATM    7  C8  UNL     1      -4.365  13.151  -2.154  1.00  0.00     0.024 C
ENDROOT
BRANCH   1   8
HETATM    8  C3  UNL     1      -6.304  12.028  -3.065  1.00  0.00     0.020 C
BRANCH   8   9
HETATM    9  C2  UNL     1      -6.156  10.684  -3.664  1.00  0.00     0.055 C
HETATM   10  C1  UNL     1      -6.626  10.807  -5.139  1.00  0.00     0.022 C
HETATM   11  S1  UNL     1      -4.380  10.246  -3.853  1.00  0.00    -0.093 SA
ENDBRANCH   8   9
ENDBRANCH   1   8
TORSDOF 2
ENDMDL