MODEL 3
REMARK VINA RESULT: -4.276635443      1.820      2.791
REMARK  2 active torsions:
REMARK  status: ('A' for Active; 'I' for Inactive)
REMARK    1  A    between atoms: C2_2  and  C3_3
REMARK    2  A    between atoms: C3_3  and  N1_4
ROOT
HETATM    1  C3  UNL     1      -5.571   9.611  -4.336  1.00  0.00     0.127 C
HETATM    2  C5  UNL     1      -4.913   8.919  -5.470  1.00  0.00     0.044 C
HETATM    3  C6  UNL     1      -5.686   7.713  -5.976  1.00  0.00     0.056 C
HETATM    4  C7  UNL     1      -6.084   6.824  -4.870  1.00  0.00    -0.002 C
HETATM    5  N2  UNL     1      -6.698   5.754  -5.111  1.00  0.00    -0.404 N
ATOM      6  H21 UNL     1      -6.973   5.139  -4.345  1.00  0.00     0.155 HD
ATOM      7  H22 UNL     1      -6.933   5.469  -6.062  1.00  0.00     0.155 HD
HETATM    8  C8  UNL     1      -5.743   7.235  -3.498  1.00  0.00     0.129 C
HETATM    9 CL1  UNL     1      -6.623   6.266  -2.278  1.00  0.00    -0.119 Cl
HETATM   10  C9  UNL     1      -6.206   8.667  -3.351  1.00  0.00     0.065 C
ENDROOT
BRANCH   1  11
HETATM   11  C2  UNL     1      -4.669  10.575  -3.609  1.00  0.00     0.034 C
HETATM   12  C1  UNL     1      -3.216  10.393  -3.872  1.00  0.00     0.007 C
ENDBRANCH   1  11
BRANCH   1  13
HETATM   13  N1  UNL     1      -6.658  10.422  -4.914  1.00  0.00    -0.070 N
HETATM   14  C4  UNL     1      -6.743  11.722  -4.299  1.00  0.00     0.267 C
ATOM     15  H12 UNL     1      -6.566  10.496  -5.927  1.00  0.00     0.277 HD
ATOM     16  H11 UNL     1      -7.550   9.932  -4.868  1.00  0.00     0.277 HD
ENDBRANCH   1  13
TORSDOF 2
ENDMDL