MODEL 4
REMARK VINA RESULT: -4.268970461      3.298      4.358
REMARK  3 active torsions:
REMARK  status: ('A' for Active; 'I' for Inactive)
REMARK    1  A    between atoms: C3_6  and  C5_8
REMARK    2  A    between atoms: C5_8  and  C6_9
REMARK    3  A    between atoms: C6_9  and  O1_10
ROOT
HETATM    1  C1  UNL     1      -6.182   6.797  -2.239  1.00  0.00     0.041 C
HETATM    2  C2  UNL     1      -5.388   6.968  -3.497  1.00  0.00     0.201 C
HETATM    3  N1  UNL     1      -5.485   5.881  -4.416  1.00  0.00    -0.061 N
ATOM      4  H11 UNL     1      -6.006   5.092  -4.035  1.00  0.00     0.278 HD
ATOM      5  H12 UNL     1      -4.593   5.405  -4.555  1.00  0.00     0.278 HD
HETATM    6  C3  UNL     1      -6.048   6.374  -5.651  1.00  0.00     0.126 C
HETATM    7  C4  UNL     1      -5.423   5.745  -6.852  1.00  0.00     0.046 C
HETATM    8  C7  UNL     1      -5.656   7.838  -5.656  1.00  0.00     0.060 C
HETATM    9  C8  UNL     1      -5.880   8.214  -4.211  1.00  0.00     0.114 C
HETATM   10 CL1  UNL     1      -4.774   9.532  -3.777  1.00  0.00    -0.123 Cl
ENDROOT
BRANCH   6  11
HETATM   11  C5  UNL     1      -7.539   6.197  -5.576  1.00  0.00     0.064 C
BRANCH  11  12
HETATM   12  C6  UNL     1      -7.968   4.799  -5.285  1.00  0.00     0.166 C
BRANCH  12  13
HETATM   13  O1  UNL     1      -8.297   4.602  -3.957  1.00  0.00    -0.401 OA
ATOM     14  H1  UNL     1      -7.570   4.270  -3.441  1.00  0.00     0.209 HD
ENDBRANCH  12  13
ENDBRANCH  11  12
ENDBRANCH   6  11
TORSDOF 3
ENDMDL