MODEL 2
REMARK VINA RESULT: -4.400105836      2.347      3.701
REMARK  2 active torsions:
REMARK  status: ('A' for Active; 'I' for Inactive)
REMARK    1  A    between atoms: N3_11  and  C6_12
REMARK    2  A    between atoms: C6_12  and  C7_13
ROOT
HETATM    1  C1  UNL     1      -5.303   6.704  -6.695  1.00  0.00     0.034 C
HETATM    2  C2  UNL     1      -6.070   6.679  -5.415  1.00  0.00     0.032 C
HETATM    3  C3  UNL     1      -7.448   6.099  -5.588  1.00  0.00     0.034 C
HETATM    4  C4  UNL     1      -5.343   5.789  -4.421  1.00  0.00     0.103 C
HETATM    5  C5  UNL     1      -5.588   6.488  -3.129  1.00  0.00     0.087 C
HETATM    6  N1  UNL     1      -5.140   6.109  -1.986  1.00  0.00    -0.388 N
ATOM      7  H11 UNL     1      -5.307   6.588  -1.102  1.00  0.00     0.157 HD
ATOM      8  H12 UNL     1      -4.575   5.282  -1.793  1.00  0.00     0.157 HD
HETATM    9  N2  UNL     1      -6.389   7.662  -3.403  1.00  0.00    -0.308 N
ATOM     10  H2  UNL     1      -6.975   8.173  -2.743  1.00  0.00     0.182 HD
HETATM   11  N3  UNL     1      -6.196   7.952  -4.754  1.00  0.00    -0.220 NA
ENDROOT
BRANCH  11  12
HETATM   12  C6  UNL     1      -5.097   8.837  -4.966  1.00  0.00     0.129 C
BRANCH  12  13
HETATM   13  C7  UNL     1      -5.266  10.034  -4.061  1.00  0.00     0.131 C
HETATM   14 CL1  UNL     1      -6.644  11.005  -4.571  1.00  0.00    -0.129 Cl
ENDBRANCH  12  13
ENDBRANCH  11  12
TORSDOF 2
ENDMDL