MODEL 3
REMARK VINA RESULT: -4.859650708      3.149      4.991
REMARK  3 active torsions:
REMARK  status: ('A' for Active; 'I' for Inactive)
REMARK    1  A    between atoms: C1_4  and  C2_5
REMARK    2  A    between atoms: C1_4  and  N2_7
REMARK    3  A    between atoms: N2_7  and  C3_9
ROOT
HETATM    1  N2  UNL     1      -5.872  12.019  -2.923  1.00  0.00    -0.366 N
ATOM      2  H2  UNL     1      -6.533  11.652  -2.238  1.00  0.00     0.162 HD
ENDROOT
BRANCH   1   3
HETATM    3  C1  UNL     1      -5.218  13.258  -2.695  1.00  0.00     0.085 C
HETATM    4  N1  UNL     1      -4.297  13.339  -1.801  1.00  0.00    -0.388 N
ATOM      5  H12 UNL     1      -3.827  14.229  -1.637  1.00  0.00     0.157 HD
ATOM      6  H11 UNL     1      -4.069  12.493  -1.281  1.00  0.00     0.157 HD
BRANCH   3   7
HETATM    7  C2  UNL     1      -5.551  14.489  -3.453  1.00  0.00     0.190 C
HETATM    8 CL1  UNL     1      -6.678  15.511  -2.562  1.00  0.00    -0.122 Cl
ENDBRANCH   3   7
ENDBRANCH   1   3
BRANCH   1   9
HETATM    9  C3  UNL     1      -5.594  11.288  -4.126  1.00  0.00     0.145 C
HETATM   10  C4  UNL     1      -6.733  10.575  -4.708  1.00  0.00     0.037 C
HETATM   11  C5  UNL     1      -6.488   9.201  -5.065  1.00  0.00     0.013 C
HETATM   12  C6  UNL     1      -5.059   8.837  -5.101  1.00  0.00     0.076 C
HETATM   13  S1  UNL     1      -4.348   9.993  -3.863  1.00  0.00    -0.144 SA
ENDBRANCH   1   9
TORSDOF 3
ENDMDL