MODEL 2
REMARK VINA RESULT: -5.225972619      2.367      4.875
REMARK  2 active torsions:
REMARK  status: ('A' for Active; 'I' for Inactive)
REMARK    1  A    between atoms: C2_2  and  C3_3
REMARK    2  A    between atoms: C5_7  and  C6_8
ROOT
HETATM    1  C3  UNL     1      -5.323  12.437  -2.853  1.00  0.00     0.223 C
HETATM    2  C4  UNL     1      -6.215  12.588  -4.058  1.00  0.00     0.088 C
HETATM    3  N1  UNL     1      -6.793  11.341  -4.373  1.00  0.00    -0.393 N
ATOM      4  H1  UNL     1      -7.702  11.282  -4.833  1.00  0.00     0.159 HD
HETATM    5  C5  UNL     1      -6.071  10.175  -4.030  1.00  0.00     0.124 C
HETATM    6  C8  UNL     1      -4.675  10.321  -3.606  1.00  0.00     0.259 C
HETATM    7  N2  UNL     1      -4.223  11.617  -3.251  1.00  0.00    -0.064 N
ATOM      8  H21 UNL     1      -3.497  11.583  -2.535  1.00  0.00     0.278 HD
ATOM      9  H22 UNL     1      -3.680  12.048  -3.998  1.00  0.00     0.278 HD
ENDROOT
BRANCH   5  10
HETATM   10  C6  UNL     1      -6.185   9.204  -5.213  1.00  0.00     0.102 C
HETATM   11  C7  UNL     1      -4.850   8.946  -5.850  1.00  0.00     0.029 C
HETATM   12 CL1  UNL     1      -6.844   7.638  -4.688  1.00  0.00    -0.123 Cl
ENDBRANCH   5  10
BRANCH   1  13
HETATM   13  C2  UNL     1      -4.923  13.763  -2.266  1.00  0.00     0.034 C
HETATM   14  C1  UNL     1      -5.845  14.882  -2.603  1.00  0.00     0.007 C
ENDBRANCH   1  13
TORSDOF 2
ENDMDL