MODEL 4
REMARK VINA RESULT: -4.644555085      2.262      2.590
REMARK  2 active torsions:
REMARK  status: ('A' for Active; 'I' for Inactive)
REMARK    1  A    between atoms: C2_2  and  C3_3
REMARK    2  A    between atoms: C3_3  and  C4_4
ROOT
HETATM    1  C4  UNL     1      -5.548   7.730  -3.819  1.00  0.00     0.101 C
HETATM    2  C5  UNL     1      -6.362   7.182  -2.711  1.00  0.00     0.030 C
HETATM    3  C6  UNL     1      -6.530   5.691  -2.715  1.00  0.00     0.080 C
HETATM    4  C7  UNL     1      -6.610   5.110  -4.067  1.00  0.00     0.106 C
HETATM    5  N1  UNL     1      -7.241   4.013  -4.296  1.00  0.00    -0.387 N
ATOM      6  H11 UNL     1      -7.296   3.611  -5.232  1.00  0.00     0.157 HD
ATOM      7  H12 UNL     1      -7.705   3.519  -3.535  1.00  0.00     0.157 HD
HETATM    8  N2  UNL     1      -5.962   5.801  -5.130  1.00  0.00    -0.187 N
HETATM    9 CL1  UNL     1      -6.320   5.431  -6.794  1.00  0.00     0.034 Cl
HETATM   10  N3  UNL     1      -5.042   6.771  -4.748  1.00  0.00    -0.116 NA
ENDROOT
BRANCH   1  11
HETATM   11  C3  UNL     1      -6.273   8.872  -4.547  1.00  0.00     0.023 C
BRANCH  11  12
HETATM   12  C2  UNL     1      -5.564  10.174  -4.220  1.00  0.00    -0.003 C
HETATM   13  C1  UNL     1      -6.546  11.308  -4.259  1.00  0.00     0.005 C
ENDBRANCH  11  12
ENDBRANCH   1  11
TORSDOF 2
ENDMDL