MODEL 4
REMARK VINA RESULT: -5.032895082      1.374      2.361
REMARK  3 active torsions:
REMARK  status: ('A' for Active; 'I' for Inactive)
REMARK    1  A    between atoms: C5_5  and  N1_6
REMARK    2  A    between atoms: N1_6  and  N2_7
REMARK    3  A    between atoms: N1_6  and  C6_10
ROOT
HETATM    1  C1  UNL     1      -6.912  15.360  -1.968  1.00  0.00     0.010 C
HETATM    2  C2  UNL     1      -5.581  14.998  -2.644  1.00  0.00    -0.019 C
HETATM    3  C3  UNL     1      -4.701  14.230  -1.746  1.00  0.00     0.006 C
HETATM    4  C4  UNL     1      -4.404  12.836  -2.063  1.00  0.00     0.027 C
HETATM    5  C5  UNL     1      -4.911  12.303  -3.389  1.00  0.00     0.102 C
HETATM    6  C9  UNL     1      -6.255  12.899  -3.658  1.00  0.00     0.027 C
HETATM    7  C10 UNL     1      -5.927  14.366  -3.945  1.00  0.00     0.006 C
ENDROOT
BRANCH   5   8
HETATM    8  N1  UNL     1      -4.957  10.895  -3.409  1.00  0.00    -0.326 N
BRANCH   8   9
HETATM    9  N2  UNL     1      -3.814  10.205  -3.666  1.00  0.00    -0.347 N
ATOM     10  H22 UNL     1      -2.936  10.705  -3.528  1.00  0.00     0.176 HD
ATOM     11  H21 UNL     1      -3.776   9.212  -3.434  1.00  0.00     0.176 HD
ENDBRANCH   8   9
BRANCH   8  12
HETATM   12  C6  UNL     1      -6.158  10.356  -3.930  1.00  0.00     0.094 C
HETATM   13  C7  UNL     1      -6.302   8.919  -3.480  1.00  0.00     0.033 C
HETATM   14  C8  UNL     1      -6.366  10.465  -5.396  1.00  0.00     0.033 C
ENDBRANCH   8  12
ENDBRANCH   5   8
TORSDOF 3
ENDMDL