MODEL 4
REMARK VINA RESULT: -7.290064481      2.033      7.460
REMARK  16 active torsions:
REMARK  status: ('A' for Active; 'I' for Inactive)
REMARK    1  A    between atoms: C2_2  and  C3_3
REMARK    2  A    between atoms: C3_3  and  C5_5
REMARK    3  A    between atoms: C5_5  and  C6_6
REMARK    4  A    between atoms: C5_5  and  N1_13
REMARK    5  A    between atoms: C6_6  and  C7_7
REMARK       I    between atoms: N1_13  and  C13_15
REMARK    6  A    between atoms: C13_15  and  C14_17
REMARK    7  A    between atoms: C14_17  and  C15_18
REMARK    8  A    between atoms: C14_17  and  N3_25
REMARK    9  A    between atoms: C15_18  and  N2_19
REMARK       I    between atoms: N3_25  and  C21_27
REMARK   10  A    between atoms: C21_27  and  C22_29
REMARK   11  A    between atoms: C22_29  and  N4_31
REMARK   12  A    between atoms: N4_31  and  C24_33
REMARK   13  A    between atoms: C24_33  and  C25_34
REMARK   14  A    between atoms: C25_34  and  N5_35
REMARK   15  A    between atoms: C25_34  and  C26_39
REMARK   16  A    between atoms: C26_39  and  O3_40
ROOT
HETATM    1  C14 UNL     1      28.223 -45.870  42.243  1.00  0.00     0.215 C
ENDROOT
BRANCH   1   2
HETATM    2  C13 UNL     1      27.716 -46.658  41.071  1.00  0.00     0.246 C
HETATM    3  N1  UNL     1      28.096 -47.965  40.824  1.00  0.00    -0.351 N
ATOM      4  H1  UNL     1      28.760 -48.391  41.471  1.00  0.00     0.163 HD
HETATM    5  O1  UNL     1      26.907 -46.071  40.315  1.00  0.00    -0.271 OA
BRANCH   3   6
HETATM    6  C5  UNL     1      27.605 -48.809  39.672  1.00  0.00     0.111 C
BRANCH   6   7
HETATM    7  C3  UNL     1      28.832 -49.413  39.137  1.00  0.00     0.008 C
HETATM    8  C4  UNL     1      30.104 -48.689  39.586  1.00  0.00     0.012 C
BRANCH   7   9
HETATM    9  C2  UNL     1      29.111 -50.856  39.282  1.00  0.00     0.002 C
HETATM   10  C1  UNL     1      28.632 -51.737  38.163  1.00  0.00     0.005 C
ENDBRANCH   7   9
ENDBRANCH   6   7
BRANCH   6  11
HETATM   11  C6  UNL     1      26.360 -49.410  40.006  1.00  0.00     0.005 C
BRANCH  11  12
HETATM   12  C7  UNL     1      25.768 -49.919  41.244  1.00  0.00    -0.064 C
HETATM   13  C8  UNL     1      25.019 -49.039  42.137  1.00  0.00    -0.020 C
HETATM   14  C9  UNL     1      25.344 -48.906  43.561  1.00  0.00     0.027 C
HETATM   15  C10 UNL     1      26.241 -49.879  44.201  1.00  0.00     0.004 C
HETATM   16  C11 UNL     1      26.302 -51.131  43.389  1.00  0.00     0.005 C
HETATM   17  C12 UNL     1      26.662 -50.929  41.964  1.00  0.00     0.038 C
ENDBRANCH  11  12
ENDBRANCH   6  11
ENDBRANCH   3   6
ENDBRANCH   1   2
BRANCH   1  18
HETATM   18  C15 UNL     1      27.602 -44.543  42.422  1.00  0.00     0.097 C
BRANCH  18  19
HETATM   19  N2  UNL     1      28.162 -43.398  41.838  1.00  0.00    -0.371 N
HETATM   20  C16 UNL     1      27.490 -42.187  41.795  1.00  0.00     0.063 C
HETATM   21  C17 UNL     1      28.278 -40.908  41.838  1.00  0.00     0.044 C
HETATM   22  C18 UNL     1      29.737 -41.067  42.100  1.00  0.00     0.007 C
HETATM   23  C19 UNL     1      30.244 -42.185  41.249  1.00  0.00     0.021 C
HETATM   24  C20 UNL     1      29.548 -43.459  41.580  1.00  0.00     0.127 C
ENDBRANCH  18  19
ENDBRANCH   1  18
BRANCH   1  25
HETATM   25  N3  UNL     1      28.235 -46.636  43.454  1.00  0.00    -0.342 N
HETATM   26  C21 UNL     1      29.370 -47.491  43.792  1.00  0.00     0.240 C
HETATM   27  O2  UNL     1      30.296 -47.489  42.959  1.00  0.00    -0.271 OA
ATOM     28  H3  UNL     1      27.438 -46.583  44.089  1.00  0.00     0.163 HD
BRANCH  26  29
HETATM   29  C22 UNL     1      29.411 -48.284  45.012  1.00  0.00     0.169 C
HETATM   30  C23 UNL     1      30.280 -47.656  46.055  1.00  0.00     0.042 C
BRANCH  29  31
HETATM   31  N4  UNL     1      29.577 -49.677  44.845  1.00  0.00    -0.388 N
ATOM     32  H4  UNL     1      28.764 -50.255  44.630  1.00  0.00     0.159 HD
BRANCH  31  33
HETATM   33  C24 UNL     1      30.835 -50.281  44.968  1.00  0.00     0.091 C
BRANCH  33  34
HETATM   34  C25 UNL     1      31.429 -50.936  43.752  1.00  0.00     0.244 C
BRANCH  34  35
HETATM   35  N5  UNL     1      30.612 -50.670  42.558  1.00  0.00    -0.069 N
ATOM     36  H53 UNL     1      30.696 -49.701  42.254  1.00  0.00     0.275 HD
ATOM     37  H52 UNL     1      30.996 -51.127  41.731  1.00  0.00     0.275 HD
ATOM     38  H51 UNL     1      29.639 -50.932  42.715  1.00  0.00     0.275 HD
ENDBRANCH  34  35
BRANCH  34  39
HETATM   39  C26 UNL     1      32.779 -50.279  43.490  1.00  0.00     0.202 C
BRANCH  39  40
HETATM   40  O3  UNL     1      32.619 -48.916  43.588  1.00  0.00    -0.398 OA
ATOM     41  H3  UNL     1      33.125 -48.509  42.896  1.00  0.00     0.209 HD
ENDBRANCH  39  40
ENDBRANCH  34  39
ENDBRANCH  33  34
ENDBRANCH  31  33
ENDBRANCH  29  31
ENDBRANCH  26  29
ENDBRANCH   1  25
TORSDOF 16
ENDMDL