MODEL 1
REMARK VINA RESULT: -8.616252197      0.000      0.000
REMARK  17 active torsions:
REMARK  status: ('A' for Active; 'I' for Inactive)
REMARK    1  A    between atoms: C2_2  and  C4_4
REMARK    2  A    between atoms: C4_4  and  C5_5
REMARK    3  A    between atoms: C5_5  and  C6_6
REMARK    4  A    between atoms: C5_5  and  C24_39
REMARK    5  A    between atoms: C6_6  and  N1_7
REMARK       I    between atoms: N1_7  and  C7_9
REMARK    6  A    between atoms: C7_9  and  C8_11
REMARK    7  A    between atoms: C8_11  and  C9_12
REMARK    8  A    between atoms: C8_11  and  C21_36
REMARK    9  A    between atoms: C9_12  and  C10_13
REMARK   10  A    between atoms: C10_13  and  O2_14
REMARK   11  A    between atoms: C10_13  and  C11_16
REMARK   12  A    between atoms: C11_16  and  C12_17
REMARK   13  A    between atoms: C11_16  and  C13_20
REMARK   14  A    between atoms: C12_17  and  O3_18
REMARK   15  A    between atoms: C13_20  and  N2_21
REMARK   16  A    between atoms: N2_21  and  C14_22
REMARK   17  A    between atoms: C15_25  and  C16_26
ROOT
HETATM    1  C10 UNL     1      30.013 -45.935  41.774  1.00  0.00     0.131 C
ENDROOT
BRANCH   1   2
HETATM    2  C9  UNL     1      29.573 -44.697  42.456  1.00  0.00     0.047 C
BRANCH   2   3
HETATM    3  C8  UNL     1      29.033 -43.647  41.498  1.00  0.00     0.083 C
BRANCH   3   4
HETATM    4  C7  UNL     1      29.815 -42.430  41.580  1.00  0.00     0.222 C
HETATM    5  N1  UNL     1      29.749 -41.430  42.596  1.00  0.00    -0.360 N
ATOM      6  H1  UNL     1      29.082 -41.543  43.359  1.00  0.00     0.162 HD
HETATM    7  O1  UNL     1      30.682 -42.176  40.661  1.00  0.00    -0.273 OA
BRANCH   5   8
HETATM    8  C6  UNL     1      30.592 -40.271  42.578  1.00  0.00     0.127 C
BRANCH   8   9
HETATM    9  C5  UNL     1      29.951 -38.944  42.377  1.00  0.00     0.007 C
BRANCH   9  10
HETATM   10  C4  UNL     1      30.931 -37.810  42.314  1.00  0.00     0.010 C
BRANCH  10  11
HETATM   11  C2  UNL     1      30.918 -36.639  43.132  1.00  0.00    -0.022 C
HETATM   12  C1  UNL     1      30.476 -36.767  44.558  1.00  0.00     0.009 C
HETATM   13  C3  UNL     1      30.180 -35.424  42.583  1.00  0.00     0.009 C
ENDBRANCH  10  11
ENDBRANCH   9  10
BRANCH   9  14
HETATM   14  C24 UNL     1      29.347 -38.942  40.933  1.00  0.00    -0.017 C
HETATM   15  C25 UNL     1      30.469 -38.851  39.915  1.00  0.00     0.010 C
HETATM   16  C26 UNL     1      28.448 -37.805  40.637  1.00  0.00     0.010 C
ENDBRANCH   9  14
ENDBRANCH   8   9
ENDBRANCH   5   8
ENDBRANCH   3   4
BRANCH   3  17
HETATM   17  C21 UNL     1      27.562 -43.559  41.671  1.00  0.00    -0.010 C
HETATM   18  C22 UNL     1      27.064 -42.108  41.629  1.00  0.00     0.010 C
HETATM   19  C23 UNL     1      26.961 -44.231  42.844  1.00  0.00     0.010 C
ENDBRANCH   3  17
ENDBRANCH   2   3
ENDBRANCH   1   2
BRANCH   1  20
HETATM   20  O2  UNL     1      30.334 -45.704  40.425  1.00  0.00    -0.395 OA
ATOM     21  H2  UNL     1      30.398 -46.514  39.932  1.00  0.00     0.210 HD
ENDBRANCH   1  20
BRANCH   1  22
HETATM   22  C11 UNL     1      29.085 -47.104  41.895  1.00  0.00     0.090 C
BRANCH  22  23
HETATM   23  C12 UNL     1      29.777 -48.409  42.059  1.00  0.00     0.177 C
BRANCH  23  24
HETATM   24  O3  UNL     1      31.074 -48.471  41.586  1.00  0.00    -0.400 OA
ATOM     25  H3  UNL     1      31.683 -48.980  42.107  1.00  0.00     0.209 HD
ENDBRANCH  23  24
ENDBRANCH  22  23
BRANCH  22  26
HETATM   26  C13 UNL     1      28.199 -47.175  40.626  1.00  0.00     0.167 C
BRANCH  26  27
HETATM   27  N2  UNL     1      28.700 -47.823  39.587  1.00  0.00    -0.401 NA
BRANCH  27  28
HETATM   28  C14 UNL     1      29.137 -48.435  38.658  1.00  0.00     0.207 A
HETATM   29  N3  UNL     1      30.337 -48.180  38.041  1.00  0.00    -0.327 N
HETATM   30  C15 UNL     1      30.812 -48.854  37.012  1.00  0.00     0.074 A
ATOM     31  H3  UNL     1      30.902 -47.413  38.405  1.00  0.00     0.168 HD
HETATM   32  C17 UNL     1      30.094 -49.903  36.473  1.00  0.00     0.064 A
HETATM   33  C18 UNL     1      28.890 -50.203  37.046  1.00  0.00     0.067 A
HETATM   34  N4  UNL     1      27.986 -51.151  36.742  1.00  0.00    -0.350 N
HETATM   35  C20 UNL     1      28.408 -49.507  38.103  1.00  0.00     0.119 A
HETATM   36  C19 UNL     1      26.970 -51.035  37.601  1.00  0.00     0.181 A
ATOM     37  H4  UNL     1      28.063 -51.836  35.991  1.00  0.00     0.166 HD
HETATM   38  N5  UNL     1      27.222 -50.014  38.453  1.00  0.00    -0.347 N
ATOM     39  H5  UNL     1      26.623 -49.694  39.215  1.00  0.00     0.167 HD
BRANCH  30  40
HETATM   40  C16 UNL     1      32.093 -48.551  36.385  1.00  0.00     0.288 C
HETATM   41  O4  UNL     1      33.010 -49.393  36.261  1.00  0.00    -0.300 OA
ENDBRANCH  30  40
ENDBRANCH  27  28
ENDBRANCH  26  27
ENDBRANCH  22  26
ENDBRANCH   1  22
TORSDOF 17
ENDMDL