MODEL 3
REMARK VINA RESULT: -7.510151087      1.419      1.753
REMARK  15 active torsions:
REMARK  status: ('A' for Active; 'I' for Inactive)
REMARK    1  A    between atoms: C2_2  and  C3_3
REMARK    2  A    between atoms: C3_3  and  O1_4
REMARK    3  A    between atoms: C3_3  and  C4_6
REMARK    4  A    between atoms: C4_6  and  C5_7
REMARK    5  A    between atoms: C4_6  and  C7_9
REMARK    6  A    between atoms: C7_9  and  N1_10
REMARK    7  A    between atoms: C7_9  and  C23_34
REMARK    8  A    between atoms: N1_10  and  C8_13
REMARK    9  A    between atoms: C8_13  and  C9_14
REMARK   10  A    between atoms: C8_13  and  C16_21
REMARK   11  A    between atoms: C9_14  and  C10_15
REMARK       I    between atoms: C16_21  and  N2_23
REMARK   12  A    between atoms: N2_23  and  C17_25
REMARK   13  A    between atoms: C17_25  and  C19_27
REMARK       I    between atoms: C19_27  and  N3_29
REMARK   14  A    between atoms: N3_29  and  C20_31
REMARK   15  A    between atoms: C23_34  and  C24_36
ROOT
HETATM    1  C8  UNL     1      28.310 -46.891  42.036  1.00  0.00     0.278 C
ENDROOT
BRANCH   1   2
HETATM    2  N1  UNL     1      29.653 -47.217  41.626  1.00  0.00    -0.050 N
ATOM      3  H12 UNL     1      30.216 -47.487  42.432  1.00  0.00     0.279 HD
ATOM      4  H11 UNL     1      30.152 -46.374  41.338  1.00  0.00     0.279 HD
BRANCH   2   5
HETATM    5  C7  UNL     1      29.732 -48.228  40.592  1.00  0.00     0.269 C
BRANCH   5   6
HETATM    6  C4  UNL     1      30.627 -49.365  41.066  1.00  0.00     0.053 C
BRANCH   6   7
HETATM    7  C3  UNL     1      31.094 -49.235  42.473  1.00  0.00     0.124 C
BRANCH   7   8
HETATM    8  C2  UNL     1      31.685 -50.547  43.004  1.00  0.00     0.027 C
HETATM    9  C1  UNL     1      33.149 -50.228  43.333  1.00  0.00     0.007 C
ENDBRANCH   7   8
BRANCH   7  10
HETATM   10  O1  UNL     1      32.112 -48.304  42.639  1.00  0.00    -0.395 OA
ATOM     11  H1  UNL     1      31.782 -47.515  42.224  1.00  0.00     0.210 HD
ENDBRANCH   7  10
ENDBRANCH   6   7
BRANCH   6  12
HETATM   12  C5  UNL     1      29.937 -50.709  40.875  1.00  0.00     0.005 C
HETATM   13  C6  UNL     1      28.429 -50.579  41.102  1.00  0.00     0.005 C
ENDBRANCH   6  12
ENDBRANCH   5   6
BRANCH   5  14
HETATM   14  C23 UNL     1      30.239 -47.708  39.327  1.00  0.00     0.215 C
HETATM   15  O4  UNL     1      30.851 -46.577  39.304  1.00  0.00    -0.288 OA
BRANCH  14  16
HETATM   16  C24 UNL     1      30.098 -48.387  38.061  1.00  0.00     0.160 C
HETATM   17  N4  UNL     1      28.915 -49.158  37.805  1.00  0.00    -0.086 NA
HETATM   18  S1  UNL     1      31.258 -48.304  36.906  1.00  0.00    -0.060 SA
ENDBRANCH  14  16
ENDBRANCH   5  14
ENDBRANCH   2   5
ENDBRANCH   1   2
BRANCH   1  19
HETATM   19  C9  UNL     1      28.182 -46.910  43.542  1.00  0.00     0.047 C
BRANCH  19  20
HETATM   20  C10 UNL     1      27.190 -47.873  44.087  1.00  0.00    -0.012 C
HETATM   21  C11 UNL     1      27.991 -49.146  44.428  1.00  0.00     0.005 C
HETATM   22  C12 UNL     1      27.072 -50.295  44.691  1.00  0.00     0.000 C
HETATM   23  C13 UNL     1      25.658 -49.810  44.961  1.00  0.00     0.000 C
HETATM   24  C14 UNL     1      25.159 -49.212  43.665  1.00  0.00     0.000 C
HETATM   25  C15 UNL     1      26.219 -48.332  43.011  1.00  0.00     0.005 C
ENDBRANCH  19  20
ENDBRANCH   1  19
BRANCH   1  26
HETATM   26  C16 UNL     1      27.956 -45.550  41.488  1.00  0.00     0.249 C
HETATM   27  O2  UNL     1      27.269 -45.512  40.442  1.00  0.00    -0.271 OA
HETATM   28  N2  UNL     1      28.348 -44.335  42.081  1.00  0.00    -0.346 N
ATOM     29  H2  UNL     1      28.896 -44.372  42.940  1.00  0.00     0.163 HD
BRANCH  28  30
HETATM   30  C17 UNL     1      28.014 -43.031  41.531  1.00  0.00     0.172 C
HETATM   31  C18 UNL     1      26.925 -42.372  42.404  1.00  0.00     0.042 C
BRANCH  30  32
HETATM   32  C19 UNL     1      29.163 -42.117  41.577  1.00  0.00     0.240 C
HETATM   33  O3  UNL     1      30.300 -42.599  41.249  1.00  0.00    -0.271 OA
HETATM   34  N3  UNL     1      29.091 -40.763  41.955  1.00  0.00    -0.355 N
ATOM     35  H3  UNL     1      28.187 -40.369  42.215  1.00  0.00     0.162 HD
BRANCH  34  36
HETATM   36  C20 UNL     1      30.258 -39.915  41.986  1.00  0.00     0.076 C
HETATM   37  C21 UNL     1      30.386 -39.016  40.794  1.00  0.00     0.032 C
HETATM   38  C22 UNL     1      30.341 -39.083  43.245  1.00  0.00     0.032 C
ENDBRANCH  34  36
ENDBRANCH  30  32
ENDBRANCH  28  30
ENDBRANCH   1  26
TORSDOF 15
ENDMDL