MODEL 3
REMARK VINA RESULT: -6.712069450      1.992      6.252
REMARK  15 active torsions:
REMARK  status: ('A' for Active; 'I' for Inactive)
REMARK    1  A    between atoms: C2_2  and  C4_4
REMARK    2  A    between atoms: C4_4  and  C5_5
REMARK    3  A    between atoms: C5_5  and  C6_6
REMARK    4  A    between atoms: C6_6  and  N1_7
REMARK    5  A    between atoms: C6_6  and  C19_30
REMARK       I    between atoms: N1_7  and  C7_9
REMARK    6  A    between atoms: C7_9  and  C8_11
REMARK    7  A    between atoms: C11_17  and  C12_18
REMARK       I    between atoms: C12_18  and  N3_20
REMARK    8  A    between atoms: N3_20  and  C13_22
REMARK    9  A    between atoms: C13_22  and  C14_23
REMARK   10  A    between atoms: C13_22  and  C15_26
REMARK   11  A    between atoms: C14_23  and  O3_24
REMARK   12  A    between atoms: C15_26  and  C16_27
REMARK   13  A    between atoms: C19_30  and  O4_31
REMARK   14  A    between atoms: C19_30  and  C20_33
REMARK   15  A    between atoms: C20_33  and  N4_34
ROOT
HETATM    1  N1  UNL     1      28.172 -48.589  42.068  1.00  0.00    -0.354 N
ATOM      2  H1  UNL     1      28.897 -48.074  42.568  1.00  0.00     0.163 HD
HETATM    3  C7  UNL     1      28.366 -49.943  41.767  1.00  0.00     0.224 C
HETATM    4  O1  UNL     1      27.461 -50.551  41.156  1.00  0.00    -0.273 OA
ENDROOT
BRANCH   3   5
HETATM    5  C8  UNL     1      29.584 -50.638  42.147  1.00  0.00     0.118 C
HETATM    6  C9  UNL     1      29.510 -52.145  42.124  1.00  0.00     0.247 C
HETATM    7  N2  UNL     1      30.907 -52.474  42.449  1.00  0.00    -0.073 N
HETATM    8  C10 UNL     1      31.735 -51.478  41.824  1.00  0.00     0.247 C
ATOM      9  H22 UNL     1      31.075 -52.561  43.451  1.00  0.00     0.277 HD
ATOM     10  H21 UNL     1      31.164 -53.427  42.190  1.00  0.00     0.277 HD
HETATM   11  C11 UNL     1      30.793 -50.362  41.325  1.00  0.00     0.118 C
BRANCH  11  12
HETATM   12  C12 UNL     1      30.686 -50.557  39.886  1.00  0.00     0.224 C
HETATM   13  O2  UNL     1      30.673 -51.669  39.340  1.00  0.00    -0.273 OA
HETATM   14  N3  UNL     1      30.592 -49.410  39.052  1.00  0.00    -0.354 N
ATOM     15  H3  UNL     1      30.600 -48.485  39.484  1.00  0.00     0.162 HD
BRANCH  14  16
HETATM   16  C13 UNL     1      30.485 -49.504  37.609  1.00  0.00     0.108 C
BRANCH  16  17
HETATM   17  C14 UNL     1      29.024 -49.193  37.273  1.00  0.00     0.189 C
BRANCH  17  18
HETATM   18  O3  UNL     1      28.880 -47.840  37.043  1.00  0.00    -0.399 OA
ATOM     19  H3  UNL     1      28.950 -47.667  36.111  1.00  0.00     0.209 HD
ENDBRANCH  17  18
ENDBRANCH  16  17
BRANCH  16  20
HETATM   20  C15 UNL     1      31.299 -48.469  36.881  1.00  0.00     0.031 C
BRANCH  20  21
HETATM   21  C16 UNL     1      32.145 -49.002  35.773  1.00  0.00    -0.021 C
HETATM   22  C17 UNL     1      33.607 -48.663  35.900  1.00  0.00     0.009 C
HETATM   23  C18 UNL     1      32.005 -50.523  35.785  1.00  0.00     0.009 C
ENDBRANCH  20  21
ENDBRANCH  16  20
ENDBRANCH  14  16
ENDBRANCH  11  12
ENDBRANCH   3   5
BRANCH   1  24
HETATM   24  C6  UNL     1      26.892 -47.877  41.658  1.00  0.00     0.114 C
BRANCH  24  25
HETATM   25  C5  UNL     1      26.305 -47.427  42.929  1.00  0.00     0.028 C
BRANCH  25  26
HETATM   26  C4  UNL     1      26.271 -48.188  44.166  1.00  0.00     0.006 C
BRANCH  26  27
HETATM   27  C2  UNL     1      25.065 -48.949  44.559  1.00  0.00    -0.023 C
HETATM   28  C1  UNL     1      24.663 -48.947  45.988  1.00  0.00     0.009 C
HETATM   29  C3  UNL     1      25.333 -50.431  44.184  1.00  0.00     0.009 C
ENDBRANCH  26  27
ENDBRANCH  25  26
ENDBRANCH  24  25
BRANCH  24  30
HETATM   30  C19 UNL     1      27.421 -46.677  40.864  1.00  0.00     0.169 C
BRANCH  30  31
HETATM   31  O4  UNL     1      27.539 -47.058  39.551  1.00  0.00    -0.392 OA
ATOM     32  H4  UNL     1      28.440 -46.916  39.284  1.00  0.00     0.210 HD
ENDBRANCH  30  31
BRANCH  30  33
HETATM   33  C20 UNL     1      28.589 -46.023  41.410  1.00  0.00     0.306 C
BRANCH  33  34
HETATM   34  N4  UNL     1      28.506 -44.570  41.437  1.00  0.00     0.091 N
HETATM   35  C21 UNL     1      27.301 -44.075  42.019  1.00  0.00     0.272 C
HETATM   36  C22 UNL     1      27.080 -42.669  41.462  1.00  0.00     0.030 C
HETATM   37  C23 UNL     1      27.833 -41.727  42.372  1.00  0.00     0.002 C
HETATM   38  C24 UNL     1      29.250 -41.493  41.968  1.00  0.00     0.002 C
HETATM   39  C25 UNL     1      29.899 -42.646  41.269  1.00  0.00     0.030 C
HETATM   40  C26 UNL     1      29.704 -43.967  41.975  1.00  0.00     0.272 C
ENDBRANCH  33  34
ENDBRANCH  30  33
ENDBRANCH  24  30
ENDBRANCH   1  24
TORSDOF 15
ENDMDL