MODEL 2
REMARK VINA RESULT: -8.915492777      1.946      2.564
REMARK  14 active torsions:
REMARK  status: ('A' for Active; 'I' for Inactive)
REMARK    1  A    between atoms: C2_2  and  C4_4
REMARK    2  A    between atoms: C4_4  and  C5_5
REMARK    3  A    between atoms: C5_5  and  N1_6
REMARK    4  A    between atoms: C5_5  and  C25_37
REMARK       I    between atoms: N1_6  and  C6_7
REMARK    5  A    between atoms: C6_7  and  C7_9
REMARK    6  A    between atoms: C7_9  and  N2_10
REMARK    7  A    between atoms: C7_9  and  C20_28
REMARK       I    between atoms: N2_10  and  C8_12
REMARK    8  A    between atoms: C8_12  and  C9_14
REMARK    9  A    between atoms: C9_14  and  C11_16
REMARK   10  A    between atoms: C11_16  and  C12_17
REMARK   11  A    between atoms: C12_17  and  C13_19
REMARK   12  A    between atoms: C20_28  and  N4_29
REMARK   13  A    between atoms: C20_28  and  C21_33
REMARK   14  A    between atoms: C21_33  and  C22_34
ROOT
HETATM    1  C7  UNL     1      28.147 -46.057  41.325  1.00  0.00     0.222 C
ENDROOT
BRANCH   1   2
HETATM    2  C6  UNL     1      27.014 -46.653  40.473  1.00  0.00     0.317 C
HETATM    3  N1  UNL     1      26.389 -47.788  40.714  1.00  0.00    -0.368 NA
HETATM    4  O1  UNL     1      26.781 -45.852  39.493  1.00  0.00    -0.255 OA
BRANCH   3   5
HETATM    5  C5  UNL     1      25.716 -48.999  40.961  1.00  0.00     0.153 C
BRANCH   5   6
HETATM    6  C4  UNL     1      25.007 -49.133  42.261  1.00  0.00     0.082 C
BRANCH   6   7
HETATM    7  C2  UNL     1      25.754 -49.661  43.418  1.00  0.00    -0.016 C
HETATM    8  C1  UNL     1      25.379 -51.034  43.878  1.00  0.00     0.010 C
HETATM    9  C3  UNL     1      25.492 -48.730  44.607  1.00  0.00     0.010 C
ENDBRANCH   6   7
ENDBRANCH   5   6
BRANCH   5  10
HETATM   10  C25 UNL     1      26.464 -50.228  40.537  1.00  0.00     0.291 C
HETATM   11  N5  UNL     1      25.855 -51.452  40.197  1.00  0.00    -0.055 NA
HETATM   12  O4  UNL     1      27.725 -50.123  40.494  1.00  0.00    -0.269 OA
ENDBRANCH   5  10
ENDBRANCH   3   5
ENDBRANCH   1   2
BRANCH   1  13
HETATM   13  N2  UNL     1      27.912 -44.661  41.372  1.00  0.00    -0.344 N
HETATM   14  C8  UNL     1      28.807 -43.617  41.621  1.00  0.00     0.222 C
HETATM   15  O2  UNL     1      30.046 -43.734  41.880  1.00  0.00    -0.273 OA
ATOM     16  H2  UNL     1      26.948 -44.376  41.198  1.00  0.00     0.163 HD
BRANCH  14  17
HETATM   17  C9  UNL     1      28.366 -42.175  41.589  1.00  0.00     0.081 C
HETATM   18  C10 UNL     1      26.994 -42.208  42.279  1.00  0.00     0.020 C
BRANCH  17  19
HETATM   19  C11 UNL     1      29.287 -41.310  42.421  1.00  0.00     0.098 C
BRANCH  19  20
HETATM   20  C12 UNL     1      30.043 -40.417  41.503  1.00  0.00     0.172 C
HETATM   21  O3  UNL     1      30.246 -40.820  40.307  1.00  0.00    -0.291 OA
BRANCH  20  22
HETATM   22  C13 UNL     1      30.561 -39.081  41.919  1.00  0.00     0.051 C
HETATM   23  N3  UNL     1      30.359 -39.050  43.228  1.00  0.00    -0.390 N
HETATM   24  C14 UNL     1      30.663 -37.998  44.168  1.00  0.00     0.119 C
ATOM     25  H3  UNL     1      29.930 -39.885  43.626  1.00  0.00     0.159 HD
HETATM   26  C15 UNL     1      29.852 -36.752  44.210  1.00  0.00     0.020 C
HETATM   27  C16 UNL     1      30.188 -35.724  43.087  1.00  0.00     0.002 C
HETATM   28  C17 UNL     1      30.535 -36.529  41.987  1.00  0.00     0.000 C
HETATM   29  C18 UNL     1      30.906 -36.857  40.682  1.00  0.00     0.006 C
HETATM   30  C19 UNL     1      31.063 -38.411  40.729  1.00  0.00     0.061 C
ENDBRANCH  20  22
ENDBRANCH  19  20
ENDBRANCH  17  19
ENDBRANCH  14  17
ENDBRANCH   1  13
BRANCH   1  31
HETATM   31  C20 UNL     1      28.006 -46.724  42.687  1.00  0.00     0.216 C
BRANCH  31  32
HETATM   32  N4  UNL     1      27.042 -45.896  43.405  1.00  0.00    -0.073 N
ATOM     33  H43 UNL     1      26.133 -46.338  43.537  1.00  0.00     0.274 HD
ATOM     34  H42 UNL     1      27.255 -45.773  44.395  1.00  0.00     0.274 HD
ATOM     35  H41 UNL     1      27.007 -45.025  42.876  1.00  0.00     0.274 HD
ENDBRANCH  31  32
BRANCH  31  36
HETATM   36  C21 UNL     1      29.267 -46.763  43.488  1.00  0.00     0.039 C
BRANCH  36  37
HETATM   37  C22 UNL     1      29.196 -47.687  44.664  1.00  0.00    -0.021 C
HETATM   38  C23 UNL     1      29.294 -49.118  44.121  1.00  0.00     0.009 C
HETATM   39  C24 UNL     1      30.309 -47.550  45.651  1.00  0.00     0.009 C
ENDBRANCH  36  37
ENDBRANCH  31  36
ENDBRANCH   1  31
TORSDOF 14
ENDMDL