MODEL 1
REMARK VINA RESULT: -7.829296901      0.000      0.000
REMARK  15 active torsions:
REMARK  status: ('A' for Active; 'I' for Inactive)
REMARK    1  A    between atoms: C2_2  and  C3_3
REMARK    2  A    between atoms: C3_3  and  C5_5
REMARK    3  A    between atoms: C5_5  and  N1_6
REMARK    4  A    between atoms: C5_5  and  C8_12
REMARK       I    between atoms: N1_6  and  C6_8
REMARK    5  A    between atoms: C6_8  and  O2_10
REMARK    6  A    between atoms: C8_12  and  C9_13
REMARK    7  A    between atoms: C8_12  and  N2_20
REMARK    8  A    between atoms: C9_13  and  C10_14
REMARK    9  A    between atoms: N2_20  and  C16_22
REMARK   10  A    between atoms: C16_22  and  C18_24
REMARK       I    between atoms: C18_24  and  N3_26
REMARK   11  A    between atoms: N3_26  and  C19_28
REMARK   12  A    between atoms: C19_28  and  C21_30
REMARK   13  A    between atoms: C21_30  and  O5_32
REMARK   14  A    between atoms: O5_32  and  C22_33
REMARK   15  A    between atoms: C22_33  and  N4_34
REMARK       I    between atoms: N4_34  and  C23_36
ROOT
HETATM    1  C8  UNL     1      29.582 -48.715  40.616  1.00  0.00     0.101 C
ENDROOT
BRANCH   1   2
HETATM    2  C5  UNL     1      28.627 -48.754  39.478  1.00  0.00     0.112 C
BRANCH   2   3
HETATM    3  C3  UNL     1      27.359 -49.520  39.729  1.00  0.00     0.006 C
HETATM    4  C4  UNL     1      26.994 -50.559  38.730  1.00  0.00     0.012 C
BRANCH   3   5
HETATM    5  C2  UNL     1      26.172 -48.619  39.965  1.00  0.00     0.002 C
HETATM    6  C1  UNL     1      25.629 -48.692  41.373  1.00  0.00     0.005 C
ENDBRANCH   3   5
ENDBRANCH   2   3
BRANCH   2   7
HETATM    7  N1  UNL     1      29.238 -49.279  38.252  1.00  0.00    -0.330 N
HETATM    8  C6  UNL     1      30.157 -48.538  37.459  1.00  0.00     0.360 C
HETATM    9  O1  UNL     1      30.457 -47.389  37.815  1.00  0.00    -0.239 OA
ATOM     10  H1  UNL     1      28.992 -50.223  37.953  1.00  0.00     0.165 HD
BRANCH   8  11
HETATM   11  O2  UNL     1      30.726 -49.063  36.303  1.00  0.00    -0.309 OA
HETATM   12  C7  UNL     1      32.088 -48.724  36.024  1.00  0.00     0.215 C
ENDBRANCH   8  11
ENDBRANCH   2   7
ENDBRANCH   1   2
BRANCH   1  13
HETATM   13  C9  UNL     1      29.189 -49.557  41.797  1.00  0.00     0.031 C
BRANCH  13  14
HETATM   14  C10 UNL     1      29.917 -50.826  41.985  1.00  0.00    -0.013 C
HETATM   15  C11 UNL     1      29.767 -51.221  43.453  1.00  0.00     0.005 C
HETATM   16  C12 UNL     1      30.665 -50.469  44.371  1.00  0.00     0.000 C
HETATM   17  C13 UNL     1      32.126 -50.559  43.961  1.00  0.00     0.000 C
HETATM   18  C14 UNL     1      32.182 -49.881  42.585  1.00  0.00     0.000 C
HETATM   19  C15 UNL     1      31.382 -50.788  41.675  1.00  0.00     0.005 C
ENDBRANCH  13  14
ENDBRANCH   1  13
BRANCH   1  20
HETATM   20  N2  UNL     1      29.771 -47.341  41.011  1.00  0.00    -0.403 N
ATOM     21  H2  UNL     1      30.523 -46.768  40.628  1.00  0.00     0.154 HD
BRANCH  20  22
HETATM   22  C16 UNL     1      28.838 -46.828  41.977  1.00  0.00     0.165 C
HETATM   23  C17 UNL     1      29.549 -46.552  43.282  1.00  0.00     0.042 C
BRANCH  22  24
HETATM   24  C18 UNL     1      28.330 -45.518  41.485  1.00  0.00     0.240 C
HETATM   25  O3  UNL     1      27.554 -45.455  40.491  1.00  0.00    -0.271 OA
HETATM   26  N3  UNL     1      28.688 -44.285  42.105  1.00  0.00    -0.346 N
ATOM     27  H3  UNL     1      29.313 -44.303  42.912  1.00  0.00     0.163 HD
BRANCH  26  28
HETATM   28  C19 UNL     1      28.196 -43.013  41.633  1.00  0.00     0.180 C
HETATM   29  C20 UNL     1      26.899 -42.641  42.387  1.00  0.00     0.043 C
BRANCH  28  30
HETATM   30  C21 UNL     1      29.174 -41.935  41.743  1.00  0.00     0.283 C
HETATM   31  O4  UNL     1      30.373 -42.137  41.342  1.00  0.00    -0.263 OA
BRANCH  30  32
HETATM   32  O5  UNL     1      28.919 -40.677  42.254  1.00  0.00    -0.300 OA
BRANCH  32  33
HETATM   33  C22 UNL     1      29.955 -39.760  42.599  1.00  0.00     0.305 C
BRANCH  33  34
HETATM   34  N4  UNL     1      29.626 -38.417  42.234  1.00  0.00    -0.324 N
HETATM   35  C23 UNL     1      29.997 -37.352  43.082  1.00  0.00     0.330 C
HETATM   36  N5  UNL     1      29.673 -35.993  42.727  1.00  0.00    -0.040 NA
HETATM   37  O6  UNL     1      30.611 -37.589  44.149  1.00  0.00    -0.251 OA
ATOM     38  H4  UNL     1      29.126 -38.230  41.364  1.00  0.00     0.166 HD
ENDBRANCH  33  34
ENDBRANCH  32  33
ENDBRANCH  30  32
ENDBRANCH  28  30
ENDBRANCH  26  28
ENDBRANCH  22  24
ENDBRANCH  20  22
ENDBRANCH   1  20
TORSDOF 15
ENDMDL