MODEL 5
REMARK VINA RESULT: -6.864388146      2.238      3.457
REMARK  18 active torsions:
REMARK  status: ('A' for Active; 'I' for Inactive)
REMARK    1  A    between atoms: C2_2  and  C3_3
REMARK    2  A    between atoms: C3_3  and  C4_4
REMARK    3  A    between atoms: C4_4  and  N1_5
REMARK    4  A    between atoms: C7_8  and  C8_9
REMARK    5  A    between atoms: C8_9  and  C9_10
REMARK    6  A    between atoms: C9_10  and  C10_11
REMARK    7  A    between atoms: C12_13  and  C13_14
REMARK    8  A    between atoms: C13_14  and  O1_15
REMARK    9  A    between atoms: C13_14  and  C14_17
REMARK   10  A    between atoms: C14_17  and  C15_18
REMARK   11  A    between atoms: C15_18  and  C16_19
REMARK   12  A    between atoms: C16_19  and  C17_20
REMARK   13  A    between atoms: C17_20  and  C18_21
REMARK   14  A    between atoms: C19_23  and  C20_24
REMARK   15  A    between atoms: C20_24  and  O3_25
REMARK   16  A    between atoms: C21_27  and  O4_28
REMARK   17  A    between atoms: C22_30  and  O5_31
REMARK   18  A    between atoms: C23_33  and  N2_34
REMARK       I    between atoms: N2_34  and  C24_36
ROOT
HETATM    1  C16 UNL     1      28.706 -48.907  39.655  1.00  0.00     0.003 C
ENDROOT
BRANCH   1   2
HETATM    2  C15 UNL     1      29.895 -48.069  39.295  1.00  0.00     0.002 C
BRANCH   2   3
HETATM    3  C14 UNL     1      30.109 -46.824  40.090  1.00  0.00     0.032 C
BRANCH   3   4
HETATM    4  C13 UNL     1      30.498 -46.963  41.510  1.00  0.00     0.124 C
BRANCH   4   5
HETATM    5  C12 UNL     1      29.692 -46.027  42.429  1.00  0.00     0.036 C
HETATM    6  C7  UNL     1      28.341 -46.550  42.721  1.00  0.00    -0.005 C
HETATM    7  C6  UNL     1      27.178 -45.640  42.543  1.00  0.00     0.025 C
HETATM    8  C5  UNL     1      27.490 -44.639  41.454  1.00  0.00     0.122 C
HETATM    9  N1  UNL     1      28.604 -43.892  41.939  1.00  0.00    -0.393 N
HETATM   10  C26 UNL     1      29.778 -44.667  41.823  1.00  0.00     0.129 C
BRANCH   6  11
HETATM   11  C8  UNL     1      28.256 -47.192  44.102  1.00  0.00     0.005 C
BRANCH  11  12
HETATM   12  C9  UNL     1      28.507 -48.664  44.113  1.00  0.00     0.000 C
BRANCH  12  13
HETATM   13  C10 UNL     1      29.446 -48.926  45.301  1.00  0.00    -0.005 C
HETATM   14  C11 UNL     1      30.189 -47.697  45.707  1.00  0.00     0.005 C
ENDBRANCH  12  13
ENDBRANCH  11  12
ENDBRANCH   6  11
BRANCH   9  15
HETATM   15  C4  UNL     1      28.656 -42.521  41.756  1.00  0.00     0.061 C
BRANCH  15  16
HETATM   16  C3  UNL     1      29.973 -41.839  41.631  1.00  0.00     0.070 C
BRANCH  16  17
HETATM   17  C2  UNL     1      30.071 -40.519  42.289  1.00  0.00    -0.032 C
HETATM   18  C1  UNL     1      31.204 -40.120  42.841  1.00  0.00     0.007 C
ENDBRANCH  16  17
ENDBRANCH  15  16
ENDBRANCH   9  15
ENDBRANCH   4   5
BRANCH   4  19
HETATM   19  O1  UNL     1      31.870 -46.664  41.662  1.00  0.00    -0.395 OA
ATOM     20  H1  UNL     1      32.360 -47.477  41.627  1.00  0.00     0.210 HD
ENDBRANCH   4  19
ENDBRANCH   3   4
ENDBRANCH   2   3
ENDBRANCH   1   2
BRANCH   1  21
HETATM   21  C17 UNL     1      29.086 -49.882  40.804  1.00  0.00     0.034 C
BRANCH  21  22
HETATM   22  C18 UNL     1      30.363 -50.541  40.332  1.00  0.00     0.147 C
HETATM   23  O2  UNL     1      31.432 -50.228  41.157  1.00  0.00    -0.374 OA
HETATM   24  C19 UNL     1      31.265 -50.720  42.448  1.00  0.00     0.176 C
HETATM   25  C21 UNL     1      31.058 -52.201  42.481  1.00  0.00     0.180 C
HETATM   26  C22 UNL     1      31.134 -52.804  41.111  1.00  0.00     0.174 C
HETATM   27  C23 UNL     1      30.229 -52.035  40.172  1.00  0.00     0.144 C
BRANCH  24  28
HETATM   28  C20 UNL     1      32.540 -50.393  43.208  1.00  0.00     0.198 C
BRANCH  28  29
HETATM   29  O3  UNL     1      32.616 -49.020  43.420  1.00  0.00    -0.398 OA
ATOM     30  H3  UNL     1      32.302 -48.815  44.294  1.00  0.00     0.209 HD
ENDBRANCH  28  29
ENDBRANCH  24  28
BRANCH  25  31
HETATM   31  O4  UNL     1      29.871 -52.567  43.142  1.00  0.00    -0.390 OA
ATOM     32  H4  UNL     1      29.841 -53.492  43.353  1.00  0.00     0.210 HD
ENDBRANCH  25  31
BRANCH  26  33
HETATM   33  O5  UNL     1      32.460 -52.765  40.681  1.00  0.00    -0.391 OA
ATOM     34  H5  UNL     1      32.775 -51.871  40.750  1.00  0.00     0.210 HD
ENDBRANCH  26  33
BRANCH  27  35
HETATM   35  N2  UNL     1      28.891 -52.499  40.367  1.00  0.00    -0.352 N
HETATM   36  C24 UNL     1      28.136 -52.946  39.254  1.00  0.00     0.214 C
HETATM   37  C25 UNL     1      26.747 -53.441  39.367  1.00  0.00     0.117 C
HETATM   38  O6  UNL     1      28.651 -52.930  38.109  1.00  0.00    -0.274 OA
ATOM     39  H2  UNL     1      28.482 -52.508  41.301  1.00  0.00     0.163 HD
ENDBRANCH  27  35
ENDBRANCH  21  22
ENDBRANCH   1  21
TORSDOF 18
ENDMDL