MODEL 3
REMARK VINA RESULT: -7.779103801      2.524      4.399
REMARK  16 active torsions:
REMARK  status: ('A' for Active; 'I' for Inactive)
REMARK    1  A    between atoms: C2_2  and  C3_3
REMARK    2  A    between atoms: C3_3  and  C5_5
REMARK    3  A    between atoms: C5_5  and  N1_6
REMARK    4  A    between atoms: C5_5  and  C7_10
REMARK    5  A    between atoms: N1_6  and  C6_8
REMARK       I    between atoms: C7_10  and  N2_12
REMARK    6  A    between atoms: N2_12  and  C8_14
REMARK    7  A    between atoms: C8_14  and  C10_16
REMARK    8  A    between atoms: C10_16  and  N4_19
REMARK    9  A    between atoms: N4_19  and  C12_21
REMARK   10  A    between atoms: C12_21  and  C13_22
REMARK   11  A    between atoms: C12_21  and  C17_26
REMARK   12  A    between atoms: C13_22  and  C14_23
REMARK       I    between atoms: C17_26  and  N5_28
REMARK   13  A    between atoms: N5_28  and  C18_30
REMARK   14  A    between atoms: C18_30  and  C19_31
REMARK   15  A    between atoms: C19_31  and  O4_32
REMARK   16  A    between atoms: C19_31  and  C20_34
ROOT
HETATM    1  C10 UNL     1      29.733 -47.111  41.403  1.00  0.00     0.208 C
HETATM    2  C11 UNL     1      30.492 -46.650  40.205  1.00  0.00     0.086 C
HETATM    3  N3  UNL     1      31.084 -46.286  39.279  1.00  0.00    -0.195 NA
ENDROOT
BRANCH   1   4
HETATM    4  C8  UNL     1      29.706 -48.654  41.309  1.00  0.00     0.116 C
HETATM    5  C9  UNL     1      28.677 -48.998  40.262  1.00  0.00     0.035 C
BRANCH   4   6
HETATM    6  N2  UNL     1      29.528 -49.291  42.566  1.00  0.00    -0.352 N
HETATM    7  C7  UNL     1      30.561 -49.842  43.356  1.00  0.00     0.241 C
HETATM    8  O2  UNL     1      31.737 -49.724  42.869  1.00  0.00    -0.271 OA
ATOM      9  H2  UNL     1      28.576 -49.355  42.929  1.00  0.00     0.163 HD
BRANCH   7  10
HETATM   10  C5  UNL     1      30.349 -50.518  44.660  1.00  0.00     0.179 C
BRANCH  10  11
HETATM   11  C3  UNL     1      29.366 -49.829  45.552  1.00  0.00     0.013 C
HETATM   12  C4  UNL     1      28.447 -50.876  46.151  1.00  0.00     0.012 C
BRANCH  11  13
HETATM   13  C2  UNL     1      29.897 -48.869  46.536  1.00  0.00     0.002 C
HETATM   14  C1  UNL     1      30.260 -47.514  46.055  1.00  0.00     0.005 C
ENDBRANCH  11  13
ENDBRANCH  10  11
BRANCH  10  15
HETATM   15  N1  UNL     1      31.607 -50.847  45.275  1.00  0.00    -0.355 N
ATOM     16  H1  UNL     1      32.357 -50.156  45.284  1.00  0.00     0.162 HD
BRANCH  15  17
HETATM   17  C6  UNL     1      31.820 -52.106  45.865  1.00  0.00     0.349 C
HETATM   18  O1  UNL     1      31.161 -53.136  45.631  1.00  0.00    -0.284 OA
ENDBRANCH  15  17
ENDBRANCH  10  15
ENDBRANCH   7  10
ENDBRANCH   4   6
ENDBRANCH   1   4
BRANCH   1  19
HETATM   19  N4  UNL     1      28.453 -46.630  41.459  1.00  0.00    -0.392 N
ATOM     20  H4  UNL     1      27.937 -46.554  40.583  1.00  0.00     0.155 HD
BRANCH  19  21
HETATM   21  C12 UNL     1      27.810 -46.240  42.621  1.00  0.00     0.170 C
BRANCH  21  22
HETATM   22  C13 UNL     1      26.549 -46.849  43.087  1.00  0.00     0.038 C
BRANCH  22  23
HETATM   23  C14 UNL     1      26.502 -48.306  43.284  1.00  0.00    -0.020 C
HETATM   24  C15 UNL     1      25.881 -48.695  44.609  1.00  0.00     0.009 C
HETATM   25  C16 UNL     1      25.515 -48.905  42.215  1.00  0.00     0.009 C
ENDBRANCH  22  23
ENDBRANCH  21  22
BRANCH  21  26
HETATM   26  C17 UNL     1      27.600 -44.721  42.493  1.00  0.00     0.240 C
HETATM   27  O3  UNL     1      26.539 -44.192  42.876  1.00  0.00    -0.271 OA
HETATM   28  N5  UNL     1      28.625 -43.952  41.940  1.00  0.00    -0.357 N
ATOM     29  H5  UNL     1      29.475 -44.426  41.636  1.00  0.00     0.162 HD
BRANCH  28  30
HETATM   30  C18 UNL     1      28.541 -42.512  41.774  1.00  0.00     0.154 C
BRANCH  30  31
HETATM   31  C19 UNL     1      29.887 -41.873  41.863  1.00  0.00     0.140 C
BRANCH  31  32
HETATM   32  O4  UNL     1      30.639 -42.175  40.716  1.00  0.00    -0.394 OA
ATOM     33  H4  UNL     1      31.206 -42.919  40.885  1.00  0.00     0.210 HD
ENDBRANCH  31  32
BRANCH  31  34
HETATM   34  C20 UNL     1      29.783 -40.375  41.941  1.00  0.00     0.016 C
HETATM   35  C21 UNL     1      30.218 -39.691  40.669  1.00  0.00     0.007 C
HETATM   36  C22 UNL     1      29.813 -38.248  40.762  1.00  0.00     0.000 C
HETATM   37  C23 UNL     1      29.416 -37.823  42.151  1.00  0.00     0.000 C
HETATM   38  C24 UNL     1      30.351 -38.339  43.225  1.00  0.00     0.000 C
HETATM   39  C25 UNL     1      30.614 -39.825  43.055  1.00  0.00     0.007 C
ENDBRANCH  31  34
ENDBRANCH  30  31
ENDBRANCH  28  30
ENDBRANCH  21  26
ENDBRANCH  19  21
ENDBRANCH   1  19
TORSDOF 16
ENDMDL