MODEL 5
REMARK VINA RESULT: -7.285592951      2.013      2.884
REMARK  16 active torsions:
REMARK  status: ('A' for Active; 'I' for Inactive)
REMARK    1  A    between atoms: C2_2  and  C3_3
REMARK    2  A    between atoms: C3_3  and  C4_4
REMARK    3  A    between atoms: C4_4  and  N1_5
REMARK       I    between atoms: C5_7  and  N3_9
REMARK    4  A    between atoms: C8_12  and  C9_13
REMARK    5  A    between atoms: C9_13  and  C10_14
REMARK    6  A    between atoms: C10_14  and  C11_15
REMARK    7  A    between atoms: C13_17  and  C14_18
REMARK    8  A    between atoms: C14_18  and  C15_19
REMARK       I    between atoms: C15_19  and  N4_21
REMARK    9  A    between atoms: N4_21  and  C16_23
REMARK   10  A    between atoms: C16_23  and  C17_24
REMARK   11  A    between atoms: C16_23  and  C24_31
REMARK   12  A    between atoms: C17_24  and  C18_25
REMARK   13  A    between atoms: C24_31  and  N5_32
REMARK   14  A    between atoms: C24_31  and  C25_36
REMARK   15  A    between atoms: C25_36  and  O2_37
REMARK   16  A    between atoms: C25_36  and  O3_39
ROOT
HETATM    1  C15 UNL     1      30.068 -45.255  41.695  1.00  0.00     0.218 C
HETATM    2  O1  UNL     1      30.109 -45.299  40.444  1.00  0.00    -0.274 OA
HETATM    3  N4  UNL     1      29.601 -44.101  42.314  1.00  0.00    -0.354 N
ATOM      4  H4  UNL     1      29.570 -44.073  43.332  1.00  0.00     0.162 HD
ENDROOT
BRANCH   1   5
HETATM    5  C14 UNL     1      30.500 -46.389  42.492  1.00  0.00     0.109 C
BRANCH   5   6
HETATM    6  C13 UNL     1      29.777 -47.710  42.136  1.00  0.00     0.016 C
HETATM    7  C8  UNL     1      29.001 -48.129  43.330  1.00  0.00    -0.007 C
HETATM    8  C7  UNL     1      29.445 -49.282  44.120  1.00  0.00     0.025 C
HETATM    9  C6  UNL     1      30.821 -49.805  43.688  1.00  0.00     0.126 C
HETATM   10  N3  UNL     1      30.801 -49.892  42.218  1.00  0.00    -0.355 N
HETATM   11  C5  UNL     1      30.778 -51.130  41.555  1.00  0.00     0.186 C
HETATM   12  C26 UNL     1      30.805 -48.598  41.571  1.00  0.00     0.131 C
HETATM   13  N1  UNL     1      30.668 -52.199  42.256  1.00  0.00    -0.365 N
HETATM   14  N2  UNL     1      30.877 -51.132  40.142  1.00  0.00    -0.064 NA
ATOM     15  H1  UNL     1      30.603 -52.101  43.269  1.00  0.00     0.162 HD
BRANCH   7  16
HETATM   16  C9  UNL     1      27.564 -48.254  42.913  1.00  0.00     0.005 C
BRANCH  16  17
HETATM   17  C10 UNL     1      27.089 -49.463  42.249  1.00  0.00     0.000 C
BRANCH  17  18
HETATM   18  C11 UNL     1      25.922 -49.409  41.335  1.00  0.00    -0.005 C
HETATM   19  C12 UNL     1      26.106 -48.244  40.334  1.00  0.00     0.005 C
ENDBRANCH  17  18
ENDBRANCH  16  17
ENDBRANCH   7  16
BRANCH  13  20
HETATM   20  C4  UNL     1      30.632 -53.528  41.700  1.00  0.00     0.122 C
BRANCH  20  21
HETATM   21  C3  UNL     1      29.254 -54.150  41.783  1.00  0.00     0.019 C
BRANCH  21  22
HETATM   22  C2  UNL     1      28.614 -53.998  40.413  1.00  0.00    -0.003 C
HETATM   23  C1  UNL     1      27.554 -52.910  40.531  1.00  0.00     0.005 C
ENDBRANCH  21  22
ENDBRANCH  20  21
ENDBRANCH  13  20
ENDBRANCH   5   6
ENDBRANCH   1   5
BRANCH   3  24
HETATM   24  C16 UNL     1      29.140 -42.891  41.548  1.00  0.00     0.120 C
BRANCH  24  25
HETATM   25  C17 UNL     1      30.098 -41.813  41.891  1.00  0.00     0.032 C
BRANCH  25  26
HETATM   26  C18 UNL     1      29.679 -40.409  41.889  1.00  0.00    -0.013 C
HETATM   27  C19 UNL     1      30.173 -39.595  40.718  1.00  0.00     0.005 C
HETATM   28  C20 UNL     1      29.348 -38.316  40.694  1.00  0.00     0.000 C
HETATM   29  C21 UNL     1      29.565 -37.636  42.022  1.00  0.00     0.000 C
HETATM   30  C22 UNL     1      30.622 -38.302  42.867  1.00  0.00     0.000 C
HETATM   31  C23 UNL     1      30.386 -39.752  43.112  1.00  0.00     0.005 C
ENDBRANCH  25  26
ENDBRANCH  24  25
BRANCH  24  32
HETATM   32  C24 UNL     1      27.732 -42.715  42.028  1.00  0.00     0.260 C
BRANCH  32  33
HETATM   33  N5  UNL     1      27.082 -41.514  41.548  1.00  0.00    -0.068 N
ATOM     34  H53 UNL     1      26.751 -41.647  40.593  1.00  0.00     0.275 HD
ATOM     35  H52 UNL     1      26.190 -41.376  42.024  1.00  0.00     0.275 HD
ATOM     36  H51 UNL     1      27.654 -40.671  41.612  1.00  0.00     0.275 HD
ENDBRANCH  32  33
BRANCH  32  37
HETATM   37  C25 UNL     1      26.833 -43.907  41.939  1.00  0.00     0.286 C
BRANCH  37  38
HETATM   38  O2  UNL     1      26.983 -44.700  43.121  1.00  0.00    -0.369 OA
ATOM     39  H2  UNL     1      26.175 -45.170  43.287  1.00  0.00     0.212 HD
ENDBRANCH  37  38
BRANCH  37  40
HETATM   40  O3  UNL     1      27.246 -44.773  40.909  1.00  0.00    -0.369 OA
ATOM     41  H3  UNL     1      26.753 -44.613  40.113  1.00  0.00     0.212 HD
ENDBRANCH  37  40
ENDBRANCH  32  37
ENDBRANCH  24  32
ENDBRANCH   3  24
TORSDOF 16
ENDMDL