MODEL 1
REMARK VINA RESULT: -7.180681642      0.000      0.000
REMARK  18 active torsions:
REMARK  status: ('A' for Active; 'I' for Inactive)
REMARK    1  A    between atoms: C2_2  and  C3_3
REMARK    2  A    between atoms: C3_3  and  N1_4
REMARK    3  A    between atoms: C3_3  and  C18_30
REMARK       I    between atoms: N1_4  and  C4_6
REMARK    4  A    between atoms: C4_6  and  C5_8
REMARK    5  A    between atoms: C5_8  and  C6_9
REMARK    6  A    between atoms: C5_8  and  N2_16
REMARK    7  A    between atoms: C6_9  and  C7_10
REMARK    8  A    between atoms: N2_16  and  C13_18
REMARK    9  A    between atoms: C13_18  and  O2_19
REMARK   10  A    between atoms: C13_18  and  C14_21
REMARK   11  A    between atoms: C14_21  and  N3_22
REMARK   12  A    between atoms: C14_21  and  C15_26
REMARK   13  A    between atoms: C15_26  and  C16_27
REMARK   14  A    between atoms: C16_27  and  S1_28
REMARK   15  A    between atoms: C18_30  and  O3_31
REMARK   16  A    between atoms: C18_30  and  N4_33
REMARK   17  A    between atoms: C22_37  and  C23_38
REMARK   18  A    between atoms: C23_38  and  N5_39
ROOT
HETATM    1  C5  UNL     1      27.992 -46.613  41.501  1.00  0.00     0.171 C
ENDROOT
BRANCH   1   2
HETATM    2  C4  UNL     1      29.037 -47.207  40.636  1.00  0.00     0.240 C
HETATM    3  N1  UNL     1      28.993 -48.519  40.149  1.00  0.00    -0.347 N
ATOM      4  H1  UNL     1      28.204 -49.116  40.392  1.00  0.00     0.163 HD
HETATM    5  O1  UNL     1      30.016 -46.483  40.329  1.00  0.00    -0.271 OA
BRANCH   3   6
HETATM    6  C3  UNL     1      30.063 -49.051  39.296  1.00  0.00     0.158 C
BRANCH   6   7
HETATM    7  C2  UNL     1      30.468 -50.390  39.764  1.00  0.00     0.029 C
HETATM    8  C1  UNL     1      29.277 -51.325  39.987  1.00  0.00     0.007 C
ENDBRANCH   6   7
BRANCH   6   9
HETATM    9  C18 UNL     1      29.558 -48.921  37.918  1.00  0.00     0.137 C
BRANCH   9  10
HETATM   10  O3  UNL     1      28.764 -47.898  37.732  1.00  0.00    -0.348 OA
ATOM     11  H3  UNL     1      28.132 -47.763  38.428  1.00  0.00     0.219 HD
ENDBRANCH   9  10
BRANCH   9  12
HETATM   12  N4  UNL     1      29.764 -49.683  36.773  1.00  0.00    -0.357 N
HETATM   13  C19 UNL     1      28.976 -50.714  36.079  1.00  0.00     0.125 C
HETATM   14  C20 UNL     1      30.000 -51.847  36.139  1.00  0.00     0.022 C
HETATM   15  C21 UNL     1      31.352 -51.128  35.988  1.00  0.00     0.028 C
HETATM   16  C22 UNL     1      30.945 -49.676  35.868  1.00  0.00     0.111 C
BRANCH  16  17
HETATM   17  C23 UNL     1      31.988 -48.698  36.195  1.00  0.00     0.256 C
BRANCH  17  18
HETATM   18  N5  UNL     1      33.288 -49.393  36.034  1.00  0.00    -0.077 N
HETATM   19  C24 UNL     1      34.385 -48.455  36.111  1.00  0.00     0.267 C
ATOM     20  H52 UNL     1      33.394 -50.154  36.704  1.00  0.00     0.276 HD
ATOM     21  H51 UNL     1      33.319 -49.940  35.173  1.00  0.00     0.276 HD
ENDBRANCH  17  18
ENDBRANCH  16  17
ENDBRANCH   9  12
ENDBRANCH   6   9
ENDBRANCH   3   6
ENDBRANCH   1   2
BRANCH   1  22
HETATM   22  C6  UNL     1      27.767 -45.155  41.179  1.00  0.00     0.039 C
BRANCH  22  23
HETATM   23  C7  UNL     1      28.149 -44.185  42.231  1.00  0.00    -0.012 C
HETATM   24  C8  UNL     1      29.387 -43.419  41.712  1.00  0.00     0.005 C
HETATM   25  C9  UNL     1      29.397 -41.992  42.146  1.00  0.00     0.000 C
HETATM   26  C10 UNL     1      28.285 -41.220  41.505  1.00  0.00     0.000 C
HETATM   27  C11 UNL     1      27.025 -42.055  41.568  1.00  0.00     0.000 C
HETATM   28  C12 UNL     1      27.165 -43.151  42.624  1.00  0.00     0.005 C
ENDBRANCH  22  23
ENDBRANCH   1  22
BRANCH   1  29
HETATM   29  N2  UNL     1      28.165 -46.772  42.894  1.00  0.00    -0.383 N
ATOM     30  H2  UNL     1      27.465 -46.448  43.560  1.00  0.00     0.156 HD
BRANCH  29  31
HETATM   31  C13 UNL     1      29.361 -47.404  43.319  1.00  0.00     0.244 C
BRANCH  31  32
HETATM   32  O2  UNL     1      30.367 -46.411  43.377  1.00  0.00    -0.375 OA
ATOM     33  H2  UNL     1      30.980 -46.667  44.056  1.00  0.00     0.212 HD
ENDBRANCH  31  32
BRANCH  31  34
HETATM   34  C14 UNL     1      29.247 -47.919  44.771  1.00  0.00     0.232 C
BRANCH  34  35
HETATM   35  N3  UNL     1      30.518 -47.547  45.398  1.00  0.00    -0.071 N
ATOM     36  H33 UNL     1      31.132 -46.998  44.796  1.00  0.00     0.274 HD
ATOM     37  H32 UNL     1      30.428 -46.849  46.136  1.00  0.00     0.274 HD
ATOM     38  H31 UNL     1      30.921 -48.431  45.708  1.00  0.00     0.274 HD
ENDBRANCH  34  35
BRANCH  34  39
HETATM   39  C15 UNL     1      29.173 -49.399  44.674  1.00  0.00     0.047 C
BRANCH  39  40
HETATM   40  C16 UNL     1      29.725 -50.028  43.447  1.00  0.00     0.075 C
BRANCH  40  41
HETATM   41  S1  UNL     1      31.380 -50.670  43.549  1.00  0.00    -0.173 SA
HETATM   42  C17 UNL     1      32.604 -49.463  43.046  1.00  0.00     0.089 C
ENDBRANCH  40  41
ENDBRANCH  39  40
ENDBRANCH  34  39
ENDBRANCH  31  34
ENDBRANCH  29  31
ENDBRANCH   1  29
TORSDOF 18
ENDMDL