MODEL 5
REMARK VINA RESULT: -6.953349039      1.559      2.037
REMARK  17 active torsions:
REMARK  status: ('A' for Active; 'I' for Inactive)
REMARK    1  A    between atoms: C6_6  and  C7_7
REMARK    2  A    between atoms: C7_7  and  C8_8
REMARK    3  A    between atoms: C8_8  and  N1_9
REMARK    4  A    between atoms: C8_8  and  C18_26
REMARK    5  A    between atoms: N1_9  and  C9_12
REMARK    6  A    between atoms: C9_12  and  C10_13
REMARK    7  A    between atoms: C10_13  and  C11_15
REMARK    8  A    between atoms: C11_15  and  O2_16
REMARK    9  A    between atoms: C11_15  and  N2_18
REMARK   10  A    between atoms: N2_18  and  C12_20
REMARK   11  A    between atoms: C18_26  and  N3_28
REMARK       I    between atoms: N3_28  and  C20_30
REMARK   12  A    between atoms: C20_30  and  C21_32
REMARK   13  A    between atoms: C21_32  and  C22_33
REMARK   14  A    between atoms: C22_33  and  N4_34
REMARK   15  A    between atoms: C22_33  and  C23_38
REMARK   16  A    between atoms: C23_38  and  C24_39
REMARK   17  A    between atoms: C24_39  and  S1_40
ROOT
HETATM    1  C8  UNL     1       3.303  44.624  55.657  1.00  0.00     0.231 C
ENDROOT
BRANCH   1   2
HETATM    2  C7  UNL     1       3.990  43.407  56.099  1.00  0.00     0.015 C
BRANCH   2   3
HETATM    3  C6  UNL     1       5.444  43.284  56.108  1.00  0.00    -0.054 C
HETATM    4  C2  UNL     1       6.103  42.857  57.352  1.00  0.00    -0.061 C
HETATM    5  C1  UNL     1       5.722  43.084  58.596  1.00  0.00     0.019 C
HETATM    6  C3  UNL     1       7.304  42.096  56.943  1.00  0.00     0.038 C
HETATM    7  C4  UNL     1       7.577  42.615  55.549  1.00  0.00     0.009 C
HETATM    8  C5  UNL     1       6.130  42.590  54.976  1.00  0.00     0.039 C
ENDBRANCH   2   3
ENDBRANCH   1   2
BRANCH   1   9
HETATM    9  N1  UNL     1       2.101  44.244  54.869  1.00  0.00    -0.059 N
ATOM     10  H12 UNL     1       2.120  43.249  54.650  1.00  0.00     0.278 HD
ATOM     11  H11 UNL     1       1.267  44.280  55.456  1.00  0.00     0.278 HD
BRANCH   9  12
HETATM   12  C9  UNL     1       1.907  45.001  53.694  1.00  0.00     0.316 C
BRANCH  12  13
HETATM   13  C10 UNL     1       1.879  44.077  52.500  1.00  0.00     0.200 C
HETATM   14  O1  UNL     1       1.984  42.880  52.666  1.00  0.00    -0.291 OA
BRANCH  13  15
HETATM   15  C11 UNL     1       1.726  44.611  51.101  1.00  0.00     0.286 C
BRANCH  15  16
HETATM   16  O2  UNL     1       1.779  45.979  51.170  1.00  0.00    -0.370 OA
ATOM     17  H2  UNL     1       2.226  46.208  51.977  1.00  0.00     0.212 HD
ENDBRANCH  15  16
BRANCH  15  18
HETATM   18  N2  UNL     1       0.577  44.024  50.522  1.00  0.00    -0.387 N
ATOM     19  H2  UNL     1      -0.089  43.507  51.096  1.00  0.00     0.156 HD
BRANCH  18  20
HETATM   20  C12 UNL     1       0.371  44.168  49.128  1.00  0.00     0.079 C
HETATM   21  C13 UNL     1      -1.053  43.689  48.826  1.00  0.00     0.025 C
HETATM   22  C14 UNL     1      -1.499  44.345  47.563  1.00  0.00     0.002 C
HETATM   23  C15 UNL     1      -0.283  44.597  46.689  1.00  0.00     0.000 C
HETATM   24  C16 UNL     1       0.664  43.427  46.819  1.00  0.00     0.002 C
HETATM   25  C17 UNL     1       1.314  43.488  48.209  1.00  0.00     0.025 C
ENDBRANCH  18  20
ENDBRANCH  15  18
ENDBRANCH  13  15
ENDBRANCH  12  13
ENDBRANCH   9  12
ENDBRANCH   1   9
BRANCH   1  26
HETATM   26  C18 UNL     1       2.805  45.594  56.663  1.00  0.00     0.114 C
HETATM   27  C19 UNL     1       3.490  46.911  56.664  1.00  0.00     0.034 C
BRANCH  26  28
HETATM   28  N3  UNL     1       2.883  45.013  58.021  1.00  0.00    -0.354 N
HETATM   29  C20 UNL     1       1.801  44.287  58.561  1.00  0.00     0.220 C
HETATM   30  O3  UNL     1       0.721  44.123  57.891  1.00  0.00    -0.274 OA
ATOM     31  H3  UNL     1       3.731  45.139  58.575  1.00  0.00     0.162 HD
BRANCH  29  32
HETATM   32  C21 UNL     1       1.856  43.684  59.906  1.00  0.00     0.135 C
BRANCH  32  33
HETATM   33  C22 UNL     1       0.521  43.008  60.187  1.00  0.00     0.193 C
BRANCH  33  34
HETATM   34  N4  UNL     1       0.622  41.636  59.809  1.00  0.00    -0.075 N
ATOM     35  H43 UNL     1       1.125  41.075  60.496  1.00  0.00     0.274 HD
ATOM     36  H42 UNL     1      -0.273  41.148  59.860  1.00  0.00     0.274 HD
ATOM     37  H41 UNL     1       1.041  41.587  58.881  1.00  0.00     0.274 HD
ENDBRANCH  33  34
BRANCH  33  38
HETATM   38  C23 UNL     1       0.108  43.124  61.619  1.00  0.00     0.043 C
BRANCH  38  39
HETATM   39  C24 UNL     1      -1.158  43.858  61.888  1.00  0.00     0.075 C
BRANCH  39  40
HETATM   40  S1  UNL     1      -1.440  45.274  60.823  1.00  0.00    -0.173 SA
HETATM   41  C25 UNL     1      -0.226  46.595  61.109  1.00  0.00     0.089 C
ENDBRANCH  39  40
ENDBRANCH  38  39
ENDBRANCH  33  38
ENDBRANCH  32  33
ENDBRANCH  29  32
ENDBRANCH  26  28
ENDBRANCH   1  26
TORSDOF 17
ENDMDL