MODEL 5
REMARK VINA RESULT: -6.553524824      3.657      7.718
REMARK  18 active torsions:
REMARK  status: ('A' for Active; 'I' for Inactive)
REMARK    1  A    between atoms: C2_2  and  C3_3
REMARK    2  A    between atoms: C3_3  and  N1_4
REMARK    3  A    between atoms: C3_3  and  C10_15
REMARK    4  A    between atoms: N1_4  and  C4_6
REMARK    5  A    between atoms: C4_6  and  O1_7
REMARK    6  A    between atoms: C5_9  and  C6_11
REMARK    7  A    between atoms: C6_11  and  C8_13
REMARK       I    between atoms: C10_15  and  N3_17
REMARK    8  A    between atoms: N3_17  and  C11_19
REMARK    9  A    between atoms: C11_19  and  C12_20
REMARK   10  A    between atoms: C11_19  and  C16_24
REMARK   11  A    between atoms: C12_20  and  C13_21
REMARK   12  A    between atoms: C16_24  and  O3_25
REMARK   13  A    between atoms: C16_24  and  N4_27
REMARK   14  A    between atoms: N4_27  and  C17_29
REMARK   15  A    between atoms: C17_29  and  C18_30
REMARK   16  A    between atoms: C17_29  and  C24_36
REMARK   17  A    between atoms: C18_30  and  C19_31
REMARK   18  A    between atoms: C24_36  and  O4_39
ROOT
HETATM    1  C11 UNL     1       6.429  47.093  58.030  1.00  0.00     0.159 C
ENDROOT
BRANCH   1   2
HETATM    2  N3  UNL     1       4.928  47.039  58.190  1.00  0.00    -0.347 N
HETATM    3  C10 UNL     1       4.261  47.833  59.129  1.00  0.00     0.241 C
HETATM    4  O2  UNL     1       4.937  48.592  59.861  1.00  0.00    -0.271 OA
ATOM      5  H3  UNL     1       4.388  46.407  57.599  1.00  0.00     0.163 HD
BRANCH   3   6
HETATM    6  C3  UNL     1       2.762  47.817  59.300  1.00  0.00     0.175 C
BRANCH   6   7
HETATM    7  C2  UNL     1       2.257  49.082  59.907  1.00  0.00     0.030 C
HETATM    8  C1  UNL     1       1.061  49.687  59.220  1.00  0.00     0.007 C
ENDBRANCH   6   7
BRANCH   6   9
HETATM    9  N1  UNL     1       2.194  47.287  58.157  1.00  0.00    -0.356 N
ATOM     10  H1  UNL     1       2.244  47.879  57.327  1.00  0.00     0.162 HD
BRANCH   9  11
HETATM   11  C4  UNL     1       1.564  46.061  57.979  1.00  0.00     0.157 C
HETATM   12  C5  UNL     1       2.135  44.792  57.594  1.00  0.00     0.078 C
HETATM   13  N2  UNL     1       3.448  44.541  58.097  1.00  0.00    -0.102 NA
BRANCH  11  14
HETATM   14  O1  UNL     1       0.266  46.263  57.381  1.00  0.00    -0.345 OA
ATOM     15  H1  UNL     1      -0.314  45.550  57.624  1.00  0.00     0.219 HD
ENDBRANCH  11  14
BRANCH  12  16
HETATM   16  C6  UNL     1       1.822  44.189  56.266  1.00  0.00     0.033 C
HETATM   17  C7  UNL     1       2.426  45.030  55.134  1.00  0.00     0.016 C
BRANCH  16  18
HETATM   18  C8  UNL     1       2.170  42.790  56.005  1.00  0.00     0.006 C
HETATM   19  C9  UNL     1       2.131  42.573  54.486  1.00  0.00     0.006 C
ENDBRANCH  16  18
ENDBRANCH  12  16
ENDBRANCH   9  11
ENDBRANCH   6   9
ENDBRANCH   3   6
ENDBRANCH   1   2
BRANCH   1  20
HETATM   20  C12 UNL     1       6.649  48.101  56.993  1.00  0.00     0.037 C
BRANCH  20  21
HETATM   21  C13 UNL     1       7.829  48.990  57.061  1.00  0.00    -0.020 C
HETATM   22  C14 UNL     1       9.031  48.365  56.365  1.00  0.00     0.009 C
HETATM   23  C15 UNL     1       8.221  49.110  58.548  1.00  0.00     0.009 C
ENDBRANCH  20  21
ENDBRANCH   1  20
BRANCH   1  24
HETATM   24  C16 UNL     1       6.910  45.725  57.905  1.00  0.00     0.135 C
BRANCH  24  25
HETATM   25  O3  UNL     1       8.134  45.575  58.361  1.00  0.00    -0.348 OA
ATOM     26  H3  UNL     1       8.165  45.078  59.169  1.00  0.00     0.219 HD
ENDBRANCH  24  25
BRANCH  24  27
HETATM   27  N4  UNL     1       6.357  44.568  57.415  1.00  0.00    -0.365 N
ATOM     28  H4  UNL     1       5.382  44.567  57.114  1.00  0.00     0.161 HD
BRANCH  27  29
HETATM   29  C17 UNL     1       7.152  43.316  57.314  1.00  0.00     0.117 C
BRANCH  29  30
HETATM   30  C18 UNL     1       6.376  42.316  58.133  1.00  0.00     0.033 C
BRANCH  30  31
HETATM   31  C19 UNL     1       7.170  41.676  59.242  1.00  0.00    -0.013 C
HETATM   32  C20 UNL     1       7.375  40.197  59.023  1.00  0.00     0.005 C
HETATM   33  C21 UNL     1       8.589  39.946  59.935  1.00  0.00     0.000 C
HETATM   34  C22 UNL     1       9.519  41.033  59.397  1.00  0.00     0.000 C
HETATM   35  C23 UNL     1       8.601  42.200  59.103  1.00  0.00     0.005 C
ENDBRANCH  30  31
ENDBRANCH  29  30
BRANCH  29  36
HETATM   36  C24 UNL     1       7.341  42.970  55.889  1.00  0.00     0.071 C
HETATM   37  C25 UNL     1       7.868  41.571  55.661  1.00  0.00     0.047 C
HETATM   38  C26 UNL     1       5.926  42.950  55.270  1.00  0.00     0.047 C
BRANCH  36  39
HETATM   39  O4  UNL     1       8.062  43.847  55.122  1.00  0.00    -0.389 OA
ATOM     40  H4  UNL     1       8.275  43.576  54.237  1.00  0.00     0.210 HD
ENDBRANCH  36  39
ENDBRANCH  29  36
ENDBRANCH  27  29
ENDBRANCH  24  27
ENDBRANCH   1  24
TORSDOF 18
ENDMDL