MODEL 5
REMARK VINA RESULT: -6.664013612      0.974      1.561
REMARK  14 active torsions:
REMARK  status: ('A' for Active; 'I' for Inactive)
REMARK    1  A    between atoms: C4_4  and  S1_5
REMARK    2  A    between atoms: S1_5  and  C5_6
REMARK    3  A    between atoms: S1_5  and  N4_31
REMARK    4  A    between atoms: C5_6  and  C6_7
REMARK    5  A    between atoms: C6_7  and  C7_8
REMARK    6  A    between atoms: C7_8  and  C8_9
REMARK    7  A    between atoms: C7_8  and  C15_16
REMARK    8  A    between atoms: C8_9  and  C9_10
REMARK       I    between atoms: C15_16  and  N1_18
REMARK    9  A    between atoms: N1_18  and  C16_20
REMARK   10  A    between atoms: C16_20  and  C17_21
REMARK   11  A    between atoms: C16_20  and  C20_28
REMARK   12  A    between atoms: C17_21  and  C18_22
REMARK   13  A    between atoms: C18_22  and  C19_23
REMARK   14  A    between atoms: C19_23  and  N2_24
ROOT
HETATM    1  C7  UNL     1       2.646  44.277  54.575  1.00  0.00     0.079 C
ENDROOT
BRANCH   1   2
HETATM    2  C6  UNL     1       3.213  43.159  55.420  1.00  0.00     0.025 C
BRANCH   2   3
HETATM    3  C5  UNL     1       4.659  43.325  55.725  1.00  0.00     0.092 C
BRANCH   3   4
HETATM    4  S1  UNL     1       4.940  43.439  57.473  1.00  0.00    -0.053 SA
BRANCH   4   5
HETATM    5  C4  UNL     1       6.183  42.279  57.983  1.00  0.00     0.067 C
HETATM    6  C3  UNL     1       7.175  42.028  56.878  1.00  0.00     0.048 C
HETATM    7  C2  UNL     1       8.310  43.006  56.884  1.00  0.00     0.183 C
HETATM    8  C1  UNL     1       9.254  42.694  55.766  1.00  0.00     0.040 C
HETATM    9  N5  UNL     1       8.996  42.857  58.168  1.00  0.00    -0.071 N
HETATM   10  C22 UNL     1       8.101  43.393  59.169  1.00  0.00     0.234 C
ATOM     11  H52 UNL     1       9.293  41.900  58.360  1.00  0.00     0.277 HD
ATOM     12  H51 UNL     1       9.924  43.281  58.185  1.00  0.00     0.277 HD
HETATM   13  C21 UNL     1       6.816  42.620  59.286  1.00  0.00     0.044 C
ENDBRANCH   4   5
BRANCH   4  14
HETATM   14  N4  UNL     1       5.319  45.016  57.988  1.00  0.00    -0.094 N
HETATM   15  O3  UNL     1       6.077  45.718  57.280  1.00  0.00    -0.527 OA
HETATM   16  O4  UNL     1       4.816  45.531  59.155  1.00  0.00    -0.527 OA
ENDBRANCH   4  14
ENDBRANCH   3   4
ENDBRANCH   2   3
ENDBRANCH   1   2
BRANCH   1  17
HETATM   17  C8  UNL     1       1.607  44.994  55.369  1.00  0.00     0.018 C
BRANCH  17  18
HETATM   18  C9  UNL     1       2.004  45.213  56.819  1.00  0.00    -0.014 C
HETATM   19  C10 UNL     1       2.140  46.711  57.002  1.00  0.00     0.005 C
HETATM   20  C11 UNL     1       1.783  47.133  58.410  1.00  0.00     0.000 C
HETATM   21  C12 UNL     1       0.341  46.832  58.748  1.00  0.00     0.000 C
HETATM   22  C13 UNL     1      -0.145  45.698  57.876  1.00  0.00     0.000 C
HETATM   23  C14 UNL     1       0.982  44.684  57.790  1.00  0.00     0.005 C
ENDBRANCH  17  18
ENDBRANCH   1  17
BRANCH   1  24
HETATM   24  C15 UNL     1       2.161  43.783  53.280  1.00  0.00     0.222 C
HETATM   25  O1  UNL     1       1.991  42.553  53.118  1.00  0.00    -0.273 OA
HETATM   26  N1  UNL     1       1.880  44.663  52.216  1.00  0.00    -0.348 N
ATOM     27  H1  UNL     1       2.015  45.667  52.337  1.00  0.00     0.163 HD
BRANCH  26  28
HETATM   28  C16 UNL     1       1.386  44.129  50.913  1.00  0.00     0.173 C
BRANCH  28  29
HETATM   29  C17 UNL     1       0.314  45.041  50.448  1.00  0.00     0.036 C
BRANCH  29  30
HETATM   30  C18 UNL     1      -0.774  44.428  49.649  1.00  0.00     0.030 C
BRANCH  30  31
HETATM   31  C19 UNL     1      -0.330  44.555  48.168  1.00  0.00     0.230 C
BRANCH  31  32
HETATM   32  N2  UNL     1      -0.099  43.201  47.718  1.00  0.00    -0.079 N
ATOM     33  H23 UNL     1       0.878  43.001  47.502  1.00  0.00     0.274 HD
ATOM     34  H22 UNL     1      -0.205  42.501  48.452  1.00  0.00     0.274 HD
ATOM     35  H21 UNL     1      -0.730  43.067  46.928  1.00  0.00     0.274 HD
ENDBRANCH  31  32
ENDBRANCH  30  31
ENDBRANCH  29  30
ENDBRANCH  28  29
BRANCH  28  36
HETATM   36  C20 UNL     1       2.499  44.068  49.959  1.00  0.00     0.254 C
HETATM   37  N3  UNL     1       2.898  42.933  49.227  1.00  0.00    -0.060 NA
HETATM   38  O2  UNL     1       3.176  45.136  49.772  1.00  0.00    -0.275 OA
ENDBRANCH  28  36
ENDBRANCH  26  28
ENDBRANCH   1  24
TORSDOF 14
ENDMDL