MODEL 3
REMARK VINA RESULT: -7.644557861      2.066      3.294
REMARK  16 active torsions:
REMARK  status: ('A' for Active; 'I' for Inactive)
REMARK    1  A    between atoms: C2_2  and  C3_4
REMARK    2  A    between atoms: C5_7  and  C6_8
REMARK    3  A    between atoms: C10_15  and  C11_16
REMARK    4  A    between atoms: C11_16  and  C12_17
REMARK    5  A    between atoms: C12_17  and  C13_18
REMARK    6  A    between atoms: C12_17  and  C22_33
REMARK    7  A    between atoms: C13_18  and  C14_19
REMARK    8  A    between atoms: C14_19  and  O4_20
REMARK    9  A    between atoms: C14_19  and  C15_22
REMARK   10  A    between atoms: C15_22  and  C16_23
REMARK   11  A    between atoms: C16_23  and  C17_24
REMARK   12  A    between atoms: C17_24  and  C18_25
REMARK   13  A    between atoms: C18_25  and  C19_26
REMARK   14  A    between atoms: C19_26  and  C20_27
REMARK   15  A    between atoms: C20_27  and  N2_28
REMARK   16  A    between atoms: C25_36  and  O5_37
ROOT
HETATM    1  C11 UNL     1       4.144  43.522  57.572  1.00  0.00     0.023 C
ENDROOT
BRANCH   1   2
HETATM    2  C10 UNL     1       3.500  44.552  58.405  1.00  0.00     0.045 C
HETATM    3  C9  UNL     1       3.879  45.966  58.228  1.00  0.00     0.251 C
HETATM    4  N1  UNL     1       3.969  47.148  59.047  1.00  0.00    -0.340 N
HETATM    5  O3  UNL     1       4.225  46.252  57.010  1.00  0.00    -0.268 OA
HETATM    6  C5  UNL     1       3.125  47.534  60.205  1.00  0.00     0.185 C
ATOM      7  H1  UNL     1       4.709  47.805  58.798  1.00  0.00     0.164 HD
HETATM    8  C4  UNL     1       2.011  46.650  60.225  1.00  0.00     0.006 C
HETATM    9  O2  UNL     1       0.953  45.965  60.294  1.00  0.00    -0.269 OA
HETATM   10  C3  UNL     1       1.001  44.986  59.225  1.00  0.00     0.142 C
HETATM   11  C25 UNL     1       2.175  44.231  58.962  1.00  0.00     0.218 C
BRANCH   6  12
HETATM   12  C6  UNL     1       2.778  49.029  60.064  1.00  0.00     0.013 C
HETATM   13  C7  UNL     1       1.446  49.236  59.430  1.00  0.00     0.012 C
HETATM   14  C8  UNL     1       2.767  49.690  61.424  1.00  0.00     0.012 C
ENDBRANCH   6  12
BRANCH  10  15
HETATM   15  C2  UNL     1       0.252  45.528  58.055  1.00  0.00     0.178 C
HETATM   16  C1  UNL     1      -1.125  46.063  58.182  1.00  0.00     0.099 C
HETATM   17  O1  UNL     1       0.733  45.562  56.928  1.00  0.00    -0.291 OA
ENDBRANCH  10  15
BRANCH  11  18
HETATM   18  O5  UNL     1       1.677  43.240  58.070  1.00  0.00    -0.384 OA
ATOM     19  H5  UNL     1       1.865  42.443  58.553  1.00  0.00     0.211 HD
ENDBRANCH  11  18
ENDBRANCH   1   2
BRANCH   1  20
HETATM   20  C12 UNL     1       4.379  43.508  56.150  1.00  0.00    -0.055 C
BRANCH  20  21
HETATM   21  C13 UNL     1       3.929  42.911  54.961  1.00  0.00     0.012 C
BRANCH  21  22
HETATM   22  C14 UNL     1       2.683  42.714  54.251  1.00  0.00     0.141 C
BRANCH  22  23
HETATM   23  O4  UNL     1       1.727  42.210  55.282  1.00  0.00    -0.392 OA
ATOM     24  H4  UNL     1       1.281  41.481  54.868  1.00  0.00     0.210 HD
ENDBRANCH  22  23
BRANCH  22  25
HETATM   25  C15 UNL     1       1.855  43.768  53.651  1.00  0.00     0.036 C
BRANCH  25  26
HETATM   26  C16 UNL     1       1.791  43.926  52.188  1.00  0.00     0.003 C
BRANCH  26  27
HETATM   27  C17 UNL     1       1.592  45.277  51.609  1.00  0.00     0.000 C
BRANCH  27  28
HETATM   28  C18 UNL     1       2.017  45.411  50.157  1.00  0.00     0.002 C
BRANCH  28  29
HETATM   29  C19 UNL     1       2.559  44.073  49.709  1.00  0.00     0.020 C
BRANCH  29  30
HETATM   30  C20 UNL     1       1.794  43.542  48.525  1.00  0.00     0.122 C
BRANCH  30  31
HETATM   31  N2  UNL     1       0.394  43.905  48.633  1.00  0.00    -0.367 N
HETATM   32  C21 UNL     1      -0.387  43.807  47.619  1.00  0.00     0.196 C
HETATM   33  N3  UNL     1       0.125  43.342  46.385  1.00  0.00    -0.067 NA
HETATM   34  N4  UNL     1      -1.749  44.166  47.741  1.00  0.00    -0.067 NA
ATOM     35  H2  UNL     1       0.027  44.241  49.524  1.00  0.00     0.161 HD
ENDBRANCH  30  31
ENDBRANCH  29  30
ENDBRANCH  28  29
ENDBRANCH  27  28
ENDBRANCH  26  27
ENDBRANCH  25  26
ENDBRANCH  22  25
ENDBRANCH  21  22
ENDBRANCH  20  21
BRANCH  20  36
HETATM   36  C22 UNL     1       5.988  43.302  56.061  1.00  0.00     0.010 C
HETATM   37  C23 UNL     1       6.411  42.457  54.939  1.00  0.00     0.015 C
HETATM   38  C24 UNL     1       6.391  42.586  57.352  1.00  0.00     0.015 C
ENDBRANCH  20  36
ENDBRANCH   1  20
TORSDOF 16
ENDMDL