MODEL 2
REMARK VINA RESULT: -7.396347083      2.485      7.423
REMARK  16 active torsions:
REMARK  status: ('A' for Active; 'I' for Inactive)
REMARK    1  A    between atoms: C2_2  and  C4_4
REMARK    2  A    between atoms: C4_4  and  C5_5
REMARK    3  A    between atoms: C5_5  and  N1_6
REMARK    4  A    between atoms: C5_5  and  C20_28
REMARK    5  A    between atoms: N1_6  and  C6_8
REMARK    6  A    between atoms: C6_8  and  C7_9
REMARK    7  A    between atoms: C6_8  and  C14_16
REMARK    8  A    between atoms: C7_9  and  C8_10
REMARK    9  A    between atoms: C14_16  and  O1_17
REMARK   10  A    between atoms: C14_16  and  C15_19
REMARK   11  A    between atoms: C15_19  and  N2_20
REMARK   12  A    between atoms: N2_20  and  C16_22
REMARK       I    between atoms: C20_28  and  N3_30
REMARK   13  A    between atoms: N3_30  and  C21_32
REMARK   14  A    between atoms: C21_32  and  C22_33
REMARK   15  A    between atoms: C22_33  and  O5_34
REMARK   16  A    between atoms: C22_33  and  C23_36
ROOT
HETATM    1  C6  UNL     1       2.156  45.715  56.674  1.00  0.00     0.014 C
ENDROOT
BRANCH   1   2
HETATM    2  N1  UNL     1       2.292  45.390  55.314  1.00  0.00    -0.381 N
ATOM      3  H1  UNL     1       2.515  46.125  54.642  1.00  0.00     0.160 HD
BRANCH   2   4
HETATM    4  C5  UNL     1       2.129  44.088  54.870  1.00  0.00     0.174 C
BRANCH   4   5
HETATM    5  C4  UNL     1       2.933  42.939  55.350  1.00  0.00     0.038 C
BRANCH   5   6
HETATM    6  C2  UNL     1       4.372  43.422  55.558  1.00  0.00    -0.020 C
HETATM    7  C1  UNL     1       4.700  43.310  57.053  1.00  0.00     0.009 C
HETATM    8  C3  UNL     1       5.405  42.619  54.852  1.00  0.00     0.009 C
ENDBRANCH   5   6
ENDBRANCH   4   5
BRANCH   4   9
HETATM    9  C20 UNL     1       2.088  43.952  53.350  1.00  0.00     0.244 C
HETATM   10  O4  UNL     1       2.383  42.881  52.789  1.00  0.00    -0.271 OA
HETATM   11  N3  UNL     1       1.709  45.077  52.589  1.00  0.00    -0.337 N
ATOM     12  H3  UNL     1       1.413  45.860  53.171  1.00  0.00     0.168 HD
BRANCH  11  13
HETATM   13  C21 UNL     1       1.644  45.371  51.223  1.00  0.00     0.095 C
BRANCH  13  14
HETATM   14  C22 UNL     1       1.362  44.235  50.302  1.00  0.00     0.160 C
BRANCH  14  15
HETATM   15  O5  UNL     1       2.457  43.411  50.060  1.00  0.00    -0.390 OA
ATOM     16  H5  UNL     1       2.298  42.491  50.234  1.00  0.00     0.210 HD
ENDBRANCH  14  15
BRANCH  14  17
HETATM   17  C23 UNL     1       0.571  44.596  49.075  1.00  0.00     0.011 C
HETATM   18  C24 UNL     1       1.052  43.697  47.924  1.00  0.00     0.012 C
HETATM   19  C25 UNL     1      -0.883  44.134  49.333  1.00  0.00     0.012 C
ENDBRANCH  14  17
ENDBRANCH  13  14
ENDBRANCH  11  13
ENDBRANCH   4   9
ENDBRANCH   2   4
ENDBRANCH   1   2
BRANCH   1  20
HETATM   20  C7  UNL     1       0.800  45.659  57.290  1.00  0.00     0.059 C
BRANCH  20  21
HETATM   21  C8  UNL     1       0.590  44.819  58.487  1.00  0.00    -0.009 C
HETATM   22  C9  UNL     1       1.566  43.781  58.844  1.00  0.00     0.005 C
HETATM   23  C10 UNL     1       0.901  42.795  59.805  1.00  0.00     0.000 C
HETATM   24  C11 UNL     1       0.320  43.515  60.973  1.00  0.00     0.000 C
HETATM   25  C12 UNL     1      -0.565  44.686  60.592  1.00  0.00     0.000 C
HETATM   26  C13 UNL     1       0.237  45.648  59.725  1.00  0.00     0.005 C
ENDBRANCH  20  21
ENDBRANCH   1  20
BRANCH   1  27
HETATM   27  C14 UNL     1       2.883  46.927  57.114  1.00  0.00     0.180 C
BRANCH  27  28
HETATM   28  O1  UNL     1       3.757  47.371  56.063  1.00  0.00    -0.388 OA
ATOM     29  H1  UNL     1       3.365  48.111  55.615  1.00  0.00     0.210 HD
ENDBRANCH  27  28
BRANCH  27  30
HETATM   30  C15 UNL     1       3.722  46.845  58.365  1.00  0.00     0.152 C
BRANCH  30  31
HETATM   31  N2  UNL     1       3.705  48.160  59.011  1.00  0.00    -0.406 N
ATOM     32  H2  UNL     1       4.411  48.867  58.805  1.00  0.00     0.154 HD
BRANCH  31  33
HETATM   33  C16 UNL     1       2.660  48.400  59.934  1.00  0.00     0.179 C
HETATM   34  C17 UNL     1       1.493  49.054  59.186  1.00  0.00     0.062 C
HETATM   35  C18 UNL     1       0.890  50.031  60.138  1.00  0.00     0.181 C
HETATM   36  O2  UNL     1       1.993  50.482  60.854  1.00  0.00    -0.320 OA
HETATM   37  C19 UNL     1       3.004  49.548  60.871  1.00  0.00     0.281 C
HETATM   38  O3  UNL     1       4.023  49.651  61.560  1.00  0.00    -0.263 OA
ENDBRANCH  31  33
ENDBRANCH  30  31
ENDBRANCH  27  30
ENDBRANCH   1  27
TORSDOF 16
ENDMDL