MODEL 3
REMARK VINA RESULT: -7.678685749      2.758      5.504
REMARK  16 active torsions:
REMARK  status: ('A' for Active; 'I' for Inactive)
REMARK    1  A    between atoms: C2_2  and  O1_3
REMARK    2  A    between atoms: O1_3  and  C3_4
REMARK       I    between atoms: C3_4  and  N1_6
REMARK    3  A    between atoms: N1_6  and  C4_8
REMARK    4  A    between atoms: C4_8  and  C6_10
REMARK       I    between atoms: C6_10  and  N2_12
REMARK    5  A    between atoms: N2_12  and  C7_14
REMARK    6  A    between atoms: C7_14  and  C8_15
REMARK    7  A    between atoms: C8_15  and  C9_16
REMARK    8  A    between atoms: C8_15  and  N3_21
REMARK    9  A    between atoms: C9_16  and  C10_17
REMARK   10  A    between atoms: C10_17  and  C11_18
REMARK   11  A    between atoms: N3_21  and  C14_24
REMARK   12  A    between atoms: C14_24  and  C15_25
REMARK   13  A    between atoms: C15_25  and  O4_26
REMARK   14  A    between atoms: C15_25  and  C16_28
REMARK   15  A    between atoms: C16_28  and  N4_29
REMARK   16  A    between atoms: N4_29  and  C17_31
ROOT
HETATM    1  C8  UNL     1       3.310  43.185  55.900  1.00  0.00     0.203 C
ENDROOT
BRANCH   1   2
HETATM    2  C7  UNL     1       4.306  44.208  56.332  1.00  0.00     0.155 C
BRANCH   2   3
HETATM    3  N2  UNL     1       5.458  43.603  56.956  1.00  0.00    -0.357 N
HETATM    4  C6  UNL     1       6.515  43.039  56.238  1.00  0.00     0.240 C
HETATM    5  O3  UNL     1       6.535  43.022  54.984  1.00  0.00    -0.271 OA
ATOM      6  H2  UNL     1       5.502  43.586  57.975  1.00  0.00     0.162 HD
BRANCH   4   7
HETATM    7  C4  UNL     1       7.652  42.436  56.994  1.00  0.00     0.174 C
HETATM    8  C5  UNL     1       8.848  42.222  56.070  1.00  0.00     0.042 C
BRANCH   7   9
HETATM    9  N1  UNL     1       7.325  41.129  57.521  1.00  0.00    -0.324 N
HETATM   10  C3  UNL     1       6.783  41.007  58.842  1.00  0.00     0.361 C
HETATM   11  O2  UNL     1       6.584  42.019  59.558  1.00  0.00    -0.238 OA
ATOM     12  H1  UNL     1       7.481  40.295  56.953  1.00  0.00     0.165 HD
BRANCH  10  13
HETATM   13  O1  UNL     1       6.464  39.765  59.361  1.00  0.00    -0.304 OA
BRANCH  13  14
HETATM   14  C2  UNL     1       5.938  39.616  60.688  1.00  0.00     0.176 C
HETATM   15  C1  UNL     1       5.044  38.396  60.654  1.00  0.00     0.034 C
ENDBRANCH  13  14
ENDBRANCH  10  13
ENDBRANCH   7   9
ENDBRANCH   4   7
ENDBRANCH   2   3
ENDBRANCH   1   2
BRANCH   1  16
HETATM   16  C9  UNL     1       1.900  43.545  56.336  1.00  0.00     0.035 C
BRANCH  16  17
HETATM   17  C10 UNL     1       1.936  44.927  56.937  1.00  0.00     0.006 C
BRANCH  17  18
HETATM   18  C11 UNL     1       1.218  44.993  58.258  1.00  0.00    -0.023 C
HETATM   19  C12 UNL     1       1.228  43.655  58.925  1.00  0.00     0.009 C
HETATM   20  C13 UNL     1      -0.188  45.502  58.012  1.00  0.00     0.009 C
ENDBRANCH  17  18
ENDBRANCH  16  17
ENDBRANCH   1  16
BRANCH   1  21
HETATM   21  N3  UNL     1       3.328  42.964  54.466  1.00  0.00    -0.067 N
ATOM     22  H32 UNL     1       4.083  43.497  54.035  1.00  0.00     0.277 HD
ATOM     23  H31 UNL     1       3.641  42.016  54.258  1.00  0.00     0.277 HD
BRANCH  21  24
HETATM   24  C14 UNL     1       2.095  43.234  53.805  1.00  0.00     0.265 C
BRANCH  24  25
HETATM   25  C15 UNL     1       2.191  44.377  52.825  1.00  0.00     0.161 C
BRANCH  25  26
HETATM   26  O4  UNL     1       1.782  45.557  53.434  1.00  0.00    -0.392 OA
ATOM     27  H4  UNL     1       2.540  46.043  53.737  1.00  0.00     0.210 HD
ENDBRANCH  25  26
BRANCH  25  28
HETATM   28  C16 UNL     1       1.472  44.116  51.521  1.00  0.00     0.147 C
BRANCH  28  29
HETATM   29  N4  UNL     1       1.786  45.137  50.578  1.00  0.00    -0.410 N
ATOM     30  H4  UNL     1       2.231  46.012  50.855  1.00  0.00     0.154 HD
BRANCH  29  31
HETATM   31  C17 UNL     1       1.436  44.857  49.213  1.00  0.00     0.026 C
HETATM   32  C18 UNL     1      -0.053  44.637  49.053  1.00  0.00     0.035 C
HETATM   33  C19 UNL     1      -0.356  44.182  47.649  1.00  0.00    -0.012 C
HETATM   34  C20 UNL     1       0.312  42.840  47.442  1.00  0.00     0.009 C
HETATM   35  C24 UNL     1       0.127  45.203  46.655  1.00  0.00     0.009 C
HETATM   36  C21 UNL     1       1.807  43.042  47.522  1.00  0.00    -0.012 C
HETATM   37  C22 UNL     1       2.319  44.075  46.565  1.00  0.00     0.009 C
HETATM   38  C26 UNL     1       2.119  43.513  48.912  1.00  0.00     0.035 C
HETATM   39  C23 UNL     1       1.617  45.368  46.831  1.00  0.00    -0.012 C
HETATM   40  C25 UNL     1       1.853  45.901  48.232  1.00  0.00     0.035 C
ENDBRANCH  29  31
ENDBRANCH  28  29
ENDBRANCH  25  28
ENDBRANCH  24  25
ENDBRANCH  21  24
ENDBRANCH   1  21
TORSDOF 16
ENDMDL