MODEL 2
REMARK VINA RESULT: -6.276348436      2.784      6.692
REMARK  17 active torsions:
REMARK  status: ('A' for Active; 'I' for Inactive)
REMARK    1  A    between atoms: C2_2  and  C3_3
REMARK    2  A    between atoms: C3_3  and  N1_5
REMARK    3  A    between atoms: N1_5  and  C5_7
REMARK    4  A    between atoms: C5_7  and  O1_8
REMARK    5  A    between atoms: C5_7  and  C6_10
REMARK    6  A    between atoms: C6_10  and  C7_11
REMARK    7  A    between atoms: C9_13  and  C10_14
REMARK    8  A    between atoms: C9_13  and  C23_40
REMARK       I    between atoms: C10_14  and  N2_16
REMARK    9  A    between atoms: N2_16  and  C11_18
REMARK   10  A    between atoms: C11_18  and  O3_19
REMARK   11  A    between atoms: C11_18  and  C13_21
REMARK       I    between atoms: C13_21  and  N3_23
REMARK   12  A    between atoms: N3_23  and  C14_25
REMARK   13  A    between atoms: C14_25  and  C15_26
REMARK   14  A    between atoms: C14_25  and  C22_33
REMARK   15  A    between atoms: C15_26  and  C16_27
REMARK   16  A    between atoms: C22_33  and  N4_34
REMARK   17  A    between atoms: C22_33  and  O5_38
ROOT
HETATM    1  C11 UNL     1       6.364  43.779  57.292  1.00  0.00     0.316 C
ENDROOT
BRANCH   1   2
HETATM    2  N2  UNL     1       6.557  45.210  57.496  1.00  0.00    -0.323 N
HETATM    3  C10 UNL     1       7.671  45.769  58.125  1.00  0.00     0.254 C
HETATM    4  O2  UNL     1       8.558  44.994  58.557  1.00  0.00    -0.268 OA
ATOM      5  H2  UNL     1       5.833  45.843  57.156  1.00  0.00     0.165 HD
BRANCH   3   6
HETATM    6  C9  UNL     1       7.823  47.270  58.288  1.00  0.00     0.044 C
HETATM    7  C6  UNL     1       7.252  47.728  59.523  1.00  0.00     0.008 C
BRANCH   7   8
HETATM    8  C5  UNL     1       5.822  47.584  59.835  1.00  0.00     0.143 C
BRANCH   8   9
HETATM    9  N1  UNL     1       4.759  48.485  59.852  1.00  0.00    -0.366 N
ATOM     10  H1  UNL     1       4.897  49.467  60.091  1.00  0.00     0.162 HD
BRANCH   9  11
HETATM   11  C3  UNL     1       3.416  47.952  59.506  1.00  0.00     0.079 C
HETATM   12  C4  UNL     1       3.242  47.787  58.029  1.00  0.00     0.032 C
BRANCH  11  13
HETATM   13  C2  UNL     1       2.321  48.835  60.114  1.00  0.00     0.020 C
HETATM   14  C1  UNL     1       1.316  49.200  59.025  1.00  0.00     0.007 C
ENDBRANCH  11  13
ENDBRANCH   9  11
ENDBRANCH   8   9
BRANCH   8  15
HETATM   15  O1  UNL     1       5.434  46.383  60.166  1.00  0.00    -0.346 OA
ATOM     16  H1  UNL     1       5.994  45.720  59.783  1.00  0.00     0.219 HD
ENDBRANCH   8  15
ENDBRANCH   7   8
BRANCH   7  17
HETATM   17  C7  UNL     1       7.750  48.992  60.189  1.00  0.00     0.039 C
HETATM   18  C8  UNL     1       9.201  49.285  60.031  1.00  0.00     0.010 C
ENDBRANCH   7  17
BRANCH   6  19
HETATM   19  C23 UNL     1       7.659  47.897  56.974  1.00  0.00    -0.071 C
HETATM   20  C24 UNL     1       6.615  48.961  56.819  1.00  0.00     0.044 C
HETATM   21  C25 UNL     1       8.940  48.251  56.232  1.00  0.00     0.044 C
ENDBRANCH   6  19
ENDBRANCH   3   6
ENDBRANCH   1   2
BRANCH   1  22
HETATM   22  O3  UNL     1       6.897  43.423  56.105  1.00  0.00    -0.362 OA
HETATM   23  C12 UNL     1       7.638  42.230  56.115  1.00  0.00     0.204 C
ENDBRANCH   1  22
BRANCH   1  24
HETATM   24  C13 UNL     1       4.894  43.452  57.378  1.00  0.00     0.267 C
HETATM   25  O4  UNL     1       4.491  42.828  58.366  1.00  0.00    -0.269 OA
HETATM   26  N3  UNL     1       3.991  43.840  56.371  1.00  0.00    -0.348 N
ATOM     27  H3  UNL     1       4.386  44.350  55.581  1.00  0.00     0.163 HD
BRANCH  26  28
HETATM   28  C14 UNL     1       2.583  43.598  56.330  1.00  0.00     0.140 C
BRANCH  28  29
HETATM   29  C15 UNL     1       1.821  44.835  56.660  1.00  0.00     0.034 C
BRANCH  29  30
HETATM   30  C16 UNL     1       0.716  44.661  57.667  1.00  0.00    -0.013 C
HETATM   31  C17 UNL     1       0.087  46.020  57.888  1.00  0.00     0.005 C
HETATM   32  C18 UNL     1      -1.007  45.906  58.926  1.00  0.00     0.000 C
HETATM   33  C19 UNL     1      -0.337  45.690  60.251  1.00  0.00     0.000 C
HETATM   34  C20 UNL     1       1.099  45.236  60.091  1.00  0.00     0.000 C
HETATM   35  C21 UNL     1       1.239  44.194  59.008  1.00  0.00     0.005 C
ENDBRANCH  29  30
ENDBRANCH  28  29
BRANCH  28  36
HETATM   36  C22 UNL     1       2.183  43.009  54.987  1.00  0.00     0.339 C
BRANCH  36  37
HETATM   37  N4  UNL     1       3.280  42.631  54.168  1.00  0.00    -0.051 N
ATOM     38  H43 UNL     1       4.101  43.192  54.390  1.00  0.00     0.277 HD
ATOM     39  H42 UNL     1       3.623  41.709  54.435  1.00  0.00     0.277 HD
ATOM     40  H41 UNL     1       3.084  42.665  53.167  1.00  0.00     0.277 HD
ENDBRANCH  36  37
BRANCH  36  41
HETATM   41  O5  UNL     1       1.381  41.898  55.263  1.00  0.00    -0.368 OA
ATOM     42  H5  UNL     1       1.803  41.152  54.855  1.00  0.00     0.212 HD
ENDBRANCH  36  41
ENDBRANCH  28  36
ENDBRANCH  26  28
ENDBRANCH   1  24
TORSDOF 17
ENDMDL