MODEL 4
REMARK VINA RESULT: -6.232296834      1.723      2.169
REMARK  16 active torsions:
REMARK  status: ('A' for Active; 'I' for Inactive)
REMARK    1  A    between atoms: C2_2  and  N2_6
REMARK    2  A    between atoms: N2_6  and  C3_8
REMARK    3  A    between atoms: C3_8  and  C4_9
REMARK    4  A    between atoms: C4_9  and  C5_10
REMARK    5  A    between atoms: C5_10  and  C6_11
REMARK    6  A    between atoms: C6_11  and  C7_12
REMARK    7  A    between atoms: C6_11  and  N4_32
REMARK    8  A    between atoms: C7_12  and  C8_13
REMARK    9  A    between atoms: C8_13  and  C9_15
REMARK   10  A    between atoms: C10_16  and  C12_18
REMARK   11  A    between atoms: C13_19  and  C14_20
REMARK   12  A    between atoms: C14_20  and  O2_21
REMARK   13  A    between atoms: C14_20  and  C15_23
REMARK   14  A    between atoms: C15_23  and  C16_24
REMARK   15  A    between atoms: C15_23  and  S1_27
REMARK   16  A    between atoms: S1_27  and  S2_29
ROOT
HETATM    1  S2  UNL     1      -1.330  44.468  48.679  1.00  0.00     0.055 SA
HETATM    2  C19 UNL     1      -0.658  43.632  47.306  1.00  0.00     0.147 C
HETATM    3  N3  UNL     1      -0.193  43.081  46.402  1.00  0.00    -0.183 NA
ENDROOT
BRANCH   1   4
HETATM    4  S1  UNL     1       0.023  45.262  49.981  1.00  0.00     0.099 S
HETATM    5  O3  UNL     1      -0.570  46.195  51.200  1.00  0.00    -0.245 OA
BRANCH   4   6
HETATM    6  C15 UNL     1       1.337  44.169  50.462  1.00  0.00     0.127 C
BRANCH   6   7
HETATM    7  C14 UNL     1       1.510  44.312  51.938  1.00  0.00     0.158 C
BRANCH   7   8
HETATM    8  C13 UNL     1       2.280  43.263  52.584  1.00  0.00     0.006 C
HETATM    9  C12 UNL     1       2.542  43.067  53.817  1.00  0.00     0.005 C
BRANCH   9  10
HETATM   10  C10 UNL     1       2.252  43.697  55.067  1.00  0.00    -0.059 C
HETATM   11  C9  UNL     1       2.520  42.974  56.168  1.00  0.00     0.056 C
HETATM   12  C11 UNL     1       1.698  45.035  55.332  1.00  0.00     0.048 C
BRANCH  11  13
HETATM   13  C8  UNL     1       2.320  43.378  57.518  1.00  0.00     0.151 C
HETATM   14  O1  UNL     1       1.302  43.223  58.212  1.00  0.00    -0.293 OA
BRANCH  13  15
HETATM   15  C7  UNL     1       3.455  44.083  58.237  1.00  0.00     0.108 C
BRANCH  15  16
HETATM   16  C6  UNL     1       3.225  45.549  58.369  1.00  0.00     0.091 C
BRANCH  16  17
HETATM   17  C5  UNL     1       2.480  45.776  59.681  1.00  0.00     0.027 C
BRANCH  17  18
HETATM   18  C4  UNL     1       1.126  46.401  59.457  1.00  0.00     0.022 C
BRANCH  18  19
HETATM   19  C3  UNL     1       0.689  46.993  60.774  1.00  0.00     0.121 C
BRANCH  19  20
HETATM   20  N2  UNL     1       0.222  48.344  60.548  1.00  0.00    -0.380 N
ATOM     21  H2  UNL     1      -0.733  48.568  60.827  1.00  0.00     0.160 HD
BRANCH  20  22
HETATM   22  C2  UNL     1       0.997  49.374  59.969  1.00  0.00     0.066 C
HETATM   23  C1  UNL     1       2.230  49.804  60.692  1.00  0.00     0.088 C
HETATM   24  N1  UNL     1       0.719  49.967  58.871  1.00  0.00    -0.389 N
ATOM     25  H12 UNL     1       1.279  50.711  58.453  1.00  0.00     0.157 HD
ATOM     26  H11 UNL     1      -0.123  49.673  58.377  1.00  0.00     0.157 HD
ENDBRANCH  20  22
ENDBRANCH  19  20
ENDBRANCH  18  19
ENDBRANCH  17  18
ENDBRANCH  16  17
BRANCH  16  27
HETATM   27  N4  UNL     1       4.442  46.311  58.325  1.00  0.00    -0.362 N
HETATM   28  C20 UNL     1       4.720  47.187  57.429  1.00  0.00     0.197 C
HETATM   29  N5  UNL     1       5.988  47.865  57.532  1.00  0.00    -0.067 NA
HETATM   30  N6  UNL     1       3.877  47.542  56.348  1.00  0.00    -0.067 NA
ATOM     31  H4  UNL     1       5.134  46.144  59.056  1.00  0.00     0.162 HD
ENDBRANCH  16  27
ENDBRANCH  15  16
ENDBRANCH  13  15
ENDBRANCH  11  13
ENDBRANCH   9  10
ENDBRANCH   7   8
BRANCH   7  32
HETATM   32  O2  UNL     1       2.049  45.600  52.244  1.00  0.00    -0.390 OA
ATOM     33  H2  UNL     1       1.556  46.285  51.809  1.00  0.00     0.210 HD
ENDBRANCH   7  32
ENDBRANCH   6   7
BRANCH   6  34
HETATM   34  C16 UNL     1       2.505  44.405  49.598  1.00  0.00    -0.003 C
HETATM   35  C17 UNL     1       2.487  45.624  48.736  1.00  0.00     0.011 C
HETATM   36  C18 UNL     1       2.924  43.238  48.731  1.00  0.00     0.011 C
ENDBRANCH   6  34
ENDBRANCH   4   6
ENDBRANCH   1   4
TORSDOF 16
ENDMDL