MODEL 2
REMARK VINA RESULT: -6.519963351      1.646      2.628
REMARK  14 active torsions:
REMARK  status: ('A' for Active; 'I' for Inactive)
REMARK    1  A    between atoms: O1_2  and  C2_3
REMARK    2  A    between atoms: C2_3  and  C3_4
REMARK    3  A    between atoms: C3_4  and  C4_5
REMARK    4  A    between atoms: C4_5  and  N1_6
REMARK    5  A    between atoms: C4_5  and  C6_13
REMARK       I    between atoms: N1_6  and  C5_8
REMARK    6  A    between atoms: C6_13  and  C7_14
REMARK    7  A    between atoms: C6_13  and  N4_21
REMARK    8  A    between atoms: C7_14  and  C8_15
REMARK       I    between atoms: N4_21  and  C14_23
REMARK    9  A    between atoms: C14_23  and  C15_25
REMARK   10  A    between atoms: C15_25  and  C16_26
REMARK   11  A    between atoms: C15_25  and  N5_30
REMARK   12  A    between atoms: C16_26  and  C17_27
REMARK       I    between atoms: N5_30  and  C20_32
REMARK   13  A    between atoms: C20_32  and  C21_34
REMARK   14  A    between atoms: C21_34  and  N6_35
ROOT
HETATM    1  C6  UNL     1       4.542  46.968  57.537  1.00  0.00     0.107 C
ENDROOT
BRANCH   1   2
HETATM    2  C4  UNL     1       6.025  47.016  57.567  1.00  0.00     0.108 C
BRANCH   2   3
HETATM    3  C3  UNL     1       6.541  48.464  57.656  1.00  0.00     0.053 C
BRANCH   3   4
HETATM    4  C2  UNL     1       7.311  48.868  56.436  1.00  0.00     0.169 C
BRANCH   4   5
HETATM    5  O1  UNL     1       8.101  47.767  56.069  1.00  0.00    -0.396 OA
HETATM    6  C1  UNL     1       9.419  48.069  56.417  1.00  0.00     0.201 C
ENDBRANCH   4   5
ENDBRANCH   3   4
ENDBRANCH   2   3
BRANCH   2   7
HETATM    7  N1  UNL     1       6.730  46.201  58.504  1.00  0.00    -0.358 N
HETATM    8  C5  UNL     1       7.205  44.891  58.155  1.00  0.00     0.182 C
HETATM    9  N2  UNL     1       7.560  44.082  59.100  1.00  0.00    -0.374 N
HETATM   10  N3  UNL     1       7.312  44.414  56.838  1.00  0.00    -0.064 NA
ATOM     11  H22 UNL     1       7.483  44.428  60.056  1.00  0.00     0.158 HD
ATOM     12  H21 UNL     1       7.898  43.152  58.853  1.00  0.00     0.158 HD
ATOM     13  H1  UNL     1       6.900  46.558  59.444  1.00  0.00     0.162 HD
ENDBRANCH   2   7
ENDBRANCH   1   2
BRANCH   1  14
HETATM   14  C7  UNL     1       3.800  47.157  58.795  1.00  0.00     0.032 C
BRANCH  14  15
HETATM   15  C8  UNL     1       3.089  48.397  59.107  1.00  0.00    -0.013 C
HETATM   16  C9  UNL     1       1.648  48.435  58.638  1.00  0.00     0.005 C
HETATM   17  C10 UNL     1       0.986  49.670  59.155  1.00  0.00     0.000 C
HETATM   18  C11 UNL     1       0.986  49.752  60.663  1.00  0.00     0.000 C
HETATM   19  C12 UNL     1       2.422  49.728  61.121  1.00  0.00     0.000 C
HETATM   20  C13 UNL     1       3.040  48.442  60.659  1.00  0.00     0.005 C
ENDBRANCH  14  15
ENDBRANCH   1  14
BRANCH   1  21
HETATM   21  N4  UNL     1       4.203  45.646  56.944  1.00  0.00    -0.353 N
HETATM   22  C14 UNL     1       3.181  45.512  55.958  1.00  0.00     0.240 C
HETATM   23  O2  UNL     1       2.594  46.609  55.620  1.00  0.00    -0.271 OA
ATOM     24  H4  UNL     1       4.714  44.817  57.248  1.00  0.00     0.163 HD
BRANCH  22  25
HETATM   25  C15 UNL     1       2.767  44.277  55.319  1.00  0.00     0.177 C
BRANCH  25  26
HETATM   26  C16 UNL     1       1.845  43.342  55.980  1.00  0.00     0.038 C
BRANCH  26  27
HETATM   27  C17 UNL     1       1.613  43.377  57.440  1.00  0.00    -0.020 C
HETATM   28  C18 UNL     1       2.746  42.957  58.310  1.00  0.00     0.009 C
HETATM   29  C19 UNL     1       0.908  44.597  57.934  1.00  0.00     0.009 C
ENDBRANCH  26  27
ENDBRANCH  25  26
BRANCH  25  30
HETATM   30  N5  UNL     1       2.140  44.618  54.028  1.00  0.00    -0.347 N
HETATM   31  C20 UNL     1       2.117  43.776  52.919  1.00  0.00     0.233 C
HETATM   32  O3  UNL     1       2.626  42.625  52.897  1.00  0.00    -0.272 OA
ATOM     33  H5  UNL     1       1.694  45.532  53.941  1.00  0.00     0.163 HD
BRANCH  31  34
HETATM   34  C21 UNL     1       1.468  44.176  51.628  1.00  0.00     0.223 C
BRANCH  34  35
HETATM   35  N6  UNL     1       2.278  43.870  50.470  1.00  0.00    -0.188 NA
HETATM   36  C22 UNL     1       2.873  45.116  49.936  1.00  0.00     0.123 C
HETATM   37  C23 UNL     1       1.896  45.595  48.890  1.00  0.00     0.045 C
HETATM   38  C24 UNL     1       0.842  44.512  48.910  1.00  0.00     0.195 C
HETATM   39  O4  UNL     1       1.500  43.429  49.438  1.00  0.00    -0.303 OA
ENDBRANCH  34  35
ENDBRANCH  31  34
ENDBRANCH  25  30
ENDBRANCH  22  25
ENDBRANCH   1  21
TORSDOF 14
ENDMDL