MODEL 2
REMARK VINA RESULT: -6.395375530      3.095      6.304
REMARK  17 active torsions:
REMARK  status: ('A' for Active; 'I' for Inactive)
REMARK    1  A    between atoms: C2_2  and  C3_4
REMARK    2  A    between atoms: C3_4  and  C4_5
REMARK    3  A    between atoms: C3_4  and  N1_12
REMARK    4  A    between atoms: C4_5  and  C5_6
REMARK    5  A    between atoms: N1_12  and  C11_14
REMARK    6  A    between atoms: C11_14  and  O2_15
REMARK    7  A    between atoms: C11_14  and  C12_17
REMARK    8  A    between atoms: C12_17  and  N2_18
REMARK    9  A    between atoms: C12_17  and  C24_39
REMARK       I    between atoms: N2_18  and  C13_20
REMARK   10  A    between atoms: C13_20  and  C14_22
REMARK   11  A    between atoms: C14_22  and  C15_23
REMARK   12  A    between atoms: C14_22  and  N4_31
REMARK   13  A    between atoms: C15_23  and  C16_24
REMARK   14  A    between atoms: C16_24  and  C17_25
REMARK   15  A    between atoms: C17_25  and  C18_26
REMARK   16  A    between atoms: C18_26  and  N3_27
REMARK   17  A    between atoms: C23_36  and  O4_37
ROOT
HETATM    1  N2  UNL     1       5.737  45.610  59.175  1.00  0.00    -0.344 N
ATOM      2  H2  UNL     1       5.029  45.101  59.705  1.00  0.00     0.163 HD
HETATM    3  C13 UNL     1       6.038  45.100  57.909  1.00  0.00     0.265 C
HETATM    4  O3  UNL     1       6.930  45.733  57.241  1.00  0.00    -0.266 OA
ENDROOT
BRANCH   1   5
HETATM    5  C12 UNL     1       6.305  46.768  59.825  1.00  0.00     0.163 C
BRANCH   5   6
HETATM    6  C11 UNL     1       5.518  47.972  59.510  1.00  0.00     0.139 C
BRANCH   6   7
HETATM    7  N1  UNL     1       4.664  48.596  60.407  1.00  0.00    -0.339 N
ATOM      8  H1  UNL     1       5.047  49.138  61.182  1.00  0.00     0.167 HD
BRANCH   7   9
HETATM    9  C3  UNL     1       3.228  48.479  60.247  1.00  0.00     0.057 C
BRANCH   9  10
HETATM   10  C2  UNL     1       2.428  49.652  60.487  1.00  0.00     0.168 C
HETATM   11  C1  UNL     1       1.094  50.018  59.921  1.00  0.00     0.098 C
HETATM   12  O1  UNL     1       2.926  50.489  61.290  1.00  0.00    -0.292 OA
ENDBRANCH   9  10
BRANCH   9  13
HETATM   13  C4  UNL     1       2.739  47.196  60.843  1.00  0.00     0.065 C
BRANCH  13  14
HETATM   14  C5  UNL     1       2.320  46.101  59.920  1.00  0.00    -0.009 C
HETATM   15  C6  UNL     1       2.229  46.633  58.478  1.00  0.00     0.005 C
HETATM   16  C7  UNL     1       0.801  46.495  58.042  1.00  0.00     0.000 C
HETATM   17  C8  UNL     1       0.337  45.053  58.060  1.00  0.00     0.000 C
HETATM   18  C9  UNL     1       0.726  44.366  59.339  1.00  0.00     0.000 C
HETATM   19  C10 UNL     1       1.048  45.463  60.372  1.00  0.00     0.005 C
ENDBRANCH  13  14
ENDBRANCH   9  13
ENDBRANCH   7   9
ENDBRANCH   6   7
BRANCH   6  20
HETATM   20  O2  UNL     1       6.298  48.974  58.862  1.00  0.00    -0.348 OA
ATOM     21  H2  UNL     1       6.178  48.887  57.923  1.00  0.00     0.219 HD
ENDBRANCH   6  20
ENDBRANCH   5   6
BRANCH   5  22
HETATM   22  C24 UNL     1       6.301  46.572  61.344  1.00  0.00     0.008 C
HETATM   23  C25 UNL     1       5.812  45.230  61.743  1.00  0.00     0.012 C
HETATM   24  C26 UNL     1       7.571  47.013  61.990  1.00  0.00     0.012 C
ENDBRANCH   5  22
ENDBRANCH   1   5
BRANCH   3  25
HETATM   25  C14 UNL     1       5.453  43.916  57.248  1.00  0.00     0.081 C
BRANCH  25  26
HETATM   26  C15 UNL     1       4.150  44.250  56.529  1.00  0.00     0.063 C
BRANCH  26  27
HETATM   27  C16 UNL     1       3.113  43.181  56.664  1.00  0.00     0.008 C
BRANCH  27  28
HETATM   28  C17 UNL     1       2.214  42.917  55.527  1.00  0.00     0.027 C
BRANCH  28  29
HETATM   29  C18 UNL     1       2.843  42.644  54.217  1.00  0.00     0.229 C
BRANCH  29  30
HETATM   30  N3  UNL     1       2.106  43.187  53.125  1.00  0.00    -0.079 N
ATOM     31  H33 UNL     1       1.256  43.648  53.452  1.00  0.00     0.274 HD
ATOM     32  H32 UNL     1       2.587  43.992  52.724  1.00  0.00     0.274 HD
ATOM     33  H31 UNL     1       1.892  42.495  52.408  1.00  0.00     0.274 HD
ENDBRANCH  29  30
ENDBRANCH  28  29
ENDBRANCH  27  28
ENDBRANCH  26  27
ENDBRANCH  25  26
BRANCH  25  34
HETATM   34  N4  UNL     1       6.289  42.977  56.699  1.00  0.00    -0.332 N
HETATM   35  C19 UNL     1       6.936  42.045  57.533  1.00  0.00     0.067 C
HETATM   36  C20 UNL     1       8.253  41.569  56.951  1.00  0.00     0.045 C
HETATM   37  C21 UNL     1       8.030  40.872  55.630  1.00  0.00     0.009 C
HETATM   38  C22 UNL     1       6.743  41.348  55.043  1.00  0.00     0.054 C
HETATM   39  C23 UNL     1       6.500  42.848  55.317  1.00  0.00     0.224 C
BRANCH  39  40
HETATM   40  O4  UNL     1       7.647  43.460  54.807  1.00  0.00    -0.376 OA
ATOM     41  H4  UNL     1       8.180  42.935  54.222  1.00  0.00     0.212 HD
ENDBRANCH  39  40
ENDBRANCH  25  34
ENDBRANCH   3  25
TORSDOF 17
ENDMDL