MODEL 5
REMARK VINA RESULT: -4.743338295      1.141      4.502
REMARK  5 active torsions:
REMARK  status: ('A' for Active; 'I' for Inactive)
REMARK    1  A    between atoms: N1_1  and  C1_5
REMARK    2  A    between atoms: C1_5  and  N2_6
REMARK    3  A    between atoms: C1_5  and  C2_10
REMARK    4  A    between atoms: C2_10  and  N3_11
REMARK    5  A    between atoms: C2_10  and  N4_15
ROOT
HETATM    1  C2  UNL     1      45.256  -7.260  -6.255  1.00  0.00     0.363 C
ENDROOT
BRANCH   1   2
HETATM    2  C1  UNL     1      44.157  -7.095  -7.250  1.00  0.00     0.429 C
BRANCH   2   3
HETATM    3  N1  UNL     1      44.681  -7.513  -8.556  1.00  0.00    -0.046 N
ATOM      4  H13 UNL     1      44.874  -8.514  -8.590  1.00  0.00     0.276 HD
ATOM      5  H12 UNL     1      43.970  -7.475  -9.286  1.00  0.00     0.276 HD
ATOM      6  H11 UNL     1      45.503  -6.955  -8.790  1.00  0.00     0.276 HD
ENDBRANCH   2   3
BRANCH   2   7
HETATM    7  N2  UNL     1      43.695  -5.743  -7.328  1.00  0.00    -0.046 N
ATOM      8  H23 UNL     1      43.808  -5.247  -6.443  1.00  0.00     0.276 HD
ATOM      9  H22 UNL     1      44.305  -5.161  -7.902  1.00  0.00     0.276 HD
ATOM     10  H21 UNL     1      42.730  -5.728  -7.657  1.00  0.00     0.276 HD
ENDBRANCH   2   7
ENDBRANCH   1   2
BRANCH   1  11
HETATM   11  N3  UNL     1      45.835  -8.576  -6.438  1.00  0.00    -0.053 N
ATOM     12  H33 UNL     1      45.483  -9.049  -7.269  1.00  0.00     0.277 HD
ATOM     13  H32 UNL     1      46.818  -8.539  -6.708  1.00  0.00     0.277 HD
ATOM     14  H31 UNL     1      45.682  -9.112  -5.584  1.00  0.00     0.277 HD
ENDBRANCH   1  11
BRANCH   1  15
HETATM   15  N4  UNL     1      44.718  -7.168  -4.910  1.00  0.00    -0.236 N
HETATM   16  N5  UNL     1      44.913  -6.439  -3.827  1.00  0.00    -0.276 N
HETATM   17  C3  UNL     1      43.972  -7.071  -3.107  1.00  0.00     0.168 A
ATOM     18  H5  UNL     1      45.550  -5.672  -3.614  1.00  0.00     0.189 HD
HETATM   19  N6  UNL     1      43.134  -7.475  -2.141  1.00  0.00    -0.334 N
HETATM   20  C5  UNL     1      43.766  -7.841  -4.248  1.00  0.00     0.171 A
HETATM   21  C4  UNL     1      42.404  -8.481  -2.642  1.00  0.00     0.183 A
ATOM     22  H6  UNL     1      43.064  -7.089  -1.200  1.00  0.00     0.168 HD
HETATM   23  N7  UNL     1      42.793  -8.702  -3.933  1.00  0.00    -0.334 N
ATOM     24  H7  UNL     1      42.404  -9.410  -4.557  1.00  0.00     0.168 HD
ENDBRANCH   1  15
TORSDOF 5
ENDMDL