MODEL 4
REMARK VINA RESULT: -4.708016082      2.236      2.725
REMARK  4 active torsions:
REMARK  status: ('A' for Active; 'I' for Inactive)
REMARK    1  A    between atoms: N1_2  and  N2_3
REMARK    2  A    between atoms: N2_3  and  C2_5
REMARK    3  A    between atoms: C5_10  and  N4_11
REMARK    4  A    between atoms: N4_11  and  N5_13
ROOT
HETATM    1  C2  UNL     1      44.364  -8.136  -5.472  1.00  0.00     0.133 A
HETATM    2  C3  UNL     1      45.526  -7.386  -5.347  1.00  0.00     0.067 A
HETATM    3  C4  UNL     1      45.713  -6.731  -4.150  1.00  0.00     0.110 A
HETATM    4  N3  UNL     1      44.797  -6.830  -3.171  1.00  0.00    -0.200 N
ATOM      5  H3  UNL     1      44.962  -6.332  -2.296  1.00  0.00     0.183 HD
HETATM    6  C5  UNL     1      43.674  -7.555  -3.292  1.00  0.00     0.697 A
HETATM    7  N6  UNL     1      43.461  -8.209  -4.448  1.00  0.00    -0.174 N
ATOM      8  H6  UNL     1      42.615  -8.766  -4.562  1.00  0.00     0.186 HD
ENDROOT
BRANCH   6   9
HETATM    9  N4  UNL     1      42.831  -7.595  -2.299  1.00  0.00    -0.138 N
ATOM     10  H4  UNL     1      42.999  -6.982  -1.501  1.00  0.00     0.205 HD
BRANCH   9  11
HETATM   11  N5  UNL     1      41.724  -8.418  -2.266  1.00  0.00    -0.331 N
ATOM     12  H52 UNL     1      41.884  -9.404  -2.056  1.00  0.00     0.177 HD
ATOM     13  H51 UNL     1      40.772  -8.094  -2.438  1.00  0.00     0.177 HD
ENDBRANCH   9  11
ENDBRANCH   6   9
BRANCH   1  14
HETATM   14  N2  UNL     1      44.168  -8.811  -6.699  1.00  0.00    -0.289 N
ATOM     15  H2  UNL     1      43.370  -8.559  -7.283  1.00  0.00     0.184 HD
BRANCH  14  16
HETATM   16  N1  UNL     1      45.032  -9.801  -7.125  1.00  0.00    -0.144 NA
HETATM   17  C1  UNL     1      44.470 -10.649  -8.155  1.00  0.00     0.159 C
ENDBRANCH  14  16
ENDBRANCH   1  14
TORSDOF 4
ENDMDL