MODEL 2
REMARK VINA RESULT: -5.293468094      1.756      5.040
REMARK  2 active torsions:
REMARK  status: ('A' for Active; 'I' for Inactive)
REMARK       I    between atoms: N1_1  and  C1_5
REMARK       I    between atoms: C1_5  and  N2_6
REMARK       I    between atoms: C1_5  and  N3_10
REMARK    1  A    between atoms: N3_10  and  N4_11
REMARK    2  A    between atoms: N4_11  and  C2_13
ROOT
HETATM    1  N1  UNL     1      36.426  -5.030 -13.274  1.00  0.00    -0.035 N
ATOM      2  H11 UNL     1      35.629  -4.986 -12.640  1.00  0.00     0.278 HD
ATOM      3  H12 UNL     1      36.432  -5.894 -13.817  1.00  0.00     0.278 HD
ATOM      4  H13 UNL     1      36.337  -4.367 -14.043  1.00  0.00     0.278 HD
HETATM    5  C1  UNL     1      37.653  -4.845 -12.552  1.00  0.00     0.490 C
HETATM    6  N2  UNL     1      38.771  -4.907 -13.440  1.00  0.00    -0.035 N
ATOM      7  H21 UNL     1      39.642  -4.776 -12.927  1.00  0.00     0.278 HD
ATOM      8  H22 UNL     1      38.681  -4.244 -14.210  1.00  0.00     0.278 HD
ATOM      9  H23 UNL     1      38.776  -5.771 -13.983  1.00  0.00     0.278 HD
HETATM   10  N3  UNL     1      37.657  -3.628 -11.762  1.00  0.00    -0.080 NA
ENDROOT
BRANCH  10  11
HETATM   11  N4  UNL     1      36.647  -3.607 -10.818  1.00  0.00    -0.299 N
ATOM     12  H4  UNL     1      35.677  -3.544 -11.126  1.00  0.00     0.182 HD
BRANCH  11  13
HETATM   13  C2  UNL     1      36.934  -3.671  -9.415  1.00  0.00     0.059 A
HETATM   14  C3  UNL     1      38.153  -4.109  -8.956  1.00  0.00     0.033 A
HETATM   15  C4  UNL     1      38.367  -4.147  -7.586  1.00  0.00     0.019 A
HETATM   16  C5  UNL     1      37.377  -3.754  -6.727  1.00  0.00     0.088 A
HETATM   17  N5  UNL     1      36.180  -3.325  -7.196  1.00  0.00    -0.373 N
HETATM   18  C6  UNL     1      35.960  -3.284  -8.521  1.00  0.00     0.118 A
ATOM     19  H5  UNL     1      35.449  -3.035  -6.546  1.00  0.00     0.164 HD
ENDBRANCH  11  13
ENDBRANCH  10  11
TORSDOF 2
ENDMDL