MODEL 2
REMARK VINA RESULT: -4.924570302      9.354     11.278
REMARK  3 active torsions:
REMARK  status: ('A' for Active; 'I' for Inactive)
REMARK    1  A    between atoms: C2_7  and  N4_8
REMARK    2  A    between atoms: N4_8  and  N5_10
REMARK    3  A    between atoms: N5_10  and  C3_12
ROOT
HETATM    1  N4  UNL     1      36.943  -4.395 -13.252  1.00  0.00    -0.287 N
ATOM      2  H4  UNL     1      37.319  -3.781 -13.975  1.00  0.00     0.188 HD
ENDROOT
BRANCH   1   3
HETATM    3  C2  UNL     1      37.327  -4.248 -11.896  1.00  0.00     0.149 A
HETATM    4  C1  UNL     1      38.322  -4.939 -11.222  1.00  0.00     0.155 A
HETATM    5  N1  UNL     1      38.360  -4.562  -9.930  1.00  0.00    -0.292 N
HETATM    6  N2  UNL     1      37.412  -3.648  -9.775  1.00  0.00    -0.021 NA
ATOM      7  H1  UNL     1      38.994  -4.910  -9.210  1.00  0.00     0.183 HD
HETATM    8  N3  UNL     1      36.793  -3.453 -10.928  1.00  0.00    -0.267 N
ATOM      9  H3  UNL     1      36.024  -2.799 -11.071  1.00  0.00     0.186 HD
ENDBRANCH   1   3
BRANCH   1  10
HETATM   10  N5  UNL     1      36.050  -5.389 -13.563  1.00  0.00    -0.327 N
ATOM     11  H5  UNL     1      35.159  -5.471 -13.074  1.00  0.00     0.180 HD
BRANCH  10  12
HETATM   12  C3  UNL     1      36.412  -6.296 -14.588  1.00  0.00     0.150 A
HETATM   13  C4  UNL     1      37.853  -6.307 -15.007  1.00  0.00     0.260 A
HETATM   14  N6  UNL     1      37.855  -7.747 -14.697  1.00  0.00    -0.071 N
HETATM   15  C5  UNL     1      36.413  -7.754 -14.376  1.00  0.00     0.260 A
ATOM     16  H62 UNL     1      38.205  -8.400 -15.398  1.00  0.00     0.277 HD
ATOM     17  H61 UNL     1      38.515  -8.099 -14.003  1.00  0.00     0.277 HD
ENDBRANCH  10  12
ENDBRANCH   1  10
TORSDOF 3
ENDMDL