MODEL 5
REMARK VINA RESULT: -4.483612792      2.552      4.031
REMARK  5 active torsions:
REMARK  status: ('A' for Active; 'I' for Inactive)
REMARK    1  A    between atoms: C2_2  and  C3_3
REMARK    2  A    between atoms: C3_3  and  N1_4
REMARK    3  A    between atoms: C3_3  and  C4_8
REMARK    4  A    between atoms: C4_8  and  N2_9
REMARK    5  A    between atoms: C6_13  and  N4_14
ROOT
HETATM    1  N2  UNL     1      44.623  -7.182  -5.054  1.00  0.00    -0.231 N
HETATM    2  N3  UNL     1      45.751  -7.846  -5.129  1.00  0.00    -0.292 N
ATOM      3  H3  UNL     1      46.469  -7.846  -4.404  1.00  0.00     0.188 HD
HETATM    4  C5  UNL     1      45.840  -8.529  -6.292  1.00  0.00     0.158 A
HETATM    5  C6  UNL     1      44.673  -8.255  -6.972  1.00  0.00     0.132 A
HETATM    6  N5  UNL     1      43.966  -7.430  -6.176  1.00  0.00    -0.268 N
ATOM      7  H5  UNL     1      43.048  -7.049  -6.406  1.00  0.00     0.190 HD
ENDROOT
BRANCH   1   8
HETATM    8  C4  UNL     1      44.117  -6.323  -3.990  1.00  0.00     0.202 C
BRANCH   8   9
HETATM    9  C3  UNL     1      43.983  -7.094  -2.707  1.00  0.00     0.204 C
BRANCH   9  10
HETATM   10  C2  UNL     1      42.640  -7.831  -2.770  1.00  0.00     0.030 C
HETATM   11  C1  UNL     1      42.821  -9.303  -2.468  1.00  0.00     0.007 C
ENDBRANCH   9  10
BRANCH   9  12
HETATM   12  N1  UNL     1      43.914  -6.177  -1.600  1.00  0.00    -0.073 N
ATOM     13  H13 UNL     1      42.981  -6.110  -1.194  1.00  0.00     0.274 HD
ATOM     14  H12 UNL     1      44.396  -6.518  -0.768  1.00  0.00     0.274 HD
ATOM     15  H11 UNL     1      44.272  -5.280  -1.928  1.00  0.00     0.274 HD
ENDBRANCH   9  12
ENDBRANCH   8   9
ENDBRANCH   1   8
BRANCH   5  16
HETATM   16  N4  UNL     1      44.353  -8.719  -8.148  1.00  0.00    -0.383 N
ATOM     17  H42 UNL     1      44.727  -8.453  -9.059  1.00  0.00     0.157 HD
ATOM     18  H41 UNL     1      43.656  -9.441  -8.332  1.00  0.00     0.157 HD
ENDBRANCH   5  16
TORSDOF 5
ENDMDL