MODEL 4
REMARK VINA RESULT: -4.539549669      1.158      5.110
REMARK  4 active torsions:
REMARK  status: ('A' for Active; 'I' for Inactive)
REMARK    1  A    between atoms: N1_1  and  C1_5
REMARK    2  A    between atoms: C1_5  and  C2_6
REMARK    3  A    between atoms: C2_6  and  N2_7
REMARK    4  A    between atoms: N2_7  and  N3_9
ROOT
HETATM    1  N3  UNL     1      44.002  -7.654  -5.529  1.00  0.00    -0.290 N
ATOM      2  H3  UNL     1      44.289  -6.682  -5.407  1.00  0.00     0.188 HD
HETATM    3  C3  UNL     1      44.324  -8.304  -6.601  1.00  0.00     0.121 A
HETATM    4  C4  UNL     1      45.067  -7.663  -7.587  1.00  0.00     0.067 A
HETATM    5  C5  UNL     1      45.410  -8.351  -8.727  1.00  0.00     0.092 A
HETATM    6  N4  UNL     1      45.008  -9.629  -8.840  1.00  0.00    -0.362 N
ATOM      7  H4  UNL     1      45.253 -10.157  -9.678  1.00  0.00     0.165 HD
HETATM    8  C6  UNL     1      44.290 -10.224  -7.871  1.00  0.00     0.181 A
HETATM    9  N5  UNL     1      43.938  -9.581  -6.745  1.00  0.00    -0.338 N
ATOM     10  H5  UNL     1      43.393 -10.049  -6.021  1.00  0.00     0.168 HD
ENDROOT
BRANCH   1  11
HETATM   11  N2  UNL     1      43.261  -8.298  -4.547  1.00  0.00    -0.333 N
ATOM     12  H2  UNL     1      42.681  -9.090  -4.824  1.00  0.00     0.180 HD
BRANCH  11  13
HETATM   13  C2  UNL     1      43.264  -7.906  -3.155  1.00  0.00     0.166 C
BRANCH  13  14
HETATM   14  C1  UNL     1      43.940  -6.561  -3.006  1.00  0.00     0.250 C
BRANCH  14  15
HETATM   15  N1  UNL     1      43.930  -6.191  -1.623  1.00  0.00    -0.078 N
ATOM     16  H13 UNL     1      43.188  -5.527  -1.402  1.00  0.00     0.274 HD
ATOM     17  H12 UNL     1      43.622  -6.953  -1.018  1.00  0.00     0.274 HD
ATOM     18  H11 UNL     1      44.854  -5.841  -1.370  1.00  0.00     0.274 HD
ENDBRANCH  14  15
ENDBRANCH  13  14
ENDBRANCH  11  13
ENDBRANCH   1  11
TORSDOF 4
ENDMDL