MODEL 5
REMARK VINA RESULT: -5.353715668      2.734      6.051
REMARK  4 active torsions:
REMARK  status: ('A' for Active; 'I' for Inactive)
REMARK    1  A    between atoms: O1_1  and  N1_3
REMARK    2  A    between atoms: C1_8  and  N4_9
REMARK    3  A    between atoms: N4_9  and  N5_11
REMARK    4  A    between atoms: N5_11  and  C2_13
ROOT
HETATM    1  N4  UNL     1      36.773  -3.579 -11.079  1.00  0.00    -0.113 N
ATOM      2  H4  UNL     1      35.962  -3.035 -11.377  1.00  0.00     0.206 HD
ENDROOT
BRANCH   1   3
HETATM    3  C1  UNL     1      37.037  -3.729  -9.701  1.00  0.00     0.756 A
HETATM    4  N1  UNL     1      36.405  -3.666  -8.522  1.00  0.00     0.034 N
HETATM    5  N2  UNL     1      37.504  -3.965  -7.844  1.00  0.00    -0.186 N
HETATM    6  N3  UNL     1      38.146  -4.033  -8.985  1.00  0.00    -0.110 N
ATOM      7  H2  UNL     1      37.745  -4.088  -6.861  1.00  0.00     0.212 HD
ATOM      8  H3  UNL     1      39.113  -4.237  -9.237  1.00  0.00     0.207 HD
BRANCH   4   9
HETATM    9  O1  UNL     1      35.074  -3.385  -8.203  1.00  0.00    -0.253 OA
ATOM     10  H1  UNL     1      34.615  -2.699  -7.732  1.00  0.00     0.247 HD
ENDBRANCH   4   9
ENDBRANCH   1   3
BRANCH   1  11
HETATM   11  N5  UNL     1      37.609  -4.167 -12.055  1.00  0.00    -0.116 N
ATOM     12  H5  UNL     1      38.543  -3.789 -12.216  1.00  0.00     0.206 HD
BRANCH  11  13
HETATM   13  C2  UNL     1      37.160  -5.275 -12.813  1.00  0.00     0.712 A
HETATM   14  N6  UNL     1      36.054  -5.322 -13.544  1.00  0.00    -0.130 N
HETATM   15  N7  UNL     1      35.961  -6.530 -14.093  1.00  0.00    -0.281 N
ATOM     16  H6  UNL     1      35.386  -4.560 -13.664  1.00  0.00     0.205 HD
HETATM   17  C3  UNL     1      37.021  -7.281 -13.715  1.00  0.00     0.215 A
ATOM     18  H7  UNL     1      35.207  -6.842 -14.705  1.00  0.00     0.188 HD
HETATM   19  N8  UNL     1      37.746  -6.474 -12.922  1.00  0.00    -0.184 N
ATOM     20  H8  UNL     1      38.619  -6.738 -12.466  1.00  0.00     0.185 HD
ENDBRANCH  11  13
ENDBRANCH   1  11
TORSDOF 4
ENDMDL