MODEL 2
REMARK VINA RESULT: -6.020183099      3.102      6.424
REMARK  10 active torsions:
REMARK  status: ('A' for Active; 'I' for Inactive)
REMARK    1  A    between atoms: C2_2  and  C3_3
REMARK    2  A    between atoms: C2_2  and  C6_8
REMARK    3  A    between atoms: C3_3  and  C4_4
REMARK    4  A    between atoms: C4_4  and  C5_5
REMARK    5  A    between atoms: C5_5  and  O1_6
REMARK    6  A    between atoms: C12_14  and  C13_15
REMARK    7  A    between atoms: C13_15  and  O2_16
REMARK    8  A    between atoms: C22_26  and  O3_27
REMARK    9  A    between atoms: C25_31  and  O4_32
REMARK   10  A    between atoms: C27_34  and  O5_35
ROOT
HETATM    1  C6  UNL     1      49.277 -40.051  49.355  1.00  0.00     0.025 C
HETATM    2  C7  UNL     1      47.988 -40.282  49.982  1.00  0.00    -0.009 C
HETATM    3  C8  UNL     1      47.113 -39.136  50.367  1.00  0.00     0.011 C
HETATM    4  C9  UNL     1      47.254 -41.206  49.036  1.00  0.00     0.022 C
HETATM    5  C10 UNL     1      48.227 -41.851  48.093  1.00  0.00     0.023 C
HETATM    6  C11 UNL     1      48.945 -42.963  48.757  1.00  0.00    -0.055 C
HETATM    7  C12 UNL     1      48.409 -43.980  49.638  1.00  0.00    -0.035 C
HETATM    8  C14 UNL     1      49.481 -44.801  49.852  1.00  0.00    -0.012 C
HETATM    9  C15 UNL     1      50.712 -44.382  49.156  1.00  0.00     0.013 C
HETATM   10  C16 UNL     1      51.525 -45.545  48.766  1.00  0.00     0.015 C
HETATM   11  C17 UNL     1      50.106 -43.591  48.014  1.00  0.00     0.023 C
HETATM   12  C18 UNL     1      49.849 -44.496  46.902  1.00  0.00     0.010 C
HETATM   13  C19 UNL     1      48.685 -44.237  46.050  1.00  0.00     0.015 C
HETATM   14  C20 UNL     1      48.331 -42.858  45.740  1.00  0.00     0.015 C
HETATM   15  C21 UNL     1      47.358 -42.995  44.543  1.00  0.00     0.021 C
HETATM   16  C22 UNL     1      49.348 -41.893  45.298  1.00  0.00     0.136 C
HETATM   17  C23 UNL     1      48.719 -40.578  45.585  1.00  0.00     0.047 C
HETATM   18  C24 UNL     1      47.327 -40.870  45.982  1.00  0.00     0.050 C
HETATM   19  C25 UNL     1      47.518 -42.140  46.840  1.00  0.00     0.082 C
HETATM   20  C27 UNL     1      49.345 -39.900  46.814  1.00  0.00     0.130 C
HETATM   21  C28 UNL     1      49.279 -40.712  48.022  1.00  0.00     0.039 C
ENDROOT
BRANCH   1  22
HETATM   22  C2  UNL     1      49.789 -38.704  49.552  1.00  0.00    -0.084 C
HETATM   23  C1  UNL     1      50.104 -38.456  50.844  1.00  0.00     0.015 C
BRANCH  22  24
HETATM   24  C3  UNL     1      50.027 -37.612  48.618  1.00  0.00     0.036 C
BRANCH  24  25
HETATM   25  C4  UNL     1      48.909 -36.631  48.357  1.00  0.00     0.030 C
BRANCH  25  26
HETATM   26  C5  UNL     1      48.888 -36.100  46.957  1.00  0.00     0.164 C
BRANCH  26  27
HETATM   27  O1  UNL     1      50.025 -36.545  46.277  1.00  0.00    -0.401 OA
ATOM     28  H1  UNL     1      50.119 -37.481  46.402  1.00  0.00     0.209 HD
ENDBRANCH  26  27
ENDBRANCH  25  26
ENDBRANCH  24  25
ENDBRANCH  22  24
ENDBRANCH   1  22
BRANCH  20  29
HETATM   29  O5  UNL     1      50.609 -39.590  46.323  1.00  0.00    -0.395 OA
ATOM     30  H5  UNL     1      50.593 -38.643  46.379  1.00  0.00     0.210 HD
ENDBRANCH  20  29
BRANCH  19  31
HETATM   31  O4  UNL     1      46.356 -42.755  46.819  1.00  0.00    -0.383 OA
HETATM   32  C26 UNL     1      45.155 -42.446  46.441  1.00  0.00     0.202 C
ENDBRANCH  19  31
BRANCH   7  33
HETATM   33  C13 UNL     1      47.175 -44.352  50.362  1.00  0.00     0.202 C
BRANCH  33  34
HETATM   34  O2  UNL     1      46.840 -43.615  51.469  1.00  0.00    -0.396 OA
ATOM     35  H2  UNL     1      46.145 -42.973  51.378  1.00  0.00     0.209 HD
ENDBRANCH  33  34
ENDBRANCH   7  33
BRANCH  16  36
HETATM   36  O3  UNL     1      49.580 -41.934  43.901  1.00  0.00    -0.394 OA
ATOM     37  H3  UNL     1      48.883 -42.368  43.421  1.00  0.00     0.210 HD
ENDBRANCH  16  36
TORSDOF 10
ENDMDL