MODEL 2
REMARK VINA RESULT: -9.280512147      0.969      1.881
REMARK  7 active torsions:
REMARK  status: ('A' for Active; 'I' for Inactive)
REMARK    1  A    between atoms: N1_1  and  C1_4
REMARK    2  A    between atoms: C4_7  and  C5_8
REMARK    3  A    between atoms: C8_11  and  C9_12
REMARK    4  A    between atoms: C9_12  and  C10_13
REMARK    5  A    between atoms: C12_19  and  N4_20
REMARK    6  A    between atoms: N4_20  and  S1_22
REMARK    7  A    between atoms: S1_22  and  C13_25
ROOT
HETATM    1  C10 UNL     1      48.764 -39.464  46.167  1.00  0.00     0.058 A
HETATM    2  N2  UNL     1      49.654 -40.320  45.605  1.00  0.00    -0.303 N
ATOM      3  H2  UNL     1      49.971 -40.272  44.637  1.00  0.00     0.186 HD
HETATM    4  N3  UNL     1      50.052 -41.217  46.475  1.00  0.00    -0.309 N
ATOM      5  H3  UNL     1      50.716 -41.971  46.301  1.00  0.00     0.186 HD
HETATM    6  C11 UNL     1      49.426 -40.964  47.637  1.00  0.00     0.139 A
HETATM    7  C12 UNL     1      48.598 -39.850  47.467  1.00  0.00     0.083 A
ENDROOT
BRANCH   1   8
HETATM    8  C9  UNL     1      48.084 -38.326  45.482  1.00  0.00     0.099 C
BRANCH   8   9
HETATM    9  C8  UNL     1      48.894 -37.115  45.697  1.00  0.00    -0.052 A
HETATM   10  C7  UNL     1      48.995 -36.414  46.873  1.00  0.00     0.008 A
HETATM   11  C6  UNL     1      49.777 -35.275  46.983  1.00  0.00     0.013 A
HETATM   12  C5  UNL     1      50.497 -34.786  45.914  1.00  0.00    -0.025 A
HETATM   13  C23 UNL     1      50.396 -35.494  44.729  1.00  0.00     0.013 A
HETATM   14  C22 UNL     1      49.621 -36.627  44.610  1.00  0.00     0.008 A
BRANCH  12  15
HETATM   15  C4  UNL     1      51.312 -33.582  46.027  1.00  0.00    -0.010 A
HETATM   16  C3  UNL     1      51.007 -32.551  46.889  1.00  0.00     0.017 A
HETATM   17  C2  UNL     1      51.816 -31.438  46.964  1.00  0.00     0.049 A
HETATM   18  C1  UNL     1      52.946 -31.333  46.179  1.00  0.00     0.098 A
HETATM   19  N6  UNL     1      53.247 -32.338  45.337  1.00  0.00    -0.352 N
HETATM   20  C24 UNL     1      52.453 -33.420  45.269  1.00  0.00     0.102 A
ATOM     21  H6  UNL     1      54.079 -32.278  44.749  1.00  0.00     0.166 HD
BRANCH  18  22
HETATM   22  N1  UNL     1      53.728 -30.309  46.222  1.00  0.00    -0.385 N
ATOM     23  H12 UNL     1      53.749 -29.746  47.072  1.00  0.00     0.157 HD
ATOM     24  H11 UNL     1      54.324 -30.040  45.439  1.00  0.00     0.157 HD
ENDBRANCH  18  22
ENDBRANCH  12  15
ENDBRANCH   8   9
ENDBRANCH   1   8
BRANCH   7  25
HETATM   25  N4  UNL     1      47.798 -39.267  48.481  1.00  0.00    -0.277 N
ATOM     26  H4  UNL     1      47.111 -38.552  48.247  1.00  0.00     0.179 HD
BRANCH  25  27
HETATM   27  S1  UNL     1      47.999 -39.778  50.108  1.00  0.00     0.265 S
HETATM   28  O1  UNL     1      46.684 -40.192  50.723  1.00  0.00    -0.200 OA
HETATM   29  O2  UNL     1      48.977 -40.943  50.173  1.00  0.00    -0.200 OA
BRANCH  27  30
HETATM   30  C13 UNL     1      48.710 -38.478  51.039  1.00  0.00     0.107 A
HETATM   31  C14 UNL     1      49.999 -38.490  51.519  1.00  0.00     0.028 A
HETATM   32  C15 UNL     1      50.468 -37.423  52.262  1.00  0.00     0.003 A
HETATM   33  C16 UNL     1      49.709 -36.323  52.558  1.00  0.00     0.014 A
HETATM   34  C17 UNL     1      48.409 -36.294  52.084  1.00  0.00    -0.008 A
HETATM   35  C18 UNL     1      47.599 -35.197  52.360  1.00  0.00     0.015 A
HETATM   36  C21 UNL     1      47.928 -37.349  51.343  1.00  0.00     0.066 A
HETATM   37  C19 UNL     1      46.319 -35.221  51.865  1.00  0.00     0.018 A
HETATM   38  C20 UNL     1      45.880 -36.296  51.129  1.00  0.00     0.088 A
HETATM   39  N5  UNL     1      46.667 -37.353  50.865  1.00  0.00    -0.364 N
ATOM     40  H5  UNL     1      46.319 -38.140  50.317  1.00  0.00     0.165 HD
ENDBRANCH  27  30
ENDBRANCH  25  27
ENDBRANCH   7  25
TORSDOF 7
ENDMDL