MODEL 3
REMARK VINA RESULT: -6.554271446      4.053      7.725
REMARK  12 active torsions:
REMARK  status: ('A' for Active; 'I' for Inactive)
REMARK    1  A    between atoms: C2_2  and  C3_3
REMARK    2  A    between atoms: C3_3  and  N1_4
REMARK    3  A    between atoms: N1_4  and  C4_6
REMARK    4  A    between atoms: C4_6  and  N2_8
REMARK    5  A    between atoms: N2_8  and  C5_10
REMARK    6  A    between atoms: C6_13  and  O1_14
REMARK    7  A    between atoms: O1_14  and  C7_15
REMARK    8  A    between atoms: C12_23  and  N5_24
REMARK    9  A    between atoms: N5_24  and  C13_26
REMARK   10  A    between atoms: C18_31  and  C19_32
REMARK   11  A    between atoms: C20_33  and  C21_34
REMARK   12  A    between atoms: C21_34  and  O2_37
ROOT
HETATM    1  C5  UNL     1      49.060 -37.378  46.464  1.00  0.00     0.128 A
HETATM    2  N3  UNL     1      48.640 -37.185  47.727  1.00  0.00    -0.320 N
ATOM      3  H3  UNL     1      48.180 -36.310  47.978  1.00  0.00     0.169 HD
HETATM    4  C6  UNL     1      48.824 -38.144  48.670  1.00  0.00     0.171 A
HETATM    5  C12 UNL     1      49.459 -39.348  48.318  1.00  0.00     0.082 A
HETATM    6  C17 UNL     1      49.879 -39.523  47.023  1.00  0.00     0.058 A
HETATM    7  C18 UNL     1      49.682 -38.542  46.090  1.00  0.00     0.064 A
ENDROOT
BRANCH   1   8
HETATM    8  N2  UNL     1      48.853 -36.427  45.621  1.00  0.00    -0.318 N
ATOM      9  H2  UNL     1      48.210 -36.606  44.849  1.00  0.00     0.170 HD
BRANCH   8  10
HETATM   10  C4  UNL     1      49.453 -35.161  45.694  1.00  0.00     0.173 C
HETATM   11  S1  UNL     1      48.511 -33.873  45.268  1.00  0.00    -0.041 SA
BRANCH  10  12
HETATM   12  N1  UNL     1      50.793 -34.972  46.109  1.00  0.00    -0.364 N
ATOM     13  H1  UNL     1      51.164 -35.479  46.912  1.00  0.00     0.162 HD
BRANCH  12  14
HETATM   14  C3  UNL     1      51.624 -34.053  45.379  1.00  0.00     0.148 C
BRANCH  14  15
HETATM   15  C2  UNL     1      52.191 -32.995  46.232  1.00  0.00    -0.018 C
HETATM   16  C1  UNL     1      51.454 -32.247  47.043  1.00  0.00     0.008 C
ENDBRANCH  14  15
ENDBRANCH  12  14
ENDBRANCH  10  12
ENDBRANCH   8  10
ENDBRANCH   1   8
BRANCH   7  17
HETATM   17  C19 UNL     1      50.136 -38.749  44.718  1.00  0.00    -0.060 C
HETATM   18  C20 UNL     1      50.525 -38.921  43.591  1.00  0.00    -0.063 C
BRANCH  18  19
HETATM   19  C21 UNL     1      51.019 -39.117  42.226  1.00  0.00     0.116 C
HETATM   20  C22 UNL     1      49.845 -39.492  41.318  1.00  0.00     0.060 C
HETATM   21  C23 UNL     1      51.995 -40.279  42.152  1.00  0.00     0.060 C
BRANCH  19  22
HETATM   22  O2  UNL     1      51.610 -37.927  41.830  1.00  0.00    -0.373 OA
HETATM   23  C24 UNL     1      50.581 -37.100  41.338  1.00  0.00     0.204 C
ENDBRANCH  19  22
ENDBRANCH  18  19
ENDBRANCH   7  17
BRANCH   4  24
HETATM   24  O1  UNL     1      48.430 -38.031  49.979  1.00  0.00    -0.329 OA
BRANCH  24  25
HETATM   25  C7  UNL     1      48.289 -36.839  50.656  1.00  0.00     0.133 C
HETATM   26  C8  UNL     1      46.901 -36.657  51.255  1.00  0.00     0.060 C
HETATM   27  C9  UNL     1      46.891 -35.301  51.929  1.00  0.00     0.235 C
HETATM   28  N4  UNL     1      47.763 -35.351  53.090  1.00  0.00    -0.075 N
HETATM   29  C10 UNL     1      49.118 -35.521  52.595  1.00  0.00     0.235 C
ATOM     30  H42 UNL     1      47.660 -34.544  53.704  1.00  0.00     0.277 HD
ATOM     31  H41 UNL     1      47.490 -36.065  53.765  1.00  0.00     0.277 HD
HETATM   32  C11 UNL     1      49.232 -36.844  51.877  1.00  0.00     0.060 C
ENDBRANCH  24  25
ENDBRANCH   4  24
BRANCH   5  33
HETATM   33  N5  UNL     1      49.643 -40.330  49.307  1.00  0.00    -0.378 N
ATOM     34  H5  UNL     1      50.489 -40.253  49.873  1.00  0.00     0.160 HD
BRANCH  33  35
HETATM   35  C13 UNL     1      48.771 -41.430  49.610  1.00  0.00     0.019 C
HETATM   36  C14 UNL     1      49.530 -42.754  49.398  1.00  0.00     0.037 C
HETATM   37  C15 UNL     1      47.563 -41.491  48.734  1.00  0.00     0.037 C
HETATM   38  C16 UNL     1      48.339 -41.324  51.057  1.00  0.00     0.037 C
ENDBRANCH  33  35
ENDBRANCH   5  33
TORSDOF 12
ENDMDL