MODEL 5
REMARK VINA RESULT: -8.297267037      1.176      1.805
REMARK  8 active torsions:
REMARK  status: ('A' for Active; 'I' for Inactive)
REMARK    1  A    between atoms: N1_2  and  C2_4
REMARK    2  A    between atoms: C4_6  and  C5_7
REMARK    3  A    between atoms: C5_7  and  C6_8
REMARK       I    between atoms: C6_8  and  N2_10
REMARK    4  A    between atoms: N2_10  and  C7_12
REMARK    5  A    between atoms: C10_15  and  C11_16
REMARK    6  A    between atoms: C15_26  and  N6_27
REMARK    7  A    between atoms: N6_27  and  C16_28
REMARK    8  A    between atoms: C16_28  and  C17_29
ROOT
HETATM    1  C7  UNL     1      49.572 -37.523  46.361  1.00  0.00     0.034 A
HETATM    2  C8  UNL     1      48.789 -38.539  45.907  1.00  0.00     0.030 A
HETATM    3  C9  UNL     1      48.587 -39.697  46.675  1.00  0.00     0.014 A
HETATM    4  C10 UNL     1      49.183 -39.814  47.904  1.00  0.00    -0.023 A
HETATM    5  C23 UNL     1      49.956 -38.790  48.357  1.00  0.00     0.014 A
HETATM    6  C24 UNL     1      50.164 -37.659  47.623  1.00  0.00     0.030 A
ENDROOT
BRANCH   4   7
HETATM    7  C11 UNL     1      49.152 -41.086  48.578  1.00  0.00     0.008 A
HETATM    8  C12 UNL     1      49.686 -42.220  47.903  1.00  0.00     0.103 A
HETATM    9  N3  UNL     1      49.615 -43.248  48.739  1.00  0.00    -0.351 N
HETATM   10  C13 UNL     1      49.071 -42.839  49.894  1.00  0.00     0.122 A
ATOM     11  H3  UNL     1      49.925 -44.197  48.535  1.00  0.00     0.166 HD
HETATM   12  N4  UNL     1      48.820 -43.545  50.980  1.00  0.00    -0.338 N
HETATM   13  C22 UNL     1      48.764 -41.466  49.817  1.00  0.00     0.079 A
HETATM   14  C14 UNL     1      48.260 -42.917  52.026  1.00  0.00     0.184 A
ATOM     15  H4  UNL     1      49.045 -44.540  51.024  1.00  0.00     0.168 HD
HETATM   16  N5  UNL     1      47.953 -41.613  51.993  1.00  0.00    -0.327 N
HETATM   17  C15 UNL     1      48.182 -40.809  50.895  1.00  0.00     0.194 A
ATOM     18  H5  UNL     1      47.528 -41.195  52.821  1.00  0.00     0.169 HD
BRANCH  17  19
HETATM   19  N6  UNL     1      47.871 -39.673  50.901  1.00  0.00    -0.398 NA
BRANCH  19  20
HETATM   20  C16 UNL     1      47.476 -38.385  50.892  1.00  0.00     0.196 C
BRANCH  20  21
HETATM   21  C17 UNL     1      48.286 -37.371  51.638  1.00  0.00    -0.005 A
HETATM   22  C18 UNL     1      47.798 -36.198  52.111  1.00  0.00     0.031 A
HETATM   23  C19 UNL     1      48.601 -35.322  52.797  1.00  0.00     0.088 A
HETATM   24  N7  UNL     1      49.910 -35.611  53.020  1.00  0.00    -0.375 N
HETATM   25  C20 UNL     1      50.385 -36.761  52.554  1.00  0.00     0.088 A
ATOM     26  H7  UNL     1      50.511 -34.963  53.530  1.00  0.00     0.164 HD
HETATM   27  C21 UNL     1      49.612 -37.685  51.854  1.00  0.00     0.031 A
ENDBRANCH  20  21
ENDBRANCH  19  20
ENDBRANCH  17  19
ENDBRANCH   4   7
BRANCH   1  28
HETATM   28  N2  UNL     1      49.974 -36.371  45.617  1.00  0.00    -0.327 N
HETATM   29  C6  UNL     1      49.302 -35.159  45.698  1.00  0.00     0.226 C
HETATM   30  O1  UNL     1      48.284 -35.028  46.484  1.00  0.00    -0.273 OA
ATOM     31  H2  UNL     1      50.785 -36.443  45.002  1.00  0.00     0.169 HD
BRANCH  29  32
HETATM   32  C5  UNL     1      49.647 -33.964  44.943  1.00  0.00     0.141 C
BRANCH  32  33
HETATM   33  C4  UNL     1      50.843 -33.267  45.413  1.00  0.00    -0.045 A
HETATM   34  C3  UNL     1      51.953 -33.151  44.557  1.00  0.00     0.055 A
HETATM   35  C2  UNL     1      53.105 -32.497  44.968  1.00  0.00     0.100 A
HETATM   36  N8  UNL     1      53.177 -31.972  46.186  1.00  0.00    -0.353 N
HETATM   37  C26 UNL     1      52.130 -32.079  47.010  1.00  0.00     0.090 A
ATOM     38  H8  UNL     1      54.023 -31.491  46.490  1.00  0.00     0.166 HD
HETATM   39  C25 UNL     1      50.946 -32.718  46.651  1.00  0.00     0.024 A
BRANCH  35  40
HETATM   40  N1  UNL     1      54.083 -32.414  44.137  1.00  0.00    -0.381 N
HETATM   41  C1  UNL     1      55.096 -31.403  44.165  1.00  0.00     0.147 C
ATOM     42  H1  UNL     1      54.141 -33.120  43.403  1.00  0.00     0.160 HD
ENDBRANCH  35  40
ENDBRANCH  32  33
ENDBRANCH  29  32
ENDBRANCH   1  28
TORSDOF 8
ENDMDL