MODEL 4
REMARK VINA RESULT: -8.614376513      4.586      9.262
REMARK  9 active torsions:
REMARK  status: ('A' for Active; 'I' for Inactive)
REMARK    1  A    between atoms: C3_3  and  N1_4
REMARK    2  A    between atoms: C5_9  and  N3_10
REMARK    3  A    between atoms: N3_10  and  C6_12
REMARK    4  A    between atoms: C6_12  and  C7_13
REMARK    5  A    between atoms: C7_13  and  C8_14
REMARK    6  A    between atoms: C10_17  and  N4_18
REMARK    7  A    between atoms: N4_18  and  C11_20
REMARK    8  A    between atoms: C14_25  and  N6_26
REMARK    9  A    between atoms: N6_26  and  C15_28
ROOT
HETATM    1  C1  UNL     1      47.386 -45.312  52.497  1.00  0.00     0.014 C
HETATM    2  C2  UNL     1      47.984 -44.506  51.851  1.00  0.00    -0.097 C
HETATM    3  C3  UNL     1      48.744 -43.520  51.061  1.00  0.00     0.231 C
ENDROOT
BRANCH   3   4
HETATM    4  N1  UNL     1      48.428 -42.219  51.516  1.00  0.00    -0.216 N
HETATM    5  C4  UNL     1      48.619 -41.096  50.854  1.00  0.00     0.682 A
HETATM    6  N2  UNL     1      48.254 -39.948  51.453  1.00  0.00    -0.170 N
HETATM    7  N8  UNL     1      49.159 -41.228  49.647  1.00  0.00    -0.170 N
HETATM    8  C5  UNL     1      48.355 -38.714  50.963  1.00  0.00     0.163 A
ATOM      9  H2  UNL     1      47.855 -40.033  52.387  1.00  0.00     0.186 HD
HETATM   10  S1  UNL     1      49.044 -38.663  49.377  1.00  0.00    -0.017 SA
HETATM   11  C10 UNL     1      49.433 -40.221  48.811  1.00  0.00     0.168 A
ATOM     12  H8  UNL     1      49.382 -42.172  49.333  1.00  0.00     0.186 HD
ATOM     13  H1  UNL     1      48.013 -42.143  52.444  1.00  0.00     0.178 HD
BRANCH   8  14
HETATM   14  N3  UNL     1      47.993 -37.634  51.568  1.00  0.00    -0.370 N
ATOM     15  H3  UNL     1      48.446 -37.377  52.446  1.00  0.00     0.161 HD
BRANCH  14  16
HETATM   16  C6  UNL     1      46.971 -36.789  51.037  1.00  0.00     0.121 C
BRANCH  16  17
HETATM   17  C7  UNL     1      46.951 -35.475  51.805  1.00  0.00     0.019 C
BRANCH  17  18
HETATM   18  C8  UNL     1      47.832 -35.588  53.035  1.00  0.00    -0.003 C
HETATM   19  C9  UNL     1      49.180 -34.967  52.757  1.00  0.00     0.005 C
ENDBRANCH  17  18
ENDBRANCH  16  17
ENDBRANCH  14  16
ENDBRANCH   8  14
BRANCH  11  20
HETATM   20  N4  UNL     1      49.957 -40.476  47.654  1.00  0.00    -0.320 N
ATOM     21  H4  UNL     1      50.968 -40.380  47.553  1.00  0.00     0.169 HD
BRANCH  20  22
HETATM   22  C11 UNL     1      49.206 -40.879  46.523  1.00  0.00     0.134 A
HETATM   23  N5  UNL     1      48.332 -40.175  45.790  1.00  0.00    -0.350 N
HETATM   24  C12 UNL     1      47.824 -40.913  44.789  1.00  0.00     0.092 A
ATOM     25  H5  UNL     1      48.083 -39.202  45.970  1.00  0.00     0.166 HD
HETATM   26  C13 UNL     1      48.387 -42.163  44.861  1.00  0.00     0.050 A
HETATM   27  C14 UNL     1      49.245 -42.146  45.936  1.00  0.00     0.078 A
BRANCH  27  28
HETATM   28  N6  UNL     1      50.064 -43.199  46.425  1.00  0.00    -0.352 N
ATOM     29  H6  UNL     1      51.063 -43.223  46.224  1.00  0.00     0.166 HD
BRANCH  28  30
HETATM   30  C15 UNL     1      49.510 -44.121  47.131  1.00  0.00     0.046 A
HETATM   31  C16 UNL     1      48.144 -44.258  47.201  1.00  0.00     0.047 A
HETATM   32  C17 UNL     1      47.578 -45.261  47.964  1.00  0.00     0.090 A
HETATM   33  N7  UNL     1      48.367 -46.108  48.642  1.00  0.00    -0.365 N
HETATM   34  C18 UNL     1      49.693 -46.018  48.607  1.00  0.00     0.050 A
ATOM     35  H7  UNL     1      47.935 -46.844  49.201  1.00  0.00     0.165 HD
HETATM   36  C19 UNL     1      50.465 -46.925  49.332  1.00  0.00    -0.034 A
HETATM   37  C24 UNL     1      50.292 -45.027  47.855  1.00  0.00     0.018 A
HETATM   38  C20 UNL     1      49.793 -47.972  50.123  1.00  0.00     0.050 C
HETATM   39  C21 UNL     1      51.829 -46.852  49.311  1.00  0.00     0.009 A
HETATM   40  C22 UNL     1      52.415 -45.847  48.547  1.00  0.00     0.002 A
HETATM   41  C23 UNL     1      51.672 -44.950  47.832  1.00  0.00     0.016 A
ENDBRANCH  28  30
ENDBRANCH  27  28
ENDBRANCH  20  22
ENDBRANCH  11  20
ENDBRANCH   3   4
TORSDOF 9
ENDMDL