MODEL 3
REMARK VINA RESULT: -8.041670697      1.376      1.457
REMARK  10 active torsions:
REMARK  status: ('A' for Active; 'I' for Inactive)
REMARK    1  A    between atoms: C5_5  and  N1_6
REMARK    2  A    between atoms: N1_6  and  C6_7
REMARK    3  A    between atoms: C7_10  and  N3_11
REMARK    4  A    between atoms: N3_11  and  C8_13
REMARK    5  A    between atoms: C8_13  and  C9_14
REMARK    6  A    between atoms: C9_14  and  O1_15
REMARK    7  A    between atoms: C10_19  and  N5_20
REMARK    8  A    between atoms: N5_20  and  C11_22
REMARK    9  A    between atoms: C11_22  and  C12_23
REMARK   10  A    between atoms: C15_26  and  C16_27
ROOT
HETATM    1  C6  UNL     1      48.005 -40.625  49.983  1.00  0.00     0.288 A
HETATM    2  N2  UNL     1      48.437 -41.736  50.637  1.00  0.00    -0.148 N
ATOM      3  H2  UNL     1      48.846 -41.637  51.566  1.00  0.00     0.188 HD
HETATM    4  C7  UNL     1      48.340 -42.986  50.082  1.00  0.00     0.696 A
HETATM    5  N4  UNL     1      47.815 -43.129  48.881  1.00  0.00    -0.022 N
ATOM      6  H4  UNL     1      47.744 -44.060  48.470  1.00  0.00     0.203 HD
HETATM    7  C10 UNL     1      47.369 -42.057  48.185  1.00  0.00     0.700 A
HETATM    8  N7  UNL     1      47.469 -40.846  48.738  1.00  0.00    -0.148 N
ATOM      9  H7  UNL     1      47.130 -40.043  48.208  1.00  0.00     0.188 HD
ENDROOT
BRANCH   7  10
HETATM   10  N5  UNL     1      46.872 -42.201  47.045  1.00  0.00    -0.200 N
ATOM     11  H5  UNL     1      45.888 -42.466  47.083  1.00  0.00     0.183 HD
BRANCH  10  12
HETATM   12  C11 UNL     1      47.340 -42.085  45.725  1.00  0.00     0.117 C
BRANCH  12  13
HETATM   13  C12 UNL     1      47.937 -40.732  45.587  1.00  0.00    -0.020 A
HETATM   14  C13 UNL     1      47.103 -39.661  45.350  1.00  0.00     0.013 A
HETATM   15  C14 UNL     1      47.637 -38.378  45.238  1.00  0.00     0.013 A
HETATM   16  C15 UNL     1      48.996 -38.191  45.366  1.00  0.00    -0.024 A
HETATM   17  C22 UNL     1      49.825 -39.267  45.602  1.00  0.00     0.013 A
HETATM   18  C23 UNL     1      49.285 -40.559  45.714  1.00  0.00     0.013 A
BRANCH  16  19
HETATM   19  C16 UNL     1      49.524 -36.837  45.251  1.00  0.00    -0.002 A
HETATM   20  C17 UNL     1      50.014 -36.317  44.060  1.00  0.00     0.031 A
HETATM   21  C18 UNL     1      50.413 -35.035  44.380  1.00  0.00     0.091 A
HETATM   22  N6  UNL     1      50.173 -34.818  45.671  1.00  0.00    -0.364 N
HETATM   23  C19 UNL     1      50.435 -33.607  46.449  1.00  0.00     0.155 C
HETATM   24  C20 UNL     1      49.618 -35.912  46.261  1.00  0.00     0.018 A
HETATM   25  C21 UNL     1      49.202 -36.088  47.669  1.00  0.00     0.069 C
ENDBRANCH  16  19
ENDBRANCH  12  13
ENDBRANCH  10  12
ENDBRANCH   7  10
BRANCH   4  26
HETATM   26  N3  UNL     1      48.785 -43.943  50.821  1.00  0.00    -0.223 N
ATOM     27  H3  UNL     1      49.545 -43.750  51.474  1.00  0.00     0.177 HD
BRANCH  26  28
HETATM   28  C8  UNL     1      48.248 -45.263  50.755  1.00  0.00     0.164 C
BRANCH  28  29
HETATM   29  C9  UNL     1      47.484 -45.592  52.042  1.00  0.00     0.184 C
BRANCH  29  30
HETATM   30  O1  UNL     1      48.027 -44.988  53.154  1.00  0.00    -0.399 OA
ATOM     31  H1  UNL     1      48.264 -45.610  53.833  1.00  0.00     0.209 HD
ENDBRANCH  29  30
ENDBRANCH  28  29
ENDBRANCH  26  28
ENDBRANCH   4  26
BRANCH   1  32
HETATM   32  N1  UNL     1      48.095 -39.550  50.481  1.00  0.00    -0.370 NA
BRANCH  32  33
HETATM   33  C5  UNL     1      48.226 -38.373  51.026  1.00  0.00     0.111 A
HETATM   34  C4  UNL     1      49.469 -37.992  51.565  1.00  0.00     0.045 A
HETATM   35  C3  UNL     1      49.706 -36.807  52.162  1.00  0.00     0.010 A
HETATM   36  C2  UNL     1      48.682 -35.898  52.262  1.00  0.00    -0.056 A
HETATM   37  C1  UNL     1      48.911 -34.583  52.923  1.00  0.00     0.049 C
HETATM   38  C25 UNL     1      47.416 -36.188  51.756  1.00  0.00    -0.053 A
HETATM   39  C24 UNL     1      47.218 -37.399  51.159  1.00  0.00     0.052 A
HETATM   40  C26 UNL     1      46.357 -35.157  51.901  1.00  0.00     0.049 C
ENDBRANCH  32  33
ENDBRANCH   1  32
TORSDOF 10
ENDMDL