MODEL 1
REMARK VINA RESULT: -8.152505372      0.000      0.000
REMARK  10 active torsions:
REMARK  status: ('A' for Active; 'I' for Inactive)
REMARK    1  A    between atoms: C7_10  and  N2_11
REMARK    2  A    between atoms: N2_11  and  C8_13
REMARK    3  A    between atoms: C16_23  and  C17_24
REMARK    4  A    between atoms: C17_24  and  C18_25
REMARK    5  A    between atoms: C18_25  and  N4_26
REMARK    6  A    between atoms: N4_26  and  S2_28
REMARK    7  A    between atoms: S2_28  and  N5_30
REMARK    8  A    between atoms: S2_28  and  N6_35
REMARK    9  A    between atoms: N5_30  and  C19_32
REMARK   10  A    between atoms: N6_35  and  O2_37
ROOT
HETATM    1  C1  UNL     1      48.413 -41.371  45.872  1.00  0.00     0.068 C
HETATM    2  C2  UNL     1      48.498 -41.457  47.373  1.00  0.00     0.014 A
HETATM    3  N1  UNL     1      47.978 -42.548  47.949  1.00  0.00    -0.358 N
ATOM      4  H1  UNL     1      47.567 -43.264  47.349  1.00  0.00     0.166 HD
HETATM    5  C3  UNL     1      47.970 -42.749  49.296  1.00  0.00     0.052 A
HETATM    6  C4  UNL     1      47.483 -43.805  49.954  1.00  0.00     0.038 A
HETATM    7  C5  UNL     1      47.591 -43.809  51.321  1.00  0.00     0.053 A
HETATM    8  S1  UNL     1      48.368 -42.334  51.638  1.00  0.00    -0.097 SA
HETATM    9  C6  UNL     1      48.540 -41.743  50.026  1.00  0.00     0.058 A
HETATM   10  C7  UNL     1      49.091 -40.602  49.473  1.00  0.00     0.060 A
HETATM   11  C16 UNL     1      49.080 -40.427  48.059  1.00  0.00    -0.006 A
ENDROOT
BRANCH  11  12
HETATM   12  C17 UNL     1      49.796 -39.300  47.493  1.00  0.00     0.063 C
BRANCH  12  13
HETATM   13  C18 UNL     1      49.100 -38.075  47.047  1.00  0.00     0.137 C
BRANCH  13  14
HETATM   14  N4  UNL     1      50.033 -36.937  47.316  1.00  0.00    -0.318 N
ATOM     15  H4  UNL     1      50.712 -36.928  48.076  1.00  0.00     0.172 HD
BRANCH  14  16
HETATM   16  S2  UNL     1      49.835 -35.668  46.216  1.00  0.00     0.217 S
HETATM   17  O1  UNL     1      48.537 -34.995  46.256  1.00  0.00    -0.204 OA
BRANCH  16  18
HETATM   18  N5  UNL     1      51.098 -34.513  46.526  1.00  0.00    -0.283 N
ATOM     19  H5  UNL     1      52.055 -34.813  46.712  1.00  0.00     0.179 HD
BRANCH  18  20
HETATM   20  C19 UNL     1      50.771 -33.222  46.512  1.00  0.00     0.042 A
HETATM   21  C20 UNL     1      51.642 -32.206  47.053  1.00  0.00     0.032 A
HETATM   22  C21 UNL     1      50.443 -31.921  46.499  1.00  0.00     0.032 A
ENDBRANCH  18  20
ENDBRANCH  16  18
BRANCH  16  23
HETATM   23  N6  UNL     1      50.048 -36.192  44.733  1.00  0.00    -0.195 N
ATOM     24  H6  UNL     1      49.364 -36.843  44.347  1.00  0.00     0.207 HD
BRANCH  23  25
HETATM   25  O2  UNL     1      51.092 -35.822  43.953  1.00  0.00    -0.280 OA
ATOM     26  H2  UNL     1      51.792 -36.411  43.701  1.00  0.00     0.245 HD
ENDBRANCH  23  25
ENDBRANCH  16  23
ENDBRANCH  14  16
ENDBRANCH  13  14
ENDBRANCH  12  13
ENDBRANCH  11  12
BRANCH  10  27
HETATM   27  N2  UNL     1      49.691 -39.744  50.158  1.00  0.00    -0.355 N
ATOM     28  H2  UNL     1      50.690 -39.924  50.262  1.00  0.00     0.166 HD
BRANCH  27  29
HETATM   29  C8  UNL     1      49.256 -38.592  50.805  1.00  0.00     0.033 A
HETATM   30  C9  UNL     1      50.078 -37.901  51.660  1.00  0.00     0.032 A
HETATM   31  C10 UNL     1      49.611 -36.768  52.298  1.00  0.00     0.033 A
HETATM   32  C11 UNL     1      48.309 -36.339  52.066  1.00  0.00     0.042 A
HETATM   33  N3  UNL     1      47.598 -35.306  52.509  1.00  0.00    -0.365 N
HETATM   34  C14 UNL     1      47.491 -37.041  51.205  1.00  0.00    -0.006 A
HETATM   35  C12 UNL     1      46.349 -35.320  51.965  1.00  0.00     0.089 A
ATOM     36  H3  UNL     1      47.940 -34.603  53.165  1.00  0.00     0.165 HD
HETATM   37  C13 UNL     1      46.267 -36.423  51.128  1.00  0.00     0.030 A
HETATM   38  C15 UNL     1      47.956 -38.161  50.575  1.00  0.00     0.043 A
ENDBRANCH  27  29
ENDBRANCH  10  27
TORSDOF 10
ENDMDL