MODEL 2
REMARK VINA RESULT: -7.997046644      2.305      4.991
REMARK  8 active torsions:
REMARK  status: ('A' for Active; 'I' for Inactive)
REMARK    1  A    between atoms: C3_3  and  C4_4
REMARK    2  A    between atoms: C4_4  and  N1_5
REMARK    3  A    between atoms: N1_5  and  C5_6
REMARK    4  A    between atoms: N1_5  and  C13_15
REMARK    5  A    between atoms: C5_6  and  C6_7
REMARK    6  A    between atoms: C9_10  and  O1_11
REMARK    7  A    between atoms: N2_20  and  C18_22
REMARK    8  A    between atoms: C21_27  and  N4_28
REMARK       I    between atoms: N4_28  and  C22_30
ROOT
HETATM    1  C1  UNL     1      54.189 -46.329  47.728  1.00  0.00     0.112 C
HETATM    2  C2  UNL     1      52.802 -46.794  47.769  1.00  0.00    -0.109 C
HETATM    3  C3  UNL     1      51.664 -47.190  47.812  1.00  0.00    -0.087 C
ENDROOT
BRANCH   3   4
HETATM    4  C4  UNL     1      50.280 -47.691  47.878  1.00  0.00     0.217 C
BRANCH   4   5
HETATM    5  N1  UNL     1      49.557 -47.056  48.961  1.00  0.00    -0.366 N
BRANCH   5   6
HETATM    6  C5  UNL     1      49.187 -47.959  50.042  1.00  0.00     0.162 C
BRANCH   6   7
HETATM    7  C6  UNL     1      47.877 -47.584  50.633  1.00  0.00    -0.040 A
HETATM    8  C7  UNL     1      47.788 -46.844  51.789  1.00  0.00     0.011 A
HETATM    9  C8  UNL     1      46.556 -46.526  52.308  1.00  0.00     0.037 A
HETATM   10  C9  UNL     1      45.383 -46.927  51.703  1.00  0.00     0.068 A
HETATM   11  C11 UNL     1      45.464 -47.662  50.553  1.00  0.00     0.037 A
HETATM   12  C12 UNL     1      46.703 -47.981  50.034  1.00  0.00     0.011 A
BRANCH  10  13
HETATM   13  O1  UNL     1      44.188 -46.558  52.300  1.00  0.00    -0.356 OA
HETATM   14  C10 UNL     1      43.044 -46.184  51.558  1.00  0.00     0.210 C
ENDBRANCH  10  13
ENDBRANCH   6   7
ENDBRANCH   5   6
BRANCH   5  15
HETATM   15  C13 UNL     1      49.251 -45.682  48.958  1.00  0.00     0.033 A
HETATM   16  C14 UNL     1      49.945 -44.772  49.704  1.00  0.00     0.030 A
HETATM   17  C15 UNL     1      49.649 -43.417  49.683  1.00  0.00     0.020 A
HETATM   18  C16 UNL     1      48.642 -42.924  48.910  1.00  0.00     0.035 A
HETATM   19  C17 UNL     1      48.342 -41.565  48.882  1.00  0.00     0.119 A
HETATM   20  C25 UNL     1      47.929 -43.819  48.150  1.00  0.00     0.049 A
HETATM   21  N2  UNL     1      49.068 -40.810  49.627  1.00  0.00    -0.342 N
HETATM   22  N7  UNL     1      47.342 -41.126  48.103  1.00  0.00    -0.338 N
ATOM     23  H2  UNL     1      49.801 -41.256  50.177  1.00  0.00     0.167 HD
HETATM   24  C24 UNL     1      46.659 -42.020  47.369  1.00  0.00     0.182 A
ATOM     25  H7  UNL     1      47.105 -40.134  48.069  1.00  0.00     0.168 HD
HETATM   26  N8  UNL     1      46.934 -43.335  47.383  1.00  0.00    -0.351 N
ATOM     27  H8  UNL     1      46.384 -43.973  46.806  1.00  0.00     0.166 HD
HETATM   28  C26 UNL     1      48.232 -45.178  48.176  1.00  0.00     0.059 A
BRANCH  21  29
HETATM   29  C18 UNL     1      48.927 -39.403  49.742  1.00  0.00     0.038 A
HETATM   30  C19 UNL     1      49.675 -38.561  48.965  1.00  0.00     0.046 A
HETATM   31  C20 UNL     1      49.502 -37.189  49.107  1.00  0.00     0.092 A
HETATM   32  N3  UNL     1      48.634 -36.636  49.971  1.00  0.00    -0.352 N
HETATM   33  C21 UNL     1      47.892 -37.465  50.740  1.00  0.00     0.109 A
ATOM     34  H3  UNL     1      48.538 -35.623  50.044  1.00  0.00     0.166 HD
HETATM   35  C23 UNL     1      48.034 -38.847  50.630  1.00  0.00     0.078 A
BRANCH  33  36
HETATM   36  N4  UNL     1      47.034 -37.024  51.595  1.00  0.00    -0.317 N
HETATM   37  C22 UNL     1      46.838 -35.676  51.917  1.00  0.00     0.187 C
HETATM   38  N5  UNL     1      45.735 -35.111  51.558  1.00  0.00    -0.373 N
HETATM   39  N6  UNL     1      47.800 -34.934  52.614  1.00  0.00    -0.064 NA
ATOM     40  H52 UNL     1      45.034 -35.652  51.050  1.00  0.00     0.158 HD
ATOM     41  H51 UNL     1      45.592 -34.129  51.792  1.00  0.00     0.158 HD
ATOM     42  H4  UNL     1      46.453 -37.711  52.074  1.00  0.00     0.170 HD
ENDBRANCH  33  36
ENDBRANCH  21  29
ENDBRANCH   5  15
ENDBRANCH   4   5
ENDBRANCH   3   4
TORSDOF 8
ENDMDL