MODEL 4
REMARK VINA RESULT: -5.614925985      2.245      4.978
REMARK  9 active torsions:
REMARK  status: ('A' for Active; 'I' for Inactive)
REMARK    1  A    between atoms: C2_2  and  C3_3
REMARK    2  A    between atoms: C3_3  and  C4_4
REMARK    3  A    between atoms: C6_6  and  O1_7
REMARK    4  A    between atoms: C14_16  and  O2_17
REMARK    5  A    between atoms: C15_19  and  O3_20
REMARK    6  A    between atoms: N1_28  and  C22_29
REMARK    7  A    between atoms: C22_29  and  C23_30
REMARK    8  A    between atoms: C23_30  and  C24_31
REMARK    9  A    between atoms: C24_31  and  N2_32
REMARK       I    between atoms: N2_32  and  C25_34
ROOT
HETATM    1  C4  UNL     1      48.277 -41.550  47.871  1.00  0.00     0.185 C
HETATM    2  C5  UNL     1      49.657 -40.850  47.880  1.00  0.00     0.052 C
HETATM    3  C6  UNL     1      47.734 -41.064  46.577  1.00  0.00     0.161 C
HETATM    4  C7  UNL     1      46.473 -41.493  46.031  1.00  0.00     0.016 C
HETATM    5  C8  UNL     1      45.762 -40.261  45.431  1.00  0.00     0.013 C
HETATM    6  C9  UNL     1      46.664 -42.463  44.845  1.00  0.00     0.034 C
HETATM    7  C10 UNL     1      46.228 -43.814  45.206  1.00  0.00    -0.026 C
HETATM    8  C11 UNL     1      47.094 -44.979  45.037  1.00  0.00     0.001 C
HETATM    9  C12 UNL     1      48.360 -45.240  45.178  1.00  0.00    -0.053 C
HETATM   10  C13 UNL     1      48.721 -46.703  44.845  1.00  0.00     0.046 C
HETATM   11  C14 UNL     1      49.521 -44.446  45.576  1.00  0.00     0.183 C
HETATM   12  C15 UNL     1      50.092 -44.575  46.945  1.00  0.00     0.118 C
HETATM   13  C16 UNL     1      50.317 -45.976  47.448  1.00  0.00     0.047 C
HETATM   14  C17 UNL     1      51.322 -45.982  48.584  1.00  0.00    -0.015 C
HETATM   15  C18 UNL     1      52.659 -46.585  48.174  1.00  0.00     0.010 C
HETATM   16  C19 UNL     1      51.523 -44.675  49.247  1.00  0.00     0.006 C
HETATM   17  C20 UNL     1      50.166 -43.983  49.349  1.00  0.00     0.039 C
HETATM   18  C21 UNL     1      49.667 -43.572  47.978  1.00  0.00     0.261 C
HETATM   19  N1  UNL     1      48.376 -43.011  47.933  1.00  0.00     0.108 N
ENDROOT
BRANCH  19  20
HETATM   20  C22 UNL     1      47.404 -43.483  48.864  1.00  0.00     0.276 C
BRANCH  20  21
HETATM   21  C23 UNL     1      46.794 -44.809  48.790  1.00  0.00     0.050 C
BRANCH  21  22
HETATM   22  C24 UNL     1      46.807 -45.436  50.177  1.00  0.00     0.124 C
BRANCH  22  23
HETATM   23  N2  UNL     1      47.777 -46.451  50.376  1.00  0.00    -0.361 N
HETATM   24  C25 UNL     1      48.593 -46.433  51.530  1.00  0.00     0.213 C
HETATM   25  C26 UNL     1      49.620 -47.462  51.813  1.00  0.00     0.117 C
HETATM   26  O4  UNL     1      48.446 -45.506  52.359  1.00  0.00    -0.274 OA
ATOM     27  H2  UNL     1      47.886 -47.194  49.686  1.00  0.00     0.162 HD
ENDBRANCH  22  23
ENDBRANCH  21  22
ENDBRANCH  20  21
ENDBRANCH  19  20
BRANCH   1  28
HETATM   28  C3  UNL     1      47.641 -40.950  49.093  1.00  0.00     0.070 C
BRANCH  28  29
HETATM   29  C2  UNL     1      48.527 -40.182  49.999  1.00  0.00    -0.034 C
HETATM   30  C1  UNL     1      48.028 -39.228  50.800  1.00  0.00     0.007 C
ENDBRANCH  28  29
ENDBRANCH   1  28
BRANCH   3  31
HETATM   31  O1  UNL     1      47.897 -39.658  46.529  1.00  0.00    -0.393 OA
ATOM     32  H1  UNL     1      47.917 -39.393  45.618  1.00  0.00     0.210 HD
ENDBRANCH   3  31
BRANCH  12  33
HETATM   33  O3  UNL     1      51.494 -44.274  46.672  1.00  0.00    -0.385 OA
ATOM     34  H3  UNL     1      51.916 -44.921  47.224  1.00  0.00     0.210 HD
ENDBRANCH  12  33
BRANCH  11  35
HETATM   35  O2  UNL     1      50.536 -44.856  44.618  1.00  0.00    -0.388 OA
ATOM     36  H2  UNL     1      51.343 -44.575  45.034  1.00  0.00     0.210 HD
ENDBRANCH  11  35
TORSDOF 9
ENDMDL