MODEL 4
REMARK VINA RESULT: -8.103503018      3.473      6.244
REMARK  9 active torsions:
REMARK  status: ('A' for Active; 'I' for Inactive)
REMARK    1  A    between atoms: N2_3  and  S1_5
REMARK    2  A    between atoms: S1_5  and  N3_6
REMARK    3  A    between atoms: S1_5  and  C2_10
REMARK    4  A    between atoms: C5_13  and  N4_14
REMARK    5  A    between atoms: N4_14  and  C6_16
REMARK    6  A    between atoms: C9_21  and  N6_22
REMARK    7  A    between atoms: N6_22  and  C10_24
REMARK    8  A    between atoms: C13_27  and  O2_28
REMARK    9  A    between atoms: O2_28  and  C14_29
ROOT
HETATM    1  N1  UNL     1      47.813 -40.864  51.548  1.00  0.00    -0.171 NA
HETATM    2  C1  UNL     1      48.146 -41.980  51.685  1.00  0.00     0.191 C
HETATM    3  N2  UNL     1      48.530 -43.311  51.826  1.00  0.00    -0.234 N
ATOM      4  H2  UNL     1      49.166 -43.555  52.585  1.00  0.00     0.190 HD
ENDROOT
BRANCH   3   5
HETATM    5  S1  UNL     1      47.982 -44.565  50.778  1.00  0.00     0.145 S
HETATM    6  O1  UNL     1      46.496 -44.677  50.958  1.00  0.00    -0.223 OA
BRANCH   5   7
HETATM    7  N3  UNL     1      48.616 -45.890  51.247  1.00  0.00    -0.340 N
ATOM      8  H32 UNL     1      49.408 -45.970  51.884  1.00  0.00     0.167 HD
ATOM      9  H31 UNL     1      48.105 -46.657  50.810  1.00  0.00     0.167 HD
ENDBRANCH   5   7
BRANCH   5  10
HETATM   10  C2  UNL     1      48.396 -44.223  49.109  1.00  0.00     0.059 A
HETATM   11  C3  UNL     1      49.712 -44.067  48.714  1.00  0.00     0.026 A
HETATM   12  C4  UNL     1      50.060 -43.798  47.406  1.00  0.00     0.031 A
HETATM   13  C5  UNL     1      49.095 -43.673  46.427  1.00  0.00     0.049 A
HETATM   14  C22 UNL     1      47.782 -43.830  46.823  1.00  0.00     0.031 A
HETATM   15  C23 UNL     1      47.430 -44.099  48.130  1.00  0.00     0.026 A
BRANCH  13  16
HETATM   16  N4  UNL     1      49.426 -43.396  45.073  1.00  0.00    -0.192 N
ATOM     17  H4  UNL     1      49.236 -44.122  44.381  1.00  0.00     0.184 HD
BRANCH  16  18
HETATM   18  C6  UNL     1      49.941 -42.315  44.662  1.00  0.00     0.684 A
HETATM   19  N5  UNL     1      50.833 -42.283  43.661  1.00  0.00    -0.202 N
HETATM   20  C7  UNL     1      51.359 -41.101  43.255  1.00  0.00     0.110 A
ATOM     21  H5  UNL     1      51.117 -43.150  43.205  1.00  0.00     0.183 HD
HETATM   22  C8  UNL     1      50.992 -39.908  43.856  1.00  0.00     0.066 A
HETATM   23  C9  UNL     1      50.077 -39.968  44.877  1.00  0.00     0.122 A
HETATM   24  N7  UNL     1      49.589 -41.156  45.241  1.00  0.00    -0.176 N
ATOM     25  H7  UNL     1      48.910 -41.185  46.001  1.00  0.00     0.186 HD
BRANCH  23  26
HETATM   26  N6  UNL     1      49.723 -38.868  45.449  1.00  0.00    -0.342 N
ATOM     27  H6  UNL     1      49.400 -38.092  44.872  1.00  0.00     0.167 HD
BRANCH  26  28
HETATM   28  C10 UNL     1      49.769 -38.708  46.851  1.00  0.00     0.033 A
HETATM   29  C11 UNL     1      49.752 -37.429  47.417  1.00  0.00     0.032 A
HETATM   30  C12 UNL     1      49.796 -37.265  48.784  1.00  0.00     0.039 A
HETATM   31  C13 UNL     1      49.857 -38.337  49.625  1.00  0.00     0.076 A
HETATM   32  C20 UNL     1      49.876 -39.609  49.098  1.00  0.00     0.039 A
HETATM   33  C21 UNL     1      49.831 -39.765  47.742  1.00  0.00     0.032 A
BRANCH  31  34
HETATM   34  O2  UNL     1      49.902 -38.154  51.017  1.00  0.00    -0.311 OA
BRANCH  34  35
HETATM   35  C14 UNL     1      49.017 -37.191  51.516  1.00  0.00     0.076 A
HETATM   36  C15 UNL     1      49.449 -36.221  52.381  1.00  0.00     0.037 A
HETATM   37  C16 UNL     1      48.524 -35.292  52.843  1.00  0.00     0.003 A
HETATM   38  C17 UNL     1      47.205 -35.334  52.448  1.00  0.00     0.000 A
HETATM   39  C18 UNL     1      46.816 -36.332  51.573  1.00  0.00     0.003 A
HETATM   40  C19 UNL     1      47.704 -37.274  51.091  1.00  0.00     0.037 A
ENDBRANCH  34  35
ENDBRANCH  31  34
ENDBRANCH  26  28
ENDBRANCH  23  26
ENDBRANCH  16  18
ENDBRANCH  13  16
ENDBRANCH   5  10
ENDBRANCH   3   5
TORSDOF 9
ENDMDL