MODEL 1
REMARK VINA RESULT: -8.602400096      0.000      0.000
REMARK  10 active torsions:
REMARK  status: ('A' for Active; 'I' for Inactive)
REMARK    1  A    between atoms: C4_4  and  O1_5
REMARK    2  A    between atoms: C18_21  and  O3_22
REMARK    3  A    between atoms: C20_25  and  C21_26
REMARK    4  A    between atoms: C21_26  and  C22_27
REMARK    5  A    between atoms: C22_27  and  C23_28
REMARK    6  A    between atoms: C23_28  and  C24_29
REMARK    7  A    between atoms: C24_29  and  C25_30
REMARK    8  A    between atoms: C25_30  and  O4_31
REMARK    9  A    between atoms: C25_30  and  C26_33
REMARK   10  A    between atoms: C26_33  and  O5_34
ROOT
HETATM    1  C1  UNL     1      51.274 -47.924  50.326  1.00  0.00     0.018 C
HETATM    2  C2  UNL     1      50.705 -47.522  48.945  1.00  0.00    -0.015 C
HETATM    3  C3  UNL     1      50.754 -48.755  48.139  1.00  0.00     0.018 C
HETATM    4  C4  UNL     1      51.690 -46.474  48.402  1.00  0.00     0.150 C
HETATM    5  C5  UNL     1      51.608 -45.139  49.028  1.00  0.00     0.201 C
HETATM    6  O2  UNL     1      50.817 -44.192  48.741  1.00  0.00    -0.377 OA
HETATM    7  C6  UNL     1      49.653 -43.927  48.240  1.00  0.00     0.069 C
HETATM    8  C7  UNL     1      49.505 -44.552  46.866  1.00  0.00     0.040 C
HETATM    9  C8  UNL     1      48.933 -45.923  46.878  1.00  0.00     0.013 C
HETATM   10  C9  UNL     1      48.512 -46.474  48.161  1.00  0.00    -0.032 C
HETATM   11  C10 UNL     1      47.476 -47.572  47.860  1.00  0.00     0.016 C
HETATM   12  C11 UNL     1      49.461 -46.859  49.198  1.00  0.00     0.005 C
HETATM   13  C12 UNL     1      48.465 -47.482  50.193  1.00  0.00     0.007 C
HETATM   14  C13 UNL     1      47.557 -46.236  50.285  1.00  0.00     0.011 C
HETATM   15  C14 UNL     1      47.742 -45.446  49.018  1.00  0.00    -0.030 C
HETATM   16  C15 UNL     1      46.343 -45.371  48.379  1.00  0.00     0.016 C
HETATM   17  C16 UNL     1      48.415 -44.139  49.097  1.00  0.00     0.032 C
HETATM   18  C17 UNL     1      48.711 -43.588  50.451  1.00  0.00     0.040 C
HETATM   19  C18 UNL     1      48.817 -42.062  50.323  1.00  0.00     0.123 C
HETATM   20  C19 UNL     1      49.619 -41.581  49.192  1.00  0.00     0.025 C
HETATM   21  C20 UNL     1      49.007 -40.265  48.731  1.00  0.00    -0.008 C
HETATM   22  C27 UNL     1      48.561 -40.424  47.322  1.00  0.00     0.005 C
HETATM   23  C28 UNL     1      48.702 -41.906  46.996  1.00  0.00     0.008 C
HETATM   24  C29 UNL     1      49.691 -42.416  47.966  1.00  0.00     0.027 C
ENDROOT
BRANCH  21  25
HETATM   25  C21 UNL     1      49.954 -39.103  48.915  1.00  0.00     0.005 C
BRANCH  25  26
HETATM   26  C22 UNL     1      49.139 -37.946  49.441  1.00  0.00     0.000 C
BRANCH  26  27
HETATM   27  C23 UNL     1      48.650 -38.188  50.849  1.00  0.00     0.002 C
BRANCH  27  28
HETATM   28  C24 UNL     1      48.048 -36.979  51.481  1.00  0.00     0.034 C
BRANCH  28  29
HETATM   29  C25 UNL     1      46.878 -36.418  50.719  1.00  0.00     0.141 C
BRANCH  29  30
HETATM   30  O4  UNL     1      45.961 -37.481  50.559  1.00  0.00    -0.393 OA
ATOM     31  H4  UNL     1      45.419 -37.486  51.339  1.00  0.00     0.210 HD
ENDBRANCH  29  30
BRANCH  29  32
HETATM   32  C26 UNL     1      46.158 -35.336  51.472  1.00  0.00     0.195 C
BRANCH  32  33
HETATM   33  O5  UNL     1      44.764 -35.527  51.378  1.00  0.00    -0.398 OA
ATOM     34  H5  UNL     1      44.388 -35.616  52.246  1.00  0.00     0.209 HD
ENDBRANCH  32  33
ENDBRANCH  29  32
ENDBRANCH  28  29
ENDBRANCH  27  28
ENDBRANCH  26  27
ENDBRANCH  25  26
ENDBRANCH  21  25
BRANCH  19  35
HETATM   35  O3  UNL     1      49.378 -41.609  51.526  1.00  0.00    -0.395 OA
ATOM     36  H3  UNL     1      50.248 -41.296  51.309  1.00  0.00     0.210 HD
ENDBRANCH  19  35
BRANCH   4  37
HETATM   37  O1  UNL     1      52.952 -47.032  48.764  1.00  0.00    -0.393 OA
ATOM     38  H1  UNL     1      53.081 -46.684  49.638  1.00  0.00     0.210 HD
ENDBRANCH   4  37
TORSDOF 10
ENDMDL