MODEL 1
REMARK VINA RESULT: -7.722218752      0.000      0.000
REMARK  13 active torsions:
REMARK  status: ('A' for Active; 'I' for Inactive)
REMARK    1  A    between atoms: C2_2  and  C4_4
REMARK    2  A    between atoms: C6_6  and  C7_7
REMARK    3  A    between atoms: C8_8  and  C9_9
REMARK    4  A    between atoms: C9_9  and  C10_10
REMARK    5  A    between atoms: C10_10  and  O1_11
REMARK    6  A    between atoms: C10_10  and  C11_13
REMARK    7  A    between atoms: C10_10  and  C17_21
REMARK    8  A    between atoms: C11_13  and  C12_14
REMARK    9  A    between atoms: C12_14  and  C13_15
REMARK   10  A    between atoms: C13_15  and  C14_16
REMARK   11  A    between atoms: C14_16  and  O2_19
REMARK   12  A    between atoms: C19_23  and  O3_24
REMARK   13  A    between atoms: C28_35  and  O5_36
ROOT
HETATM    1  C10 UNL     1      51.416 -33.800  45.017  1.00  0.00     0.094 C
ENDROOT
BRANCH   1   2
HETATM    2  C9  UNL     1      49.961 -33.870  45.425  1.00  0.00     0.134 C
BRANCH   2   3
HETATM    3  C8  UNL     1      49.702 -35.011  46.261  1.00  0.00    -0.103 C
HETATM    4  C7  UNL     1      49.439 -35.983  46.966  1.00  0.00    -0.102 C
BRANCH   4   5
HETATM    5  C6  UNL     1      49.099 -37.142  47.804  1.00  0.00     0.066 C
HETATM    6  C5  UNL     1      48.672 -36.620  49.133  1.00  0.00     0.029 C
HETATM    7  C4  UNL     1      48.533 -37.733  50.187  1.00  0.00    -0.010 C
HETATM    8  C28 UNL     1      47.899 -38.877  49.477  1.00  0.00     0.131 C
HETATM    9  C29 UNL     1      49.888 -38.088  50.721  1.00  0.00     0.017 C
HETATM   10  C27 UNL     1      48.898 -39.831  48.874  1.00  0.00     0.020 C
HETATM   11  C24 UNL     1      50.222 -39.264  48.577  1.00  0.00    -0.003 C
HETATM   12  C26 UNL     1      49.558 -40.502  50.096  1.00  0.00     0.012 C
HETATM   13  C23 UNL     1      50.334 -37.954  47.963  1.00  0.00     0.022 C
HETATM   14  C25 UNL     1      50.498 -39.296  50.075  1.00  0.00    -0.009 C
BRANCH   7  15
HETATM   15  C2  UNL     1      47.689 -37.113  51.273  1.00  0.00    -0.012 C
HETATM   16  C1  UNL     1      46.661 -36.137  50.785  1.00  0.00     0.010 C
HETATM   17  C3  UNL     1      48.515 -36.454  52.346  1.00  0.00     0.010 C
ENDBRANCH   7  15
BRANCH   8  18
HETATM   18  O5  UNL     1      47.169 -39.618  50.407  1.00  0.00    -0.394 OA
ATOM     19  H5  UNL     1      46.894 -39.032  51.103  1.00  0.00     0.210 HD
ENDBRANCH   8  18
ENDBRANCH   4   5
ENDBRANCH   2   3
ENDBRANCH   1   2
BRANCH   1  20
HETATM   20  O1  UNL     1      51.804 -35.185  45.080  1.00  0.00    -0.386 OA
ATOM     21  H1  UNL     1      51.769 -35.353  46.014  1.00  0.00     0.210 HD
ENDBRANCH   1  20
BRANCH   1  22
HETATM   22  C11 UNL     1      52.189 -33.078  46.063  1.00  0.00     0.041 C
BRANCH  22  23
HETATM   23  C12 UNL     1      51.474 -31.972  46.762  1.00  0.00     0.006 C
BRANCH  23  24
HETATM   24  C13 UNL     1      52.082 -30.630  46.639  1.00  0.00     0.037 C
BRANCH  24  25
HETATM   25  C14 UNL     1      51.246 -29.694  45.773  1.00  0.00     0.051 C
HETATM   26  C15 UNL     1      51.207 -28.359  46.490  1.00  0.00     0.045 C
HETATM   27  C16 UNL     1      49.851 -30.192  45.578  1.00  0.00     0.045 C
BRANCH  25  28
HETATM   28  O2  UNL     1      51.821 -29.482  44.531  1.00  0.00    -0.391 OA
ATOM     29  H2  UNL     1      51.316 -29.879  43.832  1.00  0.00     0.210 HD
ENDBRANCH  25  28
ENDBRANCH  24  25
ENDBRANCH  23  24
ENDBRANCH  22  23
ENDBRANCH   1  22
BRANCH   1  30
HETATM   30  C17 UNL     1      51.685 -33.397  43.626  1.00  0.00     0.160 C
HETATM   31  C18 UNL     1      52.198 -34.340  42.639  1.00  0.00     0.069 C
HETATM   32  C19 UNL     1      53.304 -33.591  41.927  1.00  0.00     0.154 C
HETATM   33  C20 UNL     1      53.201 -32.209  42.491  1.00  0.00     0.080 C
HETATM   34  C21 UNL     1      54.597 -31.741  42.862  1.00  0.00     0.048 C
HETATM   35  C22 UNL     1      52.669 -31.214  41.474  1.00  0.00     0.048 C
HETATM   36  O4  UNL     1      52.435 -32.219  43.620  1.00  0.00    -0.370 OA
BRANCH  32  37
HETATM   37  O3  UNL     1      54.549 -34.180  42.084  1.00  0.00    -0.392 OA
ATOM     38  H3  UNL     1      54.911 -34.507  41.269  1.00  0.00     0.210 HD
ENDBRANCH  32  37
ENDBRANCH   1  30
TORSDOF 13
ENDMDL