MODEL 1
REMARK VINA RESULT: -7.017137508      0.000      0.000
REMARK  10 active torsions:
REMARK  status: ('A' for Active; 'I' for Inactive)
REMARK    1  A    between atoms: C2_2  and  C3_3
REMARK    2  A    between atoms: C2_2  and  C4_6
REMARK    3  A    between atoms: C3_3  and  O1_4
REMARK    4  A    between atoms: C5_7  and  O2_8
REMARK    5  A    between atoms: C11_16  and  C13_18
REMARK    6  A    between atoms: C13_18  and  C14_19
REMARK    7  A    between atoms: C14_19  and  C15_20
REMARK    8  A    between atoms: C22_27  and  C24_29
REMARK    9  A    between atoms: C24_29  and  O4_30
REMARK   10  A    between atoms: C25_32  and  O5_33
ROOT
HETATM    1  C15 UNL     1      49.428 -44.136  47.034  1.00  0.00     0.002 C
HETATM    2  C16 UNL     1      50.313 -45.223  46.445  1.00  0.00    -0.043 C
HETATM    3  C17 UNL     1      51.308 -44.676  45.417  1.00  0.00     0.015 C
HETATM    4  C18 UNL     1      49.495 -46.226  45.657  1.00  0.00     0.015 C
HETATM    5  C19 UNL     1      51.157 -45.934  47.423  1.00  0.00     0.010 C
HETATM    6  C20 UNL     1      50.553 -46.290  48.720  1.00  0.00     0.007 C
HETATM    7  C21 UNL     1      49.142 -45.822  48.838  1.00  0.00     0.007 C
HETATM    8  C22 UNL     1      48.634 -46.166  50.189  1.00  0.00     0.007 C
HETATM    9  C23 UNL     1      47.322 -46.936  50.090  1.00  0.00     0.020 C
HETATM   10  C25 UNL     1      48.448 -45.084  51.174  1.00  0.00     0.128 C
HETATM   11  C26 UNL     1      48.978 -43.739  50.845  1.00  0.00     0.033 C
HETATM   12  C27 UNL     1      49.746 -43.644  49.532  1.00  0.00     0.012 C
HETATM   13  C28 UNL     1      49.054 -44.350  48.430  1.00  0.00    -0.035 C
HETATM   14  C29 UNL     1      47.555 -43.963  48.529  1.00  0.00     0.016 C
ENDROOT
BRANCH   1  15
HETATM   15  C14 UNL     1      49.771 -42.789  46.483  1.00  0.00     0.007 C
BRANCH  15  16
HETATM   16  C13 UNL     1      48.737 -41.767  46.318  1.00  0.00     0.015 C
BRANCH  16  17
HETATM   17  C11 UNL     1      49.035 -40.347  46.482  1.00  0.00    -0.007 C
HETATM   18  C4  UNL     1      48.851 -39.499  47.611  1.00  0.00    -0.034 C
HETATM   19  C5  UNL     1      49.369 -38.072  47.435  1.00  0.00     0.159 C
HETATM   20  C6  UNL     1      48.690 -37.391  46.274  1.00  0.00     0.084 C
HETATM   21  C7  UNL     1      49.427 -36.112  45.947  1.00  0.00     0.021 C
HETATM   22  C8  UNL     1      48.695 -38.286  45.113  1.00  0.00     0.138 C
HETATM   23  O3  UNL     1      49.037 -37.860  44.023  1.00  0.00    -0.297 OA
HETATM   24  C9  UNL     1      48.288 -39.675  45.287  1.00  0.00     0.064 C
HETATM   25  C10 UNL     1      46.816 -39.838  45.370  1.00  0.00     0.019 C
HETATM   26  C12 UNL     1      50.529 -40.151  45.932  1.00  0.00     0.021 C
BRANCH  18  27
HETATM   27  C2  UNL     1      48.763 -39.765  49.031  1.00  0.00    -0.038 C
HETATM   28  C1  UNL     1      47.732 -40.486  49.555  1.00  0.00     0.021 C
BRANCH  27  29
HETATM   29  C3  UNL     1      49.831 -39.491  50.022  1.00  0.00     0.202 C
BRANCH  29  30
HETATM   30  O1  UNL     1      51.086 -39.797  49.661  1.00  0.00    -0.396 OA
ATOM     31  H1  UNL     1      51.691 -40.019  50.358  1.00  0.00     0.209 HD
ENDBRANCH  29  30
ENDBRANCH  27  29
ENDBRANCH  18  27
BRANCH  19  32
HETATM   32  O2  UNL     1      50.736 -37.964  47.352  1.00  0.00    -0.390 OA
ATOM     33  H2  UNL     1      51.060 -37.073  47.281  1.00  0.00     0.210 HD
ENDBRANCH  19  32
ENDBRANCH  16  17
ENDBRANCH  15  16
ENDBRANCH   1  15
BRANCH   8  34
HETATM   34  C24 UNL     1      49.564 -47.230  50.835  1.00  0.00     0.176 C
BRANCH  34  35
HETATM   35  O4  UNL     1      49.740 -46.903  52.209  1.00  0.00    -0.400 OA
ATOM     36  H4  UNL     1      50.605 -47.191  52.480  1.00  0.00     0.209 HD
ENDBRANCH  34  35
ENDBRANCH   8  34
BRANCH  10  37
HETATM   37  O5  UNL     1      47.137 -45.009  51.721  1.00  0.00    -0.395 OA
ATOM     38  H5  UNL     1      46.480 -44.678  51.119  1.00  0.00     0.210 HD
ENDBRANCH  10  37
TORSDOF 10
ENDMDL