MODEL 3
REMARK VINA RESULT: -8.365615172      2.477      4.472
REMARK  10 active torsions:
REMARK  status: ('A' for Active; 'I' for Inactive)
REMARK    1  A    between atoms: O1_1  and  C1_3
REMARK    2  A    between atoms: C1_3  and  C2_4
REMARK    3  A    between atoms: C5_7  and  C6_8
REMARK    4  A    between atoms: C8_10  and  O2_11
REMARK    5  A    between atoms: C11_15  and  C12_16
REMARK    6  A    between atoms: C16_20  and  C17_21
REMARK    7  A    between atoms: C17_21  and  O3_22
REMARK    8  A    between atoms: C17_21  and  N1_24
REMARK    9  A    between atoms: N1_24  and  C18_26
REMARK   10  A    between atoms: C20_28  and  C21_29
ROOT
HETATM    1  C12 UNL     1      50.157 -45.790  49.167  1.00  0.00    -0.024 A
HETATM    2  C13 UNL     1      49.439 -46.872  49.582  1.00  0.00     0.012 A
HETATM    3  C14 UNL     1      48.401 -46.790  50.516  1.00  0.00     0.002 A
HETATM    4  C15 UNL     1      48.079 -45.576  51.048  1.00  0.00     0.011 A
HETATM    5  C16 UNL     1      48.786 -44.469  50.648  1.00  0.00    -0.009 A
HETATM    6  C28 UNL     1      49.809 -44.557  49.726  1.00  0.00     0.024 A
ENDROOT
BRANCH   5   7
HETATM    7  C17 UNL     1      48.394 -43.153  51.277  1.00  0.00     0.253 C
BRANCH   7   8
HETATM    8  O3  UNL     1      47.154 -42.842  50.713  1.00  0.00    -0.372 OA
ATOM      9  H3  UNL     1      47.206 -41.917  50.505  1.00  0.00     0.212 HD
ENDBRANCH   7   8
BRANCH   7  10
HETATM   10  N1  UNL     1      49.359 -42.191  51.018  1.00  0.00    -0.346 N
ATOM     11  H1  UNL     1      50.283 -42.500  51.319  1.00  0.00     0.164 HD
BRANCH  10  12
HETATM   12  C18 UNL     1      49.401 -41.034  50.509  1.00  0.00     0.103 A
HETATM   13  C19 UNL     1      48.854 -39.880  51.027  1.00  0.00     0.060 A
HETATM   14  C20 UNL     1      48.940 -38.643  50.386  1.00  0.00    -0.021 A
HETATM   15  C26 UNL     1      49.604 -38.585  49.181  1.00  0.00     0.029 A
HETATM   16  C27 UNL     1      50.156 -39.755  48.664  1.00  0.00     0.090 A
HETATM   17  N3  UNL     1      50.055 -40.920  49.300  1.00  0.00    -0.352 N
ATOM     18  H3  UNL     1      50.474 -41.752  48.882  1.00  0.00     0.166 HD
BRANCH  14  19
HETATM   19  C21 UNL     1      48.345 -37.450  50.968  1.00  0.00    -0.023 A
HETATM   20  C22 UNL     1      49.043 -36.727  51.913  1.00  0.00     0.029 A
HETATM   21  C23 UNL     1      48.502 -35.584  52.486  1.00  0.00     0.088 A
HETATM   22  N2  UNL     1      47.269 -35.197  52.089  1.00  0.00    -0.375 N
HETATM   23  C24 UNL     1      46.560 -35.871  51.175  1.00  0.00     0.088 A
ATOM     24  H2  UNL     1      46.862 -34.357  52.503  1.00  0.00     0.164 HD
HETATM   25  C25 UNL     1      47.089 -37.003  50.605  1.00  0.00     0.029 A
ENDBRANCH  14  19
ENDBRANCH  10  12
ENDBRANCH   7  10
ENDBRANCH   5   7
BRANCH   1  26
HETATM   26  C11 UNL     1      51.226 -45.910  48.209  1.00  0.00    -0.015 A
HETATM   27  C6  UNL     1      51.135 -45.285  46.993  1.00  0.00    -0.011 A
HETATM   28  C7  UNL     1      52.198 -45.422  46.092  1.00  0.00     0.049 A
HETATM   29  C8  UNL     1      53.320 -46.158  46.389  1.00  0.00     0.066 A
HETATM   30  C9  UNL     1      53.418 -46.788  47.607  1.00  0.00     0.037 A
HETATM   31  C10 UNL     1      52.379 -46.659  48.497  1.00  0.00     0.016 A
BRANCH  27  32
HETATM   32  C5  UNL     1      49.986 -44.511  46.633  1.00  0.00    -0.009 A
HETATM   33  C4  UNL     1      48.796 -45.115  46.334  1.00  0.00     0.015 A
HETATM   34  C3  UNL     1      47.689 -44.323  45.992  1.00  0.00     0.028 A
HETATM   35  C2  UNL     1      47.819 -42.954  45.963  1.00  0.00     0.032 A
HETATM   36  N4  UNL     1      49.000 -42.387  46.262  1.00  0.00    -0.367 N
HETATM   37  C29 UNL     1      50.058 -43.145  46.588  1.00  0.00     0.100 A
ATOM     38  H4  UNL     1      49.094 -41.371  46.240  1.00  0.00     0.165 HD
BRANCH  35  39
HETATM   39  C1  UNL     1      46.690 -42.052  45.612  1.00  0.00     0.220 C
BRANCH  39  40
HETATM   40  O1  UNL     1      46.609 -40.992  46.515  1.00  0.00    -0.395 OA
ATOM     41  H1  UNL     1      45.761 -40.568  46.456  1.00  0.00     0.209 HD
ENDBRANCH  39  40
ENDBRANCH  35  39
ENDBRANCH  27  32
BRANCH  29  42
HETATM   42  O2  UNL     1      54.332 -46.246  45.443  1.00  0.00    -0.361 OA
ATOM     43  H2  UNL     1      54.647 -47.106  45.188  1.00  0.00     0.217 HD
ENDBRANCH  29  42
ENDBRANCH   1  26
TORSDOF 10
ENDMDL