MODEL 4
REMARK VINA RESULT: -7.239092101      2.351      8.180
REMARK  10 active torsions:
REMARK  status: ('A' for Active; 'I' for Inactive)
REMARK    1  A    between atoms: C2_2  and  C3_3
REMARK    2  A    between atoms: C4_4  and  C5_5
REMARK    3  A    between atoms: C5_5  and  C6_6
REMARK    4  A    between atoms: C7_8  and  C9_10
REMARK    5  A    between atoms: C9_10  and  C10_11
REMARK    6  A    between atoms: C10_11  and  C12_13
REMARK    7  A    between atoms: C13_14  and  O2_15
REMARK    8  A    between atoms: C14_17  and  O3_18
REMARK    9  A    between atoms: C19_24  and  O4_25
REMARK   10  A    between atoms: C22_29  and  O5_30
ROOT
HETATM    1  C12 UNL     1      48.585 -44.645  49.366  1.00  0.00     0.030 C
HETATM    2  C13 UNL     1      48.115 -44.358  50.787  1.00  0.00     0.152 C
HETATM    3  C14 UNL     1      48.952 -43.081  51.021  1.00  0.00     0.156 C
HETATM    4  C15 UNL     1      48.585 -42.327  49.800  1.00  0.00    -0.004 C
HETATM    5  C16 UNL     1      47.160 -41.890  49.925  1.00  0.00     0.019 C
HETATM    6  C17 UNL     1      49.382 -41.128  49.470  1.00  0.00     0.004 C
HETATM    7  C18 UNL     1      48.994 -39.923  50.352  1.00  0.00     0.038 C
HETATM    8  C19 UNL     1      50.020 -38.847  49.963  1.00  0.00     0.129 C
HETATM    9  C20 UNL     1      49.526 -38.276  48.680  1.00  0.00     0.012 C
HETATM   10  C21 UNL     1      48.764 -36.996  48.920  1.00  0.00     0.021 C
HETATM   11  C22 UNL     1      50.453 -38.169  47.524  1.00  0.00     0.129 C
HETATM   12  C23 UNL     1      49.276 -38.610  46.637  1.00  0.00     0.038 C
HETATM   13  C24 UNL     1      48.718 -39.273  47.907  1.00  0.00     0.005 C
HETATM   14  C25 UNL     1      49.256 -40.712  48.053  1.00  0.00    -0.004 C
HETATM   15  C26 UNL     1      48.523 -41.547  47.098  1.00  0.00     0.006 C
HETATM   16  C27 UNL     1      48.016 -42.883  47.582  1.00  0.00     0.011 C
HETATM   17  C28 UNL     1      48.824 -43.372  48.715  1.00  0.00    -0.027 C
HETATM   18  C29 UNL     1      50.266 -43.348  48.224  1.00  0.00     0.016 C
ENDROOT
BRANCH   1  19
HETATM   19  C10 UNL     1      47.950 -45.796  48.689  1.00  0.00    -0.008 C
HETATM   20  C11 UNL     1      46.480 -45.907  49.056  1.00  0.00     0.010 C
BRANCH  19  21
HETATM   21  C9  UNL     1      48.127 -45.964  47.243  1.00  0.00     0.045 C
BRANCH  21  22
HETATM   22  C7  UNL     1      49.376 -46.684  46.846  1.00  0.00     0.084 A
HETATM   23  C6  UNL     1      50.082 -47.605  47.664  1.00  0.00     0.160 A
HETATM   24  O1  UNL     1      49.251 -48.102  46.638  1.00  0.00    -0.369 OA
HETATM   25  C8  UNL     1      50.148 -46.067  45.652  1.00  0.00     0.049 C
BRANCH  23  26
HETATM   26  C5  UNL     1      51.585 -47.796  47.471  1.00  0.00     0.061 C
BRANCH  26  27
HETATM   27  C4  UNL     1      52.329 -47.020  48.485  1.00  0.00    -0.028 C
HETATM   28  C3  UNL     1      53.138 -46.034  48.244  1.00  0.00    -0.031 C
BRANCH  28  29
HETATM   29  C2  UNL     1      53.447 -45.523  46.898  1.00  0.00     0.022 C
HETATM   30  C1  UNL     1      54.922 -45.095  46.819  1.00  0.00     0.009 C
ENDBRANCH  28  29
ENDBRANCH  26  27
ENDBRANCH  23  26
ENDBRANCH  21  22
ENDBRANCH  19  21
ENDBRANCH   1  19
BRANCH   2  31
HETATM   31  O2  UNL     1      48.591 -45.327  51.698  1.00  0.00    -0.393 OA
ATOM     32  H2  UNL     1      48.569 -45.007  52.593  1.00  0.00     0.210 HD
ENDBRANCH   2  31
BRANCH   3  33
HETATM   33  O3  UNL     1      48.475 -42.475  52.180  1.00  0.00    -0.392 OA
ATOM     34  H3  UNL     1      48.439 -41.539  52.019  1.00  0.00     0.210 HD
ENDBRANCH   3  33
BRANCH   8  35
HETATM   35  O4  UNL     1      51.260 -39.452  49.779  1.00  0.00    -0.395 OA
ATOM     36  H4  UNL     1      51.927 -38.778  49.733  1.00  0.00     0.210 HD
ENDBRANCH   8  35
BRANCH  11  37
HETATM   37  O5  UNL     1      50.798 -36.835  47.205  1.00  0.00    -0.395 OA
ATOM     38  H5  UNL     1      50.386 -36.520  46.410  1.00  0.00     0.210 HD
ENDBRANCH  11  37
TORSDOF 10
ENDMDL