MODEL 5
REMARK VINA RESULT: -6.137345578      2.597      3.884
REMARK  15 active torsions:
REMARK  status: ('A' for Active; 'I' for Inactive)
REMARK    1  A    between atoms: C2_2  and  C3_3
REMARK    2  A    between atoms: C3_3  and  O1_4
REMARK    3  A    between atoms: C3_3  and  C4_6
REMARK    4  A    between atoms: C4_6  and  C5_7
REMARK    5  A    between atoms: C5_7  and  C6_8
REMARK    6  A    between atoms: C10_12  and  C11_13
REMARK    7  A    between atoms: C15_17  and  C16_18
REMARK    8  A    between atoms: C16_18  and  C23_29
REMARK    9  A    between atoms: C17_19  and  C18_20
REMARK   10  A    between atoms: C18_20  and  C19_21
REMARK   11  A    between atoms: C19_21  and  C20_22
REMARK   12  A    between atoms: C20_22  and  O2_23
REMARK   13  A    between atoms: C20_22  and  C21_25
REMARK   14  A    between atoms: C21_25  and  C22_26
REMARK   15  A    between atoms: C27_34  and  O5_35
ROOT
HETATM    1  C23 UNL     1      48.148 -41.381  47.929  1.00  0.00     0.070 C
HETATM    2  C24 UNL     1      47.367 -42.480  47.302  1.00  0.00     0.036 C
HETATM    3  C25 UNL     1      48.107 -40.239  46.911  1.00  0.00     0.036 C
HETATM    4  C26 UNL     1      47.366 -40.766  49.050  1.00  0.00     0.073 C
HETATM    5  N1  UNL     1      46.775 -40.249  49.934  1.00  0.00    -0.196 NA
ENDROOT
BRANCH   1   6
HETATM    6  C16 UNL     1      49.458 -41.777  48.429  1.00  0.00    -0.024 C
HETATM    7  C17 UNL     1      50.263 -40.813  48.891  1.00  0.00     0.065 C
BRANCH   6   8
HETATM    8  C15 UNL     1      50.104 -43.070  48.477  1.00  0.00    -0.039 C
HETATM    9  C13 UNL     1      49.896 -44.071  49.515  1.00  0.00     0.014 C
HETATM   10  C12 UNL     1      50.863 -45.169  49.049  1.00  0.00     0.016 C
HETATM   11  C14 UNL     1      48.580 -44.742  49.650  1.00  0.00     0.015 C
HETATM   12  C11 UNL     1      51.195 -44.881  47.592  1.00  0.00     0.024 C
HETATM   13  C27 UNL     1      50.068 -43.882  47.208  1.00  0.00     0.152 C
BRANCH  12  14
HETATM   14  C10 UNL     1      51.156 -46.147  46.781  1.00  0.00    -0.000 C
HETATM   15  C8  UNL     1      51.730 -47.312  47.568  1.00  0.00     0.010 C
HETATM   16  C7  UNL     1      50.689 -47.691  48.625  1.00  0.00    -0.006 C
HETATM   17  C9  UNL     1      52.034 -48.521  46.716  1.00  0.00     0.014 C
HETATM   18  C6  UNL     1      49.454 -47.859  48.207  1.00  0.00    -0.008 C
HETATM   19  C29 UNL     1      49.146 -47.691  46.770  1.00  0.00     0.048 C
HETATM   20  C28 UNL     1      49.751 -46.411  46.282  1.00  0.00     0.011 C
BRANCH  18  21
HETATM   21  C5  UNL     1      48.404 -48.208  49.103  1.00  0.00    -0.069 C
BRANCH  21  22
HETATM   22  C4  UNL     1      47.532 -48.476  49.883  1.00  0.00    -0.070 C
BRANCH  22  23
HETATM   23  C3  UNL     1      46.425 -48.818  50.814  1.00  0.00     0.196 C
BRANCH  23  24
HETATM   24  C2  UNL     1      46.732 -48.196  52.179  1.00  0.00     0.040 C
HETATM   25  C1  UNL     1      46.372 -46.733  52.117  1.00  0.00     0.009 C
ENDBRANCH  23  24
BRANCH  23  26
HETATM   26  O1  UNL     1      45.282 -48.287  50.273  1.00  0.00    -0.383 OA
ATOM     27  H1  UNL     1      44.625 -48.130  50.941  1.00  0.00     0.211 HD
ENDBRANCH  23  26
ENDBRANCH  22  23
ENDBRANCH  21  22
ENDBRANCH  18  21
ENDBRANCH  12  14
BRANCH  13  28
HETATM   28  O5  UNL     1      50.480 -43.195  46.112  1.00  0.00    -0.391 OA
ATOM     29  H5  UNL     1      49.899 -43.419  45.395  1.00  0.00     0.210 HD
ENDBRANCH  13  28
ENDBRANCH   6   8
BRANCH   7  30
HETATM   30  C18 UNL     1      50.118 -39.448  49.062  1.00  0.00    -0.125 C
BRANCH  30  31
HETATM   31  C19 UNL     1      49.983 -38.209  49.212  1.00  0.00     0.092 C
BRANCH  31  32
HETATM   32  C20 UNL     1      48.956 -37.293  49.647  1.00  0.00     0.079 C
BRANCH  32  33
HETATM   33  O2  UNL     1      48.271 -36.445  48.853  1.00  0.00    -0.360 OA
ATOM     34  H2  UNL     1      47.438 -36.039  49.064  1.00  0.00     0.217 HD
ENDBRANCH  32  33
BRANCH  32  35
HETATM   35  C21 UNL     1      48.621 -37.261  50.963  1.00  0.00     0.121 C
BRANCH  35  36
HETATM   36  C22 UNL     1      47.588 -36.375  51.403  1.00  0.00     0.201 C
HETATM   37  O3  UNL     1      46.386 -36.470  51.038  1.00  0.00    -0.644 OA
HETATM   38  O4  UNL     1      47.858 -35.328  52.283  1.00  0.00    -0.644 OA
ENDBRANCH  35  36
ENDBRANCH  32  35
ENDBRANCH  31  32
ENDBRANCH  30  31
ENDBRANCH   7  30
ENDBRANCH   1   6
TORSDOF 15
ENDMDL