MODEL 1
REMARK VINA RESULT: -7.502278874      0.000      0.000
REMARK  10 active torsions:
REMARK  status: ('A' for Active; 'I' for Inactive)
REMARK    1  A    between atoms: C2_2  and  C4_4
REMARK    2  A    between atoms: C4_4  and  C5_5
REMARK    3  A    between atoms: C5_5  and  C6_6
REMARK    4  A    between atoms: C10_10  and  O1_11
REMARK    5  A    between atoms: C12_14  and  O2_15
REMARK    6  A    between atoms: C13_17  and  O3_18
REMARK    7  A    between atoms: C16_22  and  C18_24
REMARK    8  A    between atoms: C18_24  and  O4_25
REMARK    9  A    between atoms: O4_25  and  C19_26
REMARK   10  A    between atoms: C26_33  and  O5_34
ROOT
HETATM    1  C6  UNL     1      49.408 -46.531  50.240  1.00  0.00    -0.068 C
HETATM    2  C7  UNL     1      49.656 -47.624  51.230  1.00  0.00     0.014 C
HETATM    3  C8  UNL     1      51.023 -48.278  51.068  1.00  0.00     0.015 C
HETATM    4  C9  UNL     1      48.651 -48.727  51.208  1.00  0.00     0.047 C
HETATM    5  C10 UNL     1      47.299 -48.172  51.235  1.00  0.00     0.072 C
HETATM    6  C11 UNL     1      46.481 -48.817  50.130  1.00  0.00     0.073 C
HETATM    7  C12 UNL     1      45.273 -47.931  49.987  1.00  0.00     0.150 C
HETATM    8  C13 UNL     1      45.625 -46.680  50.719  1.00  0.00     0.159 C
HETATM    9  C14 UNL     1      47.079 -46.700  51.128  1.00  0.00     0.029 C
HETATM   10  C15 UNL     1      47.045 -46.172  52.570  1.00  0.00     0.022 C
HETATM   11  C16 UNL     1      48.031 -45.914  50.269  1.00  0.00     0.014 C
HETATM   12  C17 UNL     1      47.463 -45.677  48.887  1.00  0.00     0.023 C
ENDROOT
BRANCH  11  13
HETATM   13  C18 UNL     1      48.133 -44.529  50.901  1.00  0.00     0.182 C
BRANCH  13  14
HETATM   14  O4  UNL     1      49.017 -43.651  50.578  1.00  0.00    -0.382 OA
BRANCH  14  15
HETATM   15  C19 UNL     1      49.105 -42.551  49.906  1.00  0.00     0.151 C
HETATM   16  C20 UNL     1      48.089 -42.497  48.714  1.00  0.00     0.038 C
HETATM   17  C21 UNL     1      48.694 -41.924  47.482  1.00  0.00    -0.016 C
HETATM   18  C22 UNL     1      49.830 -42.810  47.019  1.00  0.00     0.010 C
HETATM   19  C23 UNL     1      49.099 -40.479  47.556  1.00  0.00     0.010 C
HETATM   20  C24 UNL     1      48.555 -39.846  48.766  1.00  0.00     0.001 A
HETATM   21  C25 UNL     1      49.569 -40.185  49.905  1.00  0.00     0.030 A
HETATM   22  C27 UNL     1      49.148 -38.845  49.621  1.00  0.00    -0.037 A
HETATM   23  C26 UNL     1      48.900 -41.243  50.700  1.00  0.00     0.152 C
HETATM   24  C28 UNL     1      48.270 -38.146  50.638  1.00  0.00     0.015 C
HETATM   25  C29 UNL     1      50.156 -37.903  48.988  1.00  0.00     0.015 C
BRANCH  23  26
HETATM   26  O5  UNL     1      47.532 -40.929  50.748  1.00  0.00    -0.393 OA
ATOM     27  H5  UNL     1      47.235 -40.934  51.650  1.00  0.00     0.210 HD
ENDBRANCH  23  26
ENDBRANCH  14  15
ENDBRANCH  13  14
ENDBRANCH  11  13
BRANCH   1  28
HETATM   28  C5  UNL     1      50.042 -46.720  48.916  1.00  0.00    -0.018 C
BRANCH  28  29
HETATM   29  C4  UNL     1      51.137 -45.917  48.414  1.00  0.00     0.060 C
BRANCH  29  30
HETATM   30  C2  UNL     1      52.250 -46.807  47.900  1.00  0.00    -0.090 C
HETATM   31  C1  UNL     1      53.526 -46.562  48.054  1.00  0.00     0.014 C
HETATM   32  C3  UNL     1      51.840 -48.058  47.155  1.00  0.00     0.043 C
ENDBRANCH  29  30
ENDBRANCH  28  29
ENDBRANCH   1  28
BRANCH   5  33
HETATM   33  O1  UNL     1      46.695 -48.672  52.432  1.00  0.00    -0.389 OA
ATOM     34  H1  UNL     1      46.863 -49.607  52.436  1.00  0.00     0.210 HD
ENDBRANCH   5  33
BRANCH   8  35
HETATM   35  O3  UNL     1      45.097 -45.550  50.207  1.00  0.00    -0.392 OA
ATOM     36  H3  UNL     1      45.173 -44.782  50.761  1.00  0.00     0.210 HD
ENDBRANCH   8  35
BRANCH   7  37
HETATM   37  O2  UNL     1      44.156 -48.612  50.542  1.00  0.00    -0.393 OA
ATOM     38  H2  UNL     1      43.514 -48.737  49.853  1.00  0.00     0.210 HD
ENDBRANCH   7  37
TORSDOF 10
ENDMDL