MODEL 5
REMARK VINA RESULT: -7.132661813      3.015      4.704
REMARK  10 active torsions:
REMARK  status: ('A' for Active; 'I' for Inactive)
REMARK    1  A    between atoms: O1_2  and  C2_3
REMARK    2  A    between atoms: C2_3  and  C3_4
REMARK    3  A    between atoms: C3_4  and  C4_5
REMARK    4  A    between atoms: C4_5  and  C5_6
REMARK    5  A    between atoms: C5_6  and  C6_7
REMARK    6  A    between atoms: C6_7  and  O2_8
REMARK    7  A    between atoms: C6_7  and  C7_10
REMARK    8  A    between atoms: C21_24  and  O3_25
REMARK    9  A    between atoms: C27_32  and  O4_33
REMARK   10  A    between atoms: C29_36  and  O5_37
ROOT
HETATM    1  C7  UNL     1      47.341 -42.024  48.853  1.00  0.00     0.049 C
HETATM    2  C8  UNL     1      46.991 -41.843  47.412  1.00  0.00     0.011 C
HETATM    3  C9  UNL     1      47.240 -43.222  46.811  1.00  0.00     0.013 C
HETATM    4  C10 UNL     1      47.855 -44.067  47.904  1.00  0.00    -0.008 C
HETATM    5  C11 UNL     1      46.715 -44.917  48.469  1.00  0.00     0.019 C
HETATM    6  C12 UNL     1      48.913 -45.015  47.440  1.00  0.00     0.003 C
HETATM    7  C13 UNL     1      49.269 -45.932  48.561  1.00  0.00     0.006 C
HETATM    8  C14 UNL     1      49.442 -47.295  47.992  1.00  0.00     0.005 C
HETATM    9  C15 UNL     1      50.674 -47.552  47.230  1.00  0.00    -0.013 C
HETATM   10  C16 UNL     1      50.337 -48.818  46.398  1.00  0.00     0.010 C
HETATM   11  C17 UNL     1      51.211 -46.577  46.322  1.00  0.00     0.002 C
HETATM   12  C18 UNL     1      51.289 -45.123  46.576  1.00  0.00    -0.002 C
HETATM   13  C19 UNL     1      52.507 -44.896  47.485  1.00  0.00     0.013 C
HETATM   14  C20 UNL     1      53.220 -46.150  47.407  1.00  0.00     0.023 C
HETATM   15  C21 UNL     1      54.656 -46.247  47.118  1.00  0.00     0.123 C
HETATM   16  C22 UNL     1      54.754 -47.686  46.577  1.00  0.00     0.033 C
HETATM   17  C23 UNL     1      53.299 -48.100  46.263  1.00  0.00     0.012 C
HETATM   18  C24 UNL     1      52.676 -46.807  46.120  1.00  0.00    -0.034 C
HETATM   19  C25 UNL     1      53.246 -46.126  44.904  1.00  0.00     0.016 C
HETATM   20  C26 UNL     1      50.107 -44.317  46.826  1.00  0.00     0.024 C
HETATM   21  C27 UNL     1      50.447 -43.022  47.492  1.00  0.00     0.126 C
HETATM   22  C28 UNL     1      49.776 -42.751  48.804  1.00  0.00     0.071 C
HETATM   23  C29 UNL     1      48.367 -43.080  48.955  1.00  0.00     0.074 C
ENDROOT
BRANCH   1  24
HETATM   24  C6  UNL     1      47.626 -40.703  49.495  1.00  0.00     0.125 C
BRANCH  24  25
HETATM   25  C5  UNL     1      48.638 -39.886  48.794  1.00  0.00     0.032 C
BRANCH  25  26
HETATM   26  C4  UNL     1      49.576 -39.224  49.746  1.00  0.00     0.004 C
BRANCH  26  27
HETATM   27  C3  UNL     1      49.392 -37.765  49.981  1.00  0.00     0.026 C
BRANCH  27  28
HETATM   28  C2  UNL     1      48.547 -37.566  51.260  1.00  0.00     0.167 C
BRANCH  28  29
HETATM   29  O1  UNL     1      47.222 -37.383  51.003  1.00  0.00    -0.396 OA
HETATM   30  C1  UNL     1      46.755 -36.096  51.057  1.00  0.00     0.201 C
ENDBRANCH  28  29
ENDBRANCH  27  28
ENDBRANCH  26  27
ENDBRANCH  25  26
ENDBRANCH  24  25
BRANCH  24  31
HETATM   31  O2  UNL     1      46.490 -40.046  49.931  1.00  0.00    -0.395 OA
ATOM     32  H2  UNL     1      46.403 -39.132  49.686  1.00  0.00     0.210 HD
ENDBRANCH  24  31
ENDBRANCH   1  24
BRANCH  23  33
HETATM   33  O5  UNL     1      48.166 -43.732  50.199  1.00  0.00    -0.388 OA
ATOM     34  H5  UNL     1      48.313 -44.660  50.052  1.00  0.00     0.210 HD
ENDBRANCH  23  33
BRANCH  21  35
HETATM   35  O4  UNL     1      50.275 -41.895  46.644  1.00  0.00    -0.395 OA
ATOM     36  H4  UNL     1      50.922 -41.215  46.790  1.00  0.00     0.210 HD
ENDBRANCH  21  35
BRANCH  15  37
HETATM   37  O3  UNL     1      55.419 -46.235  48.306  1.00  0.00    -0.395 OA
ATOM     38  H3  UNL     1      55.480 -47.103  48.685  1.00  0.00     0.210 HD
ENDBRANCH  15  37
TORSDOF 10
ENDMDL