MODEL 2
REMARK VINA RESULT: -7.768381223      2.546      5.055
REMARK  9 active torsions:
REMARK  status: ('A' for Active; 'I' for Inactive)
REMARK    1  A    between atoms: C2_2  and  O1_3
REMARK    2  A    between atoms: O1_3  and  C3_4
REMARK    3  A    between atoms: C3_4  and  C4_5
REMARK    4  A    between atoms: C4_5  and  C5_6
REMARK    5  A    between atoms: C5_6  and  C6_7
REMARK    6  A    between atoms: C8_9  and  O2_10
REMARK    7  A    between atoms: C12_15  and  O3_16
REMARK    8  A    between atoms: C20_25  and  O4_26
REMARK    9  A    between atoms: C27_34  and  O5_35
ROOT
HETATM    1  C6  UNL     1      49.263 -40.987  49.550  1.00  0.00    -0.005 C
HETATM    2  C7  UNL     1      47.778 -40.927  49.031  1.00  0.00     0.019 C
HETATM    3  C8  UNL     1      49.064 -41.533  50.951  1.00  0.00     0.150 C
HETATM    4  C9  UNL     1      48.889 -42.986  50.697  1.00  0.00     0.009 C
HETATM    5  C10 UNL     1      49.356 -43.304  49.522  1.00  0.00    -0.062 C
HETATM    6  C11 UNL     1      49.895 -42.101  48.857  1.00  0.00     0.055 C
HETATM    7  C12 UNL     1      49.537 -42.235  47.394  1.00  0.00     0.128 C
HETATM    8  C13 UNL     1      50.127 -43.447  46.767  1.00  0.00     0.043 C
HETATM    9  C14 UNL     1      50.259 -44.660  47.616  1.00  0.00    -0.020 C
HETATM   10  C15 UNL     1      51.648 -45.150  47.678  1.00  0.00     0.017 C
HETATM   11  C16 UNL     1      51.761 -46.420  46.829  1.00  0.00     0.005 C
HETATM   12  C17 UNL     1      53.003 -46.602  46.092  1.00  0.00    -0.017 C
HETATM   13  C18 UNL     1      53.973 -45.410  46.159  1.00  0.00     0.018 C
HETATM   14  C19 UNL     1      53.809 -47.706  46.820  1.00  0.00     0.018 C
HETATM   15  C20 UNL     1      52.936 -47.038  44.672  1.00  0.00     0.126 C
HETATM   16  C21 UNL     1      51.692 -46.714  43.925  1.00  0.00     0.033 C
HETATM   17  C22 UNL     1      50.780 -45.755  44.716  1.00  0.00     0.012 C
HETATM   18  C23 UNL     1      50.474 -46.438  45.973  1.00  0.00    -0.035 C
HETATM   19  C24 UNL     1      50.061 -47.900  45.734  1.00  0.00     0.016 C
HETATM   20  C25 UNL     1      49.602 -45.903  46.970  1.00  0.00     0.006 C
HETATM   21  C26 UNL     1      48.247 -45.475  46.840  1.00  0.00     0.039 C
HETATM   22  C27 UNL     1      48.025 -44.919  48.263  1.00  0.00     0.131 C
HETATM   23  C28 UNL     1      49.411 -44.662  48.831  1.00  0.00     0.014 C
HETATM   24  C29 UNL     1      49.716 -45.720  49.833  1.00  0.00     0.023 C
ENDROOT
BRANCH   1  25
HETATM   25  C5  UNL     1      49.798 -39.654  49.525  1.00  0.00     0.015 C
BRANCH  25  26
HETATM   26  C4  UNL     1      50.205 -38.819  50.626  1.00  0.00     0.027 C
BRANCH  26  27
HETATM   27  C3  UNL     1      49.308 -37.733  51.128  1.00  0.00     0.167 C
BRANCH  27  28
HETATM   28  O1  UNL     1      47.952 -38.077  51.138  1.00  0.00    -0.391 OA
BRANCH  28  29
HETATM   29  C2  UNL     1      47.193 -36.977  50.795  1.00  0.00     0.163 C
HETATM   30  C1  UNL     1      47.651 -35.810  51.675  1.00  0.00     0.033 C
ENDBRANCH  28  29
ENDBRANCH  27  28
ENDBRANCH  26  27
ENDBRANCH  25  26
ENDBRANCH   1  25
BRANCH   3  31
HETATM   31  O2  UNL     1      47.837 -41.093  51.486  1.00  0.00    -0.391 OA
ATOM     32  H2  UNL     1      47.902 -40.190  51.775  1.00  0.00     0.210 HD
ENDBRANCH   3  31
BRANCH   7  33
HETATM   33  O3  UNL     1      50.010 -41.112  46.665  1.00  0.00    -0.395 OA
ATOM     34  H3  UNL     1      49.577 -41.059  45.821  1.00  0.00     0.210 HD
ENDBRANCH   7  33
BRANCH  22  35
HETATM   35  O5  UNL     1      47.341 -45.910  48.977  1.00  0.00    -0.394 OA
ATOM     36  H5  UNL     1      47.251 -46.653  48.392  1.00  0.00     0.210 HD
ENDBRANCH  22  35
BRANCH  15  37
HETATM   37  O4  UNL     1      54.014 -46.498  43.939  1.00  0.00    -0.395 OA
ATOM     38  H4  UNL     1      54.707 -46.215  44.525  1.00  0.00     0.210 HD
ENDBRANCH  15  37
TORSDOF 9
ENDMDL