MODEL 5
REMARK VINA RESULT: -6.515188274      2.494      7.673
REMARK  9 active torsions:
REMARK  status: ('A' for Active; 'I' for Inactive)
REMARK    1  A    between atoms: C3_3  and  O1_4
REMARK    2  A    between atoms: C9_11  and  O2_12
REMARK    3  A    between atoms: C13_17  and  C14_18
REMARK    4  A    between atoms: C14_18  and  C15_19
REMARK    5  A    between atoms: C16_20  and  C17_21
REMARK    6  A    between atoms: C17_21  and  O3_24
REMARK    7  A    between atoms: C26_32  and  O4_33
REMARK    8  A    between atoms: O4_33  and  C27_34
REMARK    9  A    between atoms: C27_34  and  C28_35
ROOT
HETATM    1  C1  UNL     1      46.783 -40.841  46.496  1.00  0.00     0.019 C
HETATM    2  C2  UNL     1      47.360 -41.427  47.540  1.00  0.00    -0.031 C
HETATM    3  C3  UNL     1      47.741 -40.652  48.720  1.00  0.00     0.157 C
HETATM    4  C4  UNL     1      48.966 -41.092  49.435  1.00  0.00    -0.013 C
HETATM    5  C5  UNL     1      48.663 -40.910  50.935  1.00  0.00     0.018 C
HETATM    6  C6  UNL     1      50.155 -40.159  49.170  1.00  0.00     0.018 C
HETATM    7  C7  UNL     1      49.326 -42.528  49.248  1.00  0.00     0.010 C
HETATM    8  C8  UNL     1      48.601 -43.367  50.258  1.00  0.00     0.038 C
HETATM    9  C9  UNL     1      48.820 -44.850  50.115  1.00  0.00     0.123 C
HETATM   10  C10 UNL     1      49.913 -45.058  49.135  1.00  0.00     0.027 C
HETATM   11  C11 UNL     1      50.359 -46.496  48.972  1.00  0.00    -0.007 C
HETATM   12  C12 UNL     1      50.423 -47.147  50.338  1.00  0.00     0.011 C
HETATM   13  C13 UNL     1      51.758 -46.432  48.433  1.00  0.00    -0.007 C
HETATM   14  C20 UNL     1      51.973 -45.502  47.298  1.00  0.00     0.006 C
HETATM   15  C21 UNL     1      51.194 -44.233  47.303  1.00  0.00     0.011 C
HETATM   16  C22 UNL     1      49.733 -44.405  47.782  1.00  0.00    -0.027 C
HETATM   17  C23 UNL     1      49.155 -45.355  46.758  1.00  0.00     0.016 C
HETATM   18  C24 UNL     1      49.086 -43.065  47.832  1.00  0.00    -0.002 C
HETATM   19  C25 UNL     1      49.820 -42.177  46.834  1.00  0.00     0.019 C
HETATM   20  C26 UNL     1      47.646 -42.928  47.570  1.00  0.00     0.162 C
ENDROOT
BRANCH  13  21
HETATM   21  C14 UNL     1      52.328 -47.785  48.078  1.00  0.00     0.031 C
BRANCH  21  22
HETATM   22  C15 UNL     1      53.126 -47.703  46.816  1.00  0.00    -0.027 C
HETATM   23  C16 UNL     1      54.431 -47.693  46.778  1.00  0.00     0.006 C
BRANCH  23  24
HETATM   24  C17 UNL     1      55.171 -47.612  45.498  1.00  0.00     0.068 C
HETATM   25  C18 UNL     1      54.833 -48.796  44.613  1.00  0.00     0.050 C
HETATM   26  C19 UNL     1      54.827 -46.348  44.764  1.00  0.00     0.050 C
BRANCH  24  27
HETATM   27  O3  UNL     1      56.533 -47.682  45.808  1.00  0.00    -0.387 OA
ATOM     28  H3  UNL     1      56.915 -48.337  45.235  1.00  0.00     0.211 HD
ENDBRANCH  24  27
ENDBRANCH  23  24
ENDBRANCH  21  22
ENDBRANCH  13  21
BRANCH   9  29
HETATM   29  O2  UNL     1      47.670 -45.575  49.919  1.00  0.00    -0.395 OA
ATOM     30  H2  UNL     1      47.616 -46.370  50.436  1.00  0.00     0.210 HD
ENDBRANCH   9  29
BRANCH  20  31
HETATM   31  O4  UNL     1      47.117 -43.394  46.406  1.00  0.00    -0.370 OA
BRANCH  31  32
HETATM   32  C27 UNL     1      46.045 -44.256  46.629  1.00  0.00     0.281 C
BRANCH  32  33
HETATM   33  C28 UNL     1      44.893 -43.944  45.755  1.00  0.00     0.197 C
HETATM   34  O5  UNL     1      45.077 -43.360  44.666  1.00  0.00    -0.646 OA
HETATM   35  O6  UNL     1      43.627 -44.318  46.183  1.00  0.00    -0.646 OA
ENDBRANCH  32  33
ENDBRANCH  31  32
ENDBRANCH  20  31
BRANCH   3  36
HETATM   36  O1  UNL     1      46.621 -40.568  49.558  1.00  0.00    -0.390 OA
ATOM     37  H1  UNL     1      46.933 -40.500  50.453  1.00  0.00     0.210 HD
ENDBRANCH   3  36
TORSDOF 9
ENDMDL