MODEL 1
REMARK VINA RESULT: -9.421912960      0.000      0.000
REMARK  7 active torsions:
REMARK  status: ('A' for Active; 'I' for Inactive)
REMARK    1  A    between atoms: N1_1  and  C1_4
REMARK    2  A    between atoms: C3_9  and  C4_10
REMARK    3  A    between atoms: C4_10  and  O1_11
REMARK    4  A    between atoms: C4_10  and  O2_13
REMARK    5  A    between atoms: C5_15  and  N4_16
REMARK       I    between atoms: N4_16  and  C6_18
REMARK    6  A    between atoms: C6_18  and  C7_20
REMARK    7  A    between atoms: C7_20  and  C8_22
ROOT
HETATM    1  C1  UNL     1      27.121  15.681  -4.011  1.00  0.00     0.678 A
HETATM    2  N2  UNL     1      26.364  16.042  -2.947  1.00  0.00    -0.178 N
ATOM      3  H2  UNL     1      25.412  15.689  -2.849  1.00  0.00     0.185 HD
HETATM    4  C2  UNL     1      26.878  16.867  -2.023  1.00  0.00     0.146 A
HETATM    5  N3  UNL     1      26.082  17.246  -0.906  1.00  0.00    -0.081 NA
HETATM    6  C3  UNL     1      28.186  17.333  -2.182  1.00  0.00     0.082 A
HETATM    7  C5  UNL     1      28.951  16.963  -3.264  1.00  0.00     0.138 A
HETATM    8  N6  UNL     1      28.392  16.138  -4.160  1.00  0.00    -0.176 N
ATOM      9  H6  UNL     1      28.933  15.847  -4.975  1.00  0.00     0.186 HD
ENDROOT
BRANCH   7  10
HETATM   10  N4  UNL     1      30.143  17.424  -3.355  1.00  0.00    -0.305 N
HETATM   11  C6  UNL     1      30.559  18.381  -4.308  1.00  0.00     0.302 C
HETATM   12  O3  UNL     1      30.437  18.121  -5.521  1.00  0.00    -0.264 OA
ATOM     13  H4  UNL     1      30.840  17.076  -2.696  1.00  0.00     0.170 HD
BRANCH  11  14
HETATM   14  C7  UNL     1      31.122  19.661  -3.915  1.00  0.00     0.303 C
HETATM   15  O4  UNL     1      30.653  20.759  -4.327  1.00  0.00    -0.277 OA
BRANCH  14  16
HETATM   16  C8  UNL     1      32.270  19.701  -3.015  1.00  0.00     0.310 C
HETATM   17  N5  UNL     1      32.105  19.647  -1.607  1.00  0.00    -0.054 NA
HETATM   18  O5  UNL     1      33.439  19.785  -3.461  1.00  0.00    -0.267 OA
ENDBRANCH  14  16
ENDBRANCH  11  14
ENDBRANCH   7  10
BRANCH   6  19
HETATM   19  C4  UNL     1      28.757  18.239  -1.171  1.00  0.00     0.295 C
BRANCH  19  20
HETATM   20  O1  UNL     1      30.000  17.773  -0.725  1.00  0.00    -0.367 OA
ATOM     21  H1  UNL     1      29.946  17.468   0.173  1.00  0.00     0.213 HD
ENDBRANCH  19  20
BRANCH  19  22
HETATM   22  O2  UNL     1      28.954  19.522  -1.695  1.00  0.00    -0.367 OA
ATOM     23  H2  UNL     1      29.595  19.512  -2.396  1.00  0.00     0.213 HD
ENDBRANCH  19  22
ENDBRANCH   6  19
BRANCH   1  24
HETATM   24  N1  UNL     1      26.570  14.888  -4.863  1.00  0.00    -0.234 N
ATOM     25  H12 UNL     1      25.560  14.848  -4.996  1.00  0.00     0.174 HD
ATOM     26  H11 UNL     1      27.200  14.295  -5.404  1.00  0.00     0.174 HD
ENDBRANCH   1  24
TORSDOF 7
ENDMDL