MODEL 1
REMARK VINA RESULT: -9.478680193      0.000      0.000
REMARK  7 active torsions:
REMARK  status: ('A' for Active; 'I' for Inactive)
REMARK    1  A    between atoms: N1_1  and  C1_4
REMARK    2  A    between atoms: C3_10  and  C4_11
REMARK    3  A    between atoms: C4_11  and  N4_12
REMARK    4  A    between atoms: C4_11  and  C5_16
REMARK    5  A    between atoms: C5_16  and  O1_17
REMARK    6  A    between atoms: C5_16  and  C6_19
REMARK    7  A    between atoms: N6_22  and  N7_23
ROOT
HETATM    1  C1  UNL     1      26.413  14.980  -4.086  1.00  0.00     0.678 A
HETATM    2  N2  UNL     1      27.583  15.362  -4.619  1.00  0.00    -0.174 N
ATOM      3  H2  UNL     1      27.940  15.141  -5.548  1.00  0.00     0.186 HD
HETATM    4  C2  UNL     1      28.190  16.101  -3.663  1.00  0.00     0.155 A
HETATM    5  N3  UNL     1      29.360  16.729  -3.636  1.00  0.00    -0.326 N
ATOM      6  H3  UNL     1      29.954  16.677  -4.464  1.00  0.00     0.169 HD
HETATM    7  C3  UNL     1      29.820  17.449  -2.550  1.00  0.00     0.142 A
HETATM    8  N6  UNL     1      29.055  17.529  -1.457  1.00  0.00    -0.210 N
HETATM    9  C7  UNL     1      27.850  16.888  -1.468  1.00  0.00     0.298 A
HETATM   10  O3  UNL     1      27.135  16.974  -0.416  1.00  0.00    -0.263 OA
HETATM   11  C8  UNL     1      27.395  16.174  -2.544  1.00  0.00     0.163 A
HETATM   12  N8  UNL     1      26.290  15.466  -2.830  1.00  0.00    -0.183 N
ATOM     13  H8  UNL     1      25.495  15.321  -2.207  1.00  0.00     0.184 HD
ENDROOT
BRANCH   7  14
HETATM   14  C4  UNL     1      31.118  18.084  -2.722  1.00  0.00     0.289 C
BRANCH  14  15
HETATM   15  N4  UNL     1      31.601  17.736  -4.069  1.00  0.00    -0.065 N
ATOM     16  H43 UNL     1      30.966  17.117  -4.573  1.00  0.00     0.275 HD
ATOM     17  H42 UNL     1      31.566  18.521  -4.720  1.00  0.00     0.275 HD
ATOM     18  H41 UNL     1      32.538  17.346  -3.965  1.00  0.00     0.275 HD
ENDBRANCH  14  15
BRANCH  14  19
HETATM   19  C5  UNL     1      31.320  19.486  -2.334  1.00  0.00     0.245 C
BRANCH  19  20
HETATM   20  O1  UNL     1      31.863  19.544  -1.051  1.00  0.00    -0.384 OA
ATOM     21  H1  UNL     1      32.028  20.449  -0.816  1.00  0.00     0.210 HD
ENDBRANCH  19  20
BRANCH  19  22
HETATM   22  C6  UNL     1      32.306  20.200  -3.223  1.00  0.00     0.262 C
HETATM   23  N5  UNL     1      31.910  21.413  -3.797  1.00  0.00    -0.060 NA
HETATM   24  O2  UNL     1      33.450  19.783  -3.480  1.00  0.00    -0.274 OA
ENDBRANCH  19  22
ENDBRANCH  14  19
ENDBRANCH   7  14
BRANCH   8  25
HETATM   25  N7  UNL     1      29.438  18.260  -0.336  1.00  0.00    -0.334 N
ATOM     26  H72 UNL     1      30.356  18.103   0.081  1.00  0.00     0.177 HD
ATOM     27  H71 UNL     1      28.821  18.941   0.105  1.00  0.00     0.177 HD
ENDBRANCH   8  25
BRANCH   1  28
HETATM   28  N1  UNL     1      25.540  14.249  -4.701  1.00  0.00    -0.234 N
ATOM     29  H12 UNL     1      25.659  13.830  -5.624  1.00  0.00     0.174 HD
ATOM     30  H11 UNL     1      24.624  14.011  -4.321  1.00  0.00     0.174 HD
ENDBRANCH   1  28
TORSDOF 7
ENDMDL