MODEL 1
REMARK VINA RESULT: -8.836212363      0.000      0.000
REMARK  5 active torsions:
REMARK  status: ('A' for Active; 'I' for Inactive)
REMARK       I    between atoms: C2_4  and  N3_6
REMARK    1  A    between atoms: N3_6  and  N4_8
REMARK    2  A    between atoms: C4_15  and  N7_16
REMARK    3  A    between atoms: N7_16  and  C5_18
REMARK    4  A    between atoms: C5_18  and  O2_19
REMARK    5  A    between atoms: C5_18  and  N8_21
REMARK       I    between atoms: N8_21  and  C6_24
REMARK       I    between atoms: C6_24  and  N9_25
REMARK       I    between atoms: C6_24  and  N10_29
ROOT
HETATM    1  N7  UNL     1      28.784  16.485  -2.515  1.00  0.00    -0.171 N
ATOM      2  H7  UNL     1      28.698  16.888  -3.447  1.00  0.00     0.182 HD
ENDROOT
BRANCH   1   3
HETATM    3  C4  UNL     1      29.704  17.051  -1.937  1.00  0.00     0.722 A
HETATM    4  N4  UNL     1      30.055  18.336  -1.822  1.00  0.00    -0.027 N
HETATM    5  C3  UNL     1      31.184  18.418  -1.056  1.00  0.00     0.375 A
HETATM    6  O1  UNL     1      31.798  19.461  -0.737  1.00  0.00    -0.243 OA
HETATM    7  N5  UNL     1      31.499  17.168  -0.716  1.00  0.00    -0.235 N
HETATM    8  N6  UNL     1      30.645  16.315  -1.218  1.00  0.00    -0.126 N
ATOM      9  H5  UNL     1      32.301  16.911  -0.140  1.00  0.00     0.192 HD
ATOM     10  H6  UNL     1      30.664  15.302  -1.106  1.00  0.00     0.206 HD
BRANCH   4  11
HETATM   11  N3  UNL     1      29.442  19.462  -2.354  1.00  0.00    -0.248 N
HETATM   12  C2  UNL     1      30.141  20.302  -3.288  1.00  0.00     0.203 C
HETATM   13  N1  UNL     1      30.816  21.309  -2.902  1.00  0.00    -0.368 N
HETATM   14  N2  UNL     1      30.046  19.967  -4.657  1.00  0.00    -0.062 NA
HETATM   15  C1  UNL     1      31.507  22.136  -3.872  1.00  0.00     0.148 C
ATOM     16  H1  UNL     1      30.873  21.535  -1.909  1.00  0.00     0.161 HD
ATOM     17  H3  UNL     1      28.488  19.695  -2.080  1.00  0.00     0.191 HD
ENDBRANCH   4  11
ENDBRANCH   1   3
BRANCH   1  18
HETATM   18  C5  UNL     1      27.832  15.517  -2.380  1.00  0.00     0.445 C
BRANCH  18  19
HETATM   19  O2  UNL     1      27.876  14.713  -1.219  1.00  0.00    -0.354 OA
ATOM     20  H2  UNL     1      27.254  13.998  -1.156  1.00  0.00     0.214 HD
ENDBRANCH  18  19
BRANCH  18  21
HETATM   21  N8  UNL     1      27.602  14.671  -3.545  1.00  0.00     0.024 N
HETATM   22  C6  UNL     1      26.228  14.914  -3.959  1.00  0.00     0.579 C
HETATM   23  N9  UNL     1      25.988  14.078  -5.117  1.00  0.00    -0.026 N
HETATM   24  N10 UNL     1      25.362  14.632  -2.867  1.00  0.00    -0.026 N
ATOM     25  H93 UNL     1      26.666  14.223  -5.866  1.00  0.00     0.278 HD
ATOM     26  H92 UNL     1      26.190  13.093  -4.951  1.00  0.00     0.278 HD
ATOM     27  H91 UNL     1      25.025  14.249  -5.407  1.00  0.00     0.278 HD
ATOM     28 3H10 UNL     1      25.496  13.692  -2.496  1.00  0.00     0.278 HD
ATOM     29 2H10 UNL     1      25.612  15.154  -2.026  1.00  0.00     0.278 HD
ATOM     30 1H10 UNL     1      24.398  14.803  -3.157  1.00  0.00     0.278 HD
ATOM     31  H82 UNL     1      28.282  14.815  -4.292  1.00  0.00     0.287 HD
ATOM     32  H81 UNL     1      27.807  13.687  -3.377  1.00  0.00     0.287 HD
ENDBRANCH  18  21
ENDBRANCH   1  18
TORSDOF 5
ENDMDL