MODEL 5
REMARK VINA RESULT: -8.926467060      1.543      1.781
REMARK  6 active torsions:
REMARK  status: ('A' for Active; 'I' for Inactive)
REMARK    1  A    between atoms: N1_1  and  N2_4
REMARK       I    between atoms: N2_4  and  C1_6
REMARK    2  A    between atoms: C1_6  and  C2_8
REMARK    3  A    between atoms: C2_8  and  O2_9
REMARK    4  A    between atoms: C2_8  and  N3_11
REMARK       I    between atoms: N3_11  and  C3_13
REMARK       I    between atoms: C3_13  and  N4_15
REMARK    5  A    between atoms: N4_15  and  N5_17
REMARK    6  A    between atoms: N5_17  and  C4_19
ROOT
HETATM    1  N3  UNL     1      28.303  16.392  -2.482  1.00  0.00    -0.307 N
ATOM      2  H3  UNL     1      28.736  15.596  -2.015  1.00  0.00     0.167 HD
HETATM    3  C3  UNL     1      28.794  17.698  -2.257  1.00  0.00     0.337 C
HETATM    4  O3  UNL     1      28.268  18.676  -2.825  1.00  0.00    -0.246 OA
HETATM    5  N4  UNL     1      29.881  17.906  -1.389  1.00  0.00    -0.250 N
ATOM      6  H4  UNL     1      30.318  17.113  -0.919  1.00  0.00     0.192 HD
ENDROOT
BRANCH   1   7
HETATM    7  C2  UNL     1      27.183  16.189  -3.377  1.00  0.00     0.317 C
BRANCH   7   8
HETATM    8  C1  UNL     1      26.669  14.807  -3.134  1.00  0.00     0.284 C
HETATM    9  N2  UNL     1      26.973  14.083  -1.958  1.00  0.00    -0.273 N
ATOM     10  H2  UNL     1      27.562  14.498  -1.237  1.00  0.00     0.189 HD
HETATM   11  O1  UNL     1      25.942  14.319  -4.046  1.00  0.00    -0.267 OA
BRANCH   9  12
HETATM   12  N1  UNL     1      26.466  12.808  -1.796  1.00  0.00    -0.342 N
ATOM     13  H12 UNL     1      25.462  12.683  -1.671  1.00  0.00     0.176 HD
ATOM     14  H11 UNL     1      27.102  12.011  -1.804  1.00  0.00     0.176 HD
ENDBRANCH   9  12
ENDBRANCH   7   8
BRANCH   7  15
HETATM   15  O2  UNL     1      26.131  17.076  -3.069  1.00  0.00    -0.368 OA
ATOM     16  H2  UNL     1      26.528  17.854  -2.694  1.00  0.00     0.212 HD
ENDBRANCH   7  15
ENDBRANCH   1   7
BRANCH   5  17
HETATM   17  N5  UNL     1      30.361  19.190  -1.170  1.00  0.00    -0.280 N
ATOM     18  H5  UNL     1      30.166  19.671  -0.291  1.00  0.00     0.188 HD
BRANCH  17  19
HETATM   19  C4  UNL     1      31.049  19.763  -2.082  1.00  0.00     0.141 A
HETATM   20  C5  UNL     1      32.212  19.169  -2.511  1.00  0.00     0.157 A
HETATM   21  N6  UNL     1      32.927  19.801  -3.485  1.00  0.00    -0.304 N
HETATM   22  N7  UNL     1      32.472  20.940  -3.963  1.00  0.00    -0.252 N
ATOM     23  H6  UNL     1      33.797  19.399  -3.836  1.00  0.00     0.186 HD
HETATM   24  C6  UNL     1      31.337  21.528  -3.550  1.00  0.00     0.340 A
ATOM     25  H7  UNL     1      33.015  21.404  -4.691  1.00  0.00     0.191 HD
HETATM   26  O4  UNL     1      30.923  22.610  -4.017  1.00  0.00    -0.245 OA
HETATM   27  N8  UNL     1      30.597  20.931  -2.582  1.00  0.00    -0.291 N
ATOM     28  H8  UNL     1      29.730  21.350  -2.245  1.00  0.00     0.172 HD
ENDBRANCH  17  19
ENDBRANCH   5  17
TORSDOF 6
ENDMDL