MODEL 4
REMARK VINA RESULT: -8.278632494      2.175      2.555
REMARK  4 active torsions:
REMARK  status: ('A' for Active; 'I' for Inactive)
REMARK    1  A    between atoms: C2_3  and  O1_4
REMARK    2  A    between atoms: C3_6  and  C4_7
REMARK       I    between atoms: C4_7  and  N2_9
REMARK    3  A    between atoms: N2_9  and  N3_11
REMARK    4  A    between atoms: N7_21  and  N8_23
ROOT
HETATM    1  C1  UNL     1      26.374  15.980  -3.510  1.00  0.00     0.177 C
HETATM    2  N1  UNL     1      27.525  16.119  -2.614  1.00  0.00    -0.164 N
HETATM    3  C2  UNL     1      28.173  17.292  -2.629  1.00  0.00     0.178 A
HETATM    4  C3  UNL     1      29.272  17.504  -1.811  1.00  0.00     0.153 A
HETATM    5  C6  UNL     1      29.645  16.458  -1.001  1.00  0.00     0.279 A
HETATM    6  O3  UNL     1      30.647  16.576  -0.220  1.00  0.00    -0.266 OA
HETATM    7  N6  UNL     1      28.987  15.298  -1.001  1.00  0.00    -0.153 N
ATOM      8  H6  UNL     1      29.290  14.542  -0.387  1.00  0.00     0.187 HD
HETATM    9  C7  UNL     1      27.908  15.121  -1.819  1.00  0.00     0.703 A
HETATM   10  N7  UNL     1      27.342  14.014  -1.766  1.00  0.00    -0.138 N
ATOM     11  H7  UNL     1      27.763  13.362  -1.104  1.00  0.00     0.205 HD
ENDROOT
BRANCH   4  12
HETATM   12  C4  UNL     1      29.930  18.787  -1.871  1.00  0.00     0.280 C
HETATM   13  O2  UNL     1      29.517  19.680  -1.035  1.00  0.00    -0.266 OA
HETATM   14  N2  UNL     1      30.960  19.127  -2.750  1.00  0.00    -0.263 N
ATOM     15  H2  UNL     1      31.309  18.444  -3.423  1.00  0.00     0.190 HD
BRANCH  14  16
HETATM   16  N3  UNL     1      31.526  20.457  -2.695  1.00  0.00    -0.273 N
HETATM   17  C5  UNL     1      31.172  21.295  -3.583  1.00  0.00     0.215 C
HETATM   18  N4  UNL     1      30.249  20.936  -4.594  1.00  0.00    -0.065 NA
HETATM   19  N5  UNL     1      31.728  22.604  -3.532  1.00  0.00    -0.065 NA
ATOM     20  H3  UNL     1      32.191  20.715  -1.965  1.00  0.00     0.189 HD
ENDBRANCH  14  16
ENDBRANCH   4  12
BRANCH   3  21
HETATM   21  O1  UNL     1      27.731  18.299  -3.477  1.00  0.00    -0.345 OA
ATOM     22  H1  UNL     1      27.904  19.206  -3.249  1.00  0.00     0.219 HD
ENDBRANCH   3  21
BRANCH  10  23
HETATM   23  N8  UNL     1      26.273  13.516  -2.425  1.00  0.00    -0.331 N
ATOM     24  H82 UNL     1      25.645  14.244  -2.767  1.00  0.00     0.177 HD
ATOM     25  H81 UNL     1      25.989  12.559  -2.635  1.00  0.00     0.177 HD
ENDBRANCH  10  23
TORSDOF 4
ENDMDL