MODEL 5
REMARK VINA RESULT: -7.654340498      2.976      6.018
REMARK  5 active torsions:
REMARK  status: ('A' for Active; 'I' for Inactive)
REMARK    1  A    between atoms: C2_2  and  O1_3
REMARK    2  A    between atoms: C2_2  and  N1_5
REMARK    3  A    between atoms: N1_5  and  C3_7
REMARK    4  A    between atoms: C4_10  and  N3_11
REMARK       I    between atoms: N3_11  and  C5_13
REMARK       I    between atoms: C5_13  and  N4_14
REMARK       I    between atoms: C5_13  and  N5_18
REMARK    5  A    between atoms: N7_25  and  N8_27
ROOT
HETATM    1  C3  UNL     1      29.543  16.865  -4.342  1.00  0.00     0.697 C
HETATM    2  N2  UNL     1      30.045  16.999  -3.081  1.00  0.00    -0.022 N
ATOM      3  H2  UNL     1      30.883  17.577  -3.017  1.00  0.00     0.203 HD
HETATM    4  C4  UNL     1      29.623  16.497  -1.909  1.00  0.00     0.697 C
HETATM    5  N6  UNL     1      28.788  15.474  -1.711  1.00  0.00    -0.169 N
ATOM      6  H6  UNL     1      28.915  14.947  -0.848  1.00  0.00     0.186 HD
HETATM    7  C6  UNL     1      27.782  15.055  -2.534  1.00  0.00     0.205 C
HETATM    8  N7  UNL     1      26.879  14.301  -2.005  1.00  0.00    -0.266 N
ATOM      9  H7  UNL     1      26.921  14.037  -1.021  1.00  0.00     0.190 HD
HETATM   10  C7  UNL     1      27.656  15.374  -3.887  1.00  0.00     0.305 C
HETATM   11  O2  UNL     1      26.608  14.937  -4.443  1.00  0.00    -0.263 OA
HETATM   12  N10 UNL     1      28.511  16.085  -4.661  1.00  0.00    -0.152 N
ATOM     13  H10 UNL     1      28.333  16.011  -5.663  1.00  0.00     0.187 HD
ENDROOT
BRANCH   4  14
HETATM   14  N3  UNL     1      30.054  17.044  -0.825  1.00  0.00    -0.173 N
HETATM   15  C5  UNL     1      30.820  18.238  -0.739  1.00  0.00     0.494 C
HETATM   16  N4  UNL     1      31.517  18.216   0.552  1.00  0.00    -0.032 N
HETATM   17  N5  UNL     1      29.903  19.363  -0.669  1.00  0.00    -0.032 N
ATOM     18  H43 UNL     1      30.887  18.088   1.343  1.00  0.00     0.278 HD
ATOM     19  H42 UNL     1      32.075  17.372   0.690  1.00  0.00     0.278 HD
ATOM     20  H41 UNL     1      32.067  19.072   0.614  1.00  0.00     0.278 HD
ATOM     21  H53 UNL     1      29.239  19.378  -1.443  1.00  0.00     0.278 HD
ATOM     22  H52 UNL     1      29.228  19.274   0.090  1.00  0.00     0.278 HD
ATOM     23  H51 UNL     1      30.453  20.220  -0.607  1.00  0.00     0.278 HD
ATOM     24  H3  UNL     1      29.825  16.577   0.052  1.00  0.00     0.181 HD
ENDBRANCH   4  14
BRANCH   1  25
HETATM   25  N1  UNL     1      30.153  17.559  -5.205  1.00  0.00    -0.200 N
ATOM     26  H1  UNL     1      30.297  17.113  -6.112  1.00  0.00     0.180 HD
BRANCH  25  27
HETATM   27  C2  UNL     1      30.663  18.875  -5.077  1.00  0.00     0.230 C
HETATM   28  C1  UNL     1      29.707  19.817  -4.345  1.00  0.00     0.063 C
BRANCH  27  29
HETATM   29  O1  UNL     1      31.816  18.817  -4.274  1.00  0.00    -0.377 OA
ATOM     30  H1  UNL     1      31.563  18.318  -3.505  1.00  0.00     0.212 HD
ENDBRANCH  27  29
ENDBRANCH  25  27
ENDBRANCH   1  25
BRANCH   8  31
HETATM   31  N8  UNL     1      25.846  13.862  -2.826  1.00  0.00    -0.248 N
HETATM   32  N9  UNL     1      24.625  14.194  -2.631  1.00  0.00    -0.331 N
ATOM     33  H92 UNL     1      24.419  14.805  -1.840  1.00  0.00     0.178 HD
ATOM     34  H91 UNL     1      23.867  13.873  -3.234  1.00  0.00     0.178 HD
ATOM     35  H8  UNL     1      26.069  13.252  -3.612  1.00  0.00     0.207 HD
ENDBRANCH   8  31
TORSDOF 5
ENDMDL