MODEL 4
REMARK VINA RESULT: -8.292085697      3.033      5.344
REMARK  7 active torsions:
REMARK  status: ('A' for Active; 'I' for Inactive)
REMARK    1  A    between atoms: C5_15  and  N6_16
REMARK    2  A    between atoms: N7_19  and  C6_20
REMARK    3  A    between atoms: C6_20  and  C7_21
REMARK    4  A    between atoms: C7_21  and  O1_22
REMARK    5  A    between atoms: C7_21  and  C8_24
REMARK    6  A    between atoms: C8_24  and  O2_25
REMARK    7  A    between atoms: C9_27  and  N8_28
ROOT
HETATM    1  C1  UNL     1      26.514  14.912  -5.115  1.00  0.00     0.074 C
HETATM    2  C2  UNL     1      27.512  15.629  -4.283  1.00  0.00     0.067 A
HETATM    3  N1  UNL     1      28.682  15.963  -4.799  1.00  0.00    -0.287 N
ATOM      4  H1  UNL     1      28.871  15.716  -5.770  1.00  0.00     0.187 HD
HETATM    5  N2  UNL     1      29.618  16.600  -4.123  1.00  0.00    -0.130 N
ATOM      6  H2  UNL     1      30.504  16.833  -4.572  1.00  0.00     0.205 HD
HETATM    7  C3  UNL     1      29.396  16.948  -2.819  1.00  0.00     0.736 A
HETATM    8  N3  UNL     1      28.235  16.622  -2.284  1.00  0.00     0.042 N
HETATM    9  C4  UNL     1      27.940  16.904  -0.992  1.00  0.00     0.713 A
HETATM   10  N4  UNL     1      26.891  16.636  -0.426  1.00  0.00    -0.233 N
ATOM     11  H41 UNL     1      26.669  16.849   0.546  1.00  0.00     0.174 HD
ATOM     12  H42 UNL     1      26.158  16.158  -0.950  1.00  0.00     0.174 HD
HETATM   13  N5  UNL     1      28.929  17.548  -0.285  1.00  0.00    -0.021 N
ATOM     14  H5  UNL     1      28.759  17.783   0.693  1.00  0.00     0.203 HD
HETATM   15  C5  UNL     1      30.090  17.873  -0.825  1.00  0.00     0.707 A
HETATM   16  N7  UNL     1      30.338  17.575  -2.110  1.00  0.00    -0.009 N
HETATM   17  C9  UNL     1      27.248  15.966  -2.947  1.00  0.00     0.164 A
ENDROOT
BRANCH  16  18
HETATM   18  C6  UNL     1      31.579  17.982  -2.695  1.00  0.00     0.200 C
BRANCH  18  19
HETATM   19  C7  UNL     1      31.685  19.386  -3.169  1.00  0.00     0.161 C
BRANCH  19  20
HETATM   20  O1  UNL     1      32.198  20.273  -2.187  1.00  0.00    -0.392 OA
ATOM     21  H1  UNL     1      31.563  20.913  -1.889  1.00  0.00     0.210 HD
ENDBRANCH  19  20
BRANCH  19  22
HETATM   22  C8  UNL     1      30.430  20.041  -3.656  1.00  0.00     0.197 C
BRANCH  22  23
HETATM   23  O2  UNL     1      30.125  19.627  -4.974  1.00  0.00    -0.398 OA
ATOM     24  H2  UNL     1      29.185  19.587  -5.107  1.00  0.00     0.209 HD
ENDBRANCH  22  23
ENDBRANCH  19  22
ENDBRANCH  18  19
ENDBRANCH  16  18
BRANCH  15  25
HETATM   25  N6  UNL     1      30.967  18.455  -0.084  1.00  0.00    -0.233 N
ATOM     26  H62 UNL     1      31.817  17.978   0.217  1.00  0.00     0.174 HD
ATOM     27  H61 UNL     1      30.788  19.413   0.218  1.00  0.00     0.174 HD
ENDBRANCH  15  25
BRANCH  17  28
HETATM   28  N8  UNL     1      26.191  15.674  -2.457  1.00  0.00    -0.382 N
ATOM     29  H82 UNL     1      25.469  15.137  -2.938  1.00  0.00     0.157 HD
ATOM     30  H81 UNL     1      25.979  15.966  -1.502  1.00  0.00     0.157 HD
ENDBRANCH  17  28
TORSDOF 7
ENDMDL