MODEL 4
REMARK VINA RESULT: -7.383730143      1.785      6.370
REMARK  8 active torsions:
REMARK  status: ('A' for Active; 'I' for Inactive)
REMARK    1  A    between atoms: C2_2  and  N1_3
REMARK    2  A    between atoms: C2_2  and  C3_7
REMARK    3  A    between atoms: C3_7  and  N4_13
REMARK    4  A    between atoms: N2_8  and  N3_10
REMARK    5  A    between atoms: N4_13  and  N5_14
REMARK    6  A    between atoms: N4_13  and  N6_17
REMARK       I    between atoms: N6_17  and  C4_19
REMARK    7  A    between atoms: C4_19  and  C5_21
REMARK    8  A    between atoms: C7_26  and  N8_28
ROOT
HETATM    1  N6  UNL     1      28.467  17.077  -2.900  1.00  0.00    -0.244 N
ATOM      2  H6  UNL     1      28.610  16.950  -3.902  1.00  0.00     0.192 HD
HETATM    3  C4  UNL     1      28.731  18.314  -2.293  1.00  0.00     0.296 C
HETATM    4  O1  UNL     1      28.553  18.458  -1.060  1.00  0.00    -0.267 OA
ENDROOT
BRANCH   1   5
HETATM    5  N4  UNL     1      28.005  16.022  -2.113  1.00  0.00    -0.184 N
BRANCH   5   6
HETATM    6  C3  UNL     1      26.789  15.354  -2.393  1.00  0.00     0.166 C
HETATM    7  N2  UNL     1      25.687  15.922  -2.060  1.00  0.00    -0.291 N
ATOM      8  H2  UNL     1      24.802  15.450  -2.250  1.00  0.00     0.188 HD
BRANCH   6   9
HETATM    9  C2  UNL     1      26.790  14.042  -3.042  1.00  0.00     0.251 C
HETATM   10  C1  UNL     1      25.886  13.991  -4.257  1.00  0.00     0.048 C
BRANCH   9  11
HETATM   11  N1  UNL     1      26.437  12.948  -2.160  1.00  0.00    -0.068 N
ATOM     12  H13 UNL     1      26.043  13.269  -1.275  1.00  0.00     0.275 HD
ATOM     13  H12 UNL     1      25.626  12.424  -2.490  1.00  0.00     0.275 HD
ATOM     14  H11 UNL     1      27.258  12.357  -2.031  1.00  0.00     0.275 HD
ENDBRANCH   9  11
ENDBRANCH   6   9
BRANCH   7  15
HETATM   15  N3  UNL     1      25.677  17.168  -1.445  1.00  0.00    -0.344 N
ATOM     16  H32 UNL     1      26.554  17.530  -1.068  1.00  0.00     0.176 HD
ATOM     17  H31 UNL     1      24.819  17.712  -1.368  1.00  0.00     0.176 HD
ENDBRANCH   7  15
ENDBRANCH   5   6
BRANCH   5  18
HETATM   18  N5  UNL     1      28.810  15.656  -1.025  1.00  0.00    -0.322 N
ATOM     19  H52 UNL     1      29.371  16.396  -0.605  1.00  0.00     0.179 HD
ATOM     20  H51 UNL     1      28.832  14.698  -0.676  1.00  0.00     0.179 HD
ENDBRANCH   5  18
ENDBRANCH   1   5
BRANCH   3  21
HETATM   21  C5  UNL     1      29.224  19.506  -3.032  1.00  0.00     0.477 C
HETATM   22  N7  UNL     1      29.774  19.149  -4.324  1.00  0.00    -0.033 N
HETATM   23  C6  UNL     1      30.458  20.368  -4.709  1.00  0.00     0.304 C
ATOM     24  H72 UNL     1      30.352  18.309  -4.330  1.00  0.00     0.280 HD
ATOM     25  H71 UNL     1      29.095  18.803  -5.002  1.00  0.00     0.280 HD
HETATM   26  C7  UNL     1      31.152  20.720  -3.391  1.00  0.00     0.307 C
HETATM   27  C8  UNL     1      31.281  22.207  -3.345  1.00  0.00     0.080 C
HETATM   28  N9  UNL     1      30.308  20.161  -2.376  1.00  0.00    -0.001 N
ATOM     29  H92 UNL     1      29.999  20.851  -1.691  1.00  0.00     0.283 HD
ATOM     30  H91 UNL     1      30.811  19.550  -1.732  1.00  0.00     0.283 HD
BRANCH  26  31
HETATM   31  N8  UNL     1      32.467  20.126  -3.445  1.00  0.00    -0.043 N
ATOM     32  H83 UNL     1      32.996  20.236  -2.580  1.00  0.00     0.277 HD
ATOM     33  H82 UNL     1      32.449  19.106  -3.453  1.00  0.00     0.277 HD
ATOM     34  H81 UNL     1      32.936  20.527  -4.257  1.00  0.00     0.277 HD
ENDBRANCH  26  31
ENDBRANCH   3  21
TORSDOF 8
ENDMDL