MODEL 5
REMARK VINA RESULT: -8.733200018      2.401      6.639
REMARK  5 active torsions:
REMARK  status: ('A' for Active; 'I' for Inactive)
REMARK    1  A    between atoms: C3_4  and  C4_5
REMARK    2  A    between atoms: C4_5  and  N2_6
REMARK    3  A    between atoms: C4_5  and  N3_10
REMARK    4  A    between atoms: C7_17  and  O2_18
REMARK    5  A    between atoms: C7_17  and  O3_20
ROOT
HETATM    1  C4  UNL     1      29.206  17.007  -4.070  1.00  0.00     0.318 C
ENDROOT
BRANCH   1   2
HETATM    2  C3  UNL     1      27.926  16.520  -3.475  1.00  0.00    -0.000 A
HETATM    3  C2  UNL     1      27.347  17.141  -2.390  1.00  0.00     0.056 A
HETATM    4  C1  UNL     1      26.153  16.679  -1.844  1.00  0.00     0.119 A
HETATM    5  N1  UNL     1      25.608  17.373  -0.717  1.00  0.00    -0.083 NA
HETATM    6  N6  UNL     1      25.537  15.606  -2.373  1.00  0.00    -0.312 N
HETATM    7  C9  UNL     1      26.071  14.974  -3.430  1.00  0.00     0.247 A
ATOM      8  H6  UNL     1      24.663  15.271  -1.969  1.00  0.00     0.170 HD
HETATM    9  C8  UNL     1      27.256  15.424  -3.980  1.00  0.00     0.085 A
HETATM   10  O4  UNL     1      25.492  13.961  -3.932  1.00  0.00    -0.268 OA
ENDBRANCH   1   2
BRANCH   1  11
HETATM   11  N2  UNL     1      30.252  16.644  -3.121  1.00  0.00    -0.054 N
ATOM     12  H23 UNL     1      30.332  17.291  -2.337  1.00  0.00     0.277 HD
ATOM     13  H22 UNL     1      30.033  15.813  -2.572  1.00  0.00     0.277 HD
ATOM     14  H21 UNL     1      31.109  16.558  -3.667  1.00  0.00     0.277 HD
ENDBRANCH   1  11
BRANCH   1  15
HETATM   15  N3  UNL     1      29.207  18.434  -4.231  1.00  0.00    -0.331 N
HETATM   16  C5  UNL     1      30.226  19.183  -3.984  1.00  0.00     0.184 C
HETATM   17  N4  UNL     1      30.230  20.606  -4.145  1.00  0.00    -0.292 N
HETATM   18  N5  UNL     1      31.515  18.824  -3.523  1.00  0.00    -0.299 N
HETATM   19  C6  UNL     1      31.520  21.100  -3.780  1.00  0.00     0.310 C
ATOM     20  H4  UNL     1      29.444  21.171  -4.467  1.00  0.00     0.172 HD
HETATM   21  O1  UNL     1      32.005  22.241  -3.975  1.00  0.00    -0.265 OA
HETATM   22  C7  UNL     1      32.244  20.001  -3.098  1.00  0.00     0.333 C
ATOM     23  H5  UNL     1      31.879  17.872  -3.494  1.00  0.00     0.168 HD
ATOM     24  H3  UNL     1      28.351  18.880  -4.561  1.00  0.00     0.165 HD
BRANCH  22  25
HETATM   25  O2  UNL     1      33.554  19.873  -3.517  1.00  0.00    -0.341 OA
ATOM     26  H2  UNL     1      33.829  20.571  -4.100  1.00  0.00     0.215 HD
ENDBRANCH  22  25
BRANCH  22  27
HETATM   27  O3  UNL     1      32.184  20.188  -1.726  1.00  0.00    -0.341 OA
ATOM     28  H3  UNL     1      32.200  19.345  -1.289  1.00  0.00     0.215 HD
ENDBRANCH  22  27
ENDBRANCH   1  15
TORSDOF 5
ENDMDL