MODEL 1
REMARK VINA RESULT: -8.957395322      0.000      0.000
REMARK  6 active torsions:
REMARK  status: ('A' for Active; 'I' for Inactive)
REMARK    1  A    between atoms: N1_1  and  C1_4
REMARK    2  A    between atoms: C2_9  and  N4_10
REMARK    3  A    between atoms: N4_10  and  N5_12
REMARK    4  A    between atoms: C4_17  and  S1_18
REMARK    5  A    between atoms: S1_18  and  N7_21
REMARK    6  A    between atoms: N7_21  and  N8_23
ROOT
HETATM    1  N5  UNL     1      29.647  16.200  -2.925  1.00  0.00    -0.117 N
ATOM      2  H5  UNL     1      29.862  16.170  -3.921  1.00  0.00     0.206 HD
HETATM    3  C3  UNL     1      29.864  17.308  -2.304  1.00  0.00     0.700 A
HETATM    4  N6  UNL     1      30.358  18.336  -3.030  1.00  0.00    -0.163 N
ATOM      5  H6  UNL     1      30.536  18.193  -4.024  1.00  0.00     0.186 HD
HETATM    6  C4  UNL     1      30.622  19.533  -2.492  1.00  0.00     0.240 A
HETATM    7  N9  UNL     1      30.387  19.717  -1.186  1.00  0.00    -0.327 N
ATOM      8  H9  UNL     1      30.580  20.620  -0.752  1.00  0.00     0.168 HD
HETATM    9  C5  UNL     1      29.892  18.700  -0.447  1.00  0.00     0.200 A
HETATM   10  N10 UNL     1      29.622  17.479  -0.993  1.00  0.00    -0.186 N
ATOM     11  H10 UNL     1      29.248  16.719  -0.424  1.00  0.00     0.185 HD
ENDROOT
BRANCH   1  12
HETATM   12  N4  UNL     1      29.148  15.053  -2.349  1.00  0.00    -0.116 N
ATOM     13  H4  UNL     1      29.712  14.544  -1.669  1.00  0.00     0.206 HD
BRANCH  12  14
HETATM   14  C2  UNL     1      27.981  14.619  -2.659  1.00  0.00     0.726 A
HETATM   15  N3  UNL     1      27.199  13.887  -1.850  1.00  0.00    -0.116 N
HETATM   16  N2  UNL     1      26.066  13.613  -2.489  1.00  0.00    -0.117 N
ATOM     17  H3  UNL     1      27.435  13.591  -0.904  1.00  0.00     0.206 HD
HETATM   18  C1  UNL     1      26.145  14.180  -3.706  1.00  0.00     0.705 A
ATOM     19  H2  UNL     1      25.282  13.072  -2.125  1.00  0.00     0.206 HD
HETATM   20  N11 UNL     1      27.340  14.810  -3.816  1.00  0.00    -0.019 N
ATOM     21  H11 UNL     1      27.682  15.329  -4.624  1.00  0.00     0.203 HD
BRANCH  18  22
HETATM   22  N1  UNL     1      25.214  14.124  -4.620  1.00  0.00    -0.233 N
ATOM     23  H12 UNL     1      24.375  14.703  -4.664  1.00  0.00     0.174 HD
ATOM     24  H11 UNL     1      25.211  13.483  -5.413  1.00  0.00     0.174 HD
ENDBRANCH  18  22
ENDBRANCH  12  14
ENDBRANCH   1  12
BRANCH   6  25
HETATM   25  S1  UNL     1      31.259  20.788  -3.517  1.00  0.00     0.308 S
HETATM   26  O1  UNL     1      30.540  20.772  -4.835  1.00  0.00    -0.196 OA
HETATM   27  O2  UNL     1      32.725  20.528  -3.715  1.00  0.00    -0.196 OA
BRANCH  25  28
HETATM   28  N7  UNL     1      31.078  22.352  -2.792  1.00  0.00    -0.227 N
ATOM     29  H7  UNL     1      30.753  22.552  -1.847  1.00  0.00     0.199 HD
BRANCH  28  30
HETATM   30  N8  UNL     1      31.468  23.288  -3.763  1.00  0.00    -0.336 N
ATOM     31  H82 UNL     1      31.001  23.458  -4.653  1.00  0.00     0.177 HD
ATOM     32  H81 UNL     1      32.299  23.753  -3.398  1.00  0.00     0.177 HD
ENDBRANCH  28  30
ENDBRANCH  25  28
ENDBRANCH   6  25
TORSDOF 6
ENDMDL