MODEL 5
REMARK VINA RESULT: -7.189696119      2.277      3.181
REMARK  9 active torsions:
REMARK  status: ('A' for Active; 'I' for Inactive)
REMARK    1  A    between atoms: C4_10  and  C5_11
REMARK    2  A    between atoms: N6_13  and  O1_15
REMARK    3  A    between atoms: C7_18  and  C8_19
REMARK    4  A    between atoms: C8_19  and  O2_20
REMARK    5  A    between atoms: C8_19  and  C9_22
REMARK    6  A    between atoms: C9_22  and  N7_23
REMARK    7  A    between atoms: C9_22  and  C10_27
REMARK    8  A    between atoms: C10_27  and  O3_28
REMARK    9  A    between atoms: C10_27  and  C11_30
ROOT
HETATM    1  N1  UNL     1      30.425  19.653  10.249  1.00  0.00    -0.190 NA
HETATM    2  C1  UNL     1      29.964  18.886   9.552  1.00  0.00     0.120 C
HETATM    3  C2  UNL     1      29.412  17.946   8.643  1.00  0.00     0.144 A
HETATM    4  N2  UNL     1      29.947  17.626   7.431  1.00  0.00    -0.340 N
ATOM      5  H2  UNL     1      30.815  18.016   7.065  1.00  0.00     0.167 HD
HETATM    6  C3  UNL     1      29.201  16.753   6.797  1.00  0.00     0.208 A
HETATM    7  N3  UNL     1      28.150  16.492   7.612  1.00  0.00    -0.248 N
HETATM    8  N4  UNL     1      27.123  15.691   7.405  1.00  0.00    -0.289 N
ATOM      9  H4  UNL     1      27.089  15.170   6.529  1.00  0.00     0.188 HD
HETATM   10  C4  UNL     1      26.131  15.524   8.274  1.00  0.00     0.092 A
HETATM   11  C6  UNL     1      26.198  16.243   9.464  1.00  0.00     0.047 A
HETATM   12  C7  UNL     1      27.245  17.088   9.728  1.00  0.00     0.007 A
HETATM   13  C12 UNL     1      28.260  17.221   8.766  1.00  0.00     0.104 A
ENDROOT
BRANCH  12  14
HETATM   14  C8  UNL     1      27.388  17.843  10.968  1.00  0.00     0.187 C
BRANCH  14  15
HETATM   15  O2  UNL     1      26.687  17.168  11.981  1.00  0.00    -0.389 OA
ATOM     16  H2  UNL     1      25.874  17.632  12.143  1.00  0.00     0.210 HD
ENDBRANCH  14  15
BRANCH  14  17
HETATM   17  C9  UNL     1      26.805  19.228  10.980  1.00  0.00     0.253 C
BRANCH  17  18
HETATM   18  N7  UNL     1      25.361  19.140  11.362  1.00  0.00    -0.069 N
ATOM     19  H73 UNL     1      25.075  19.898  11.982  1.00  0.00     0.275 HD
ATOM     20  H72 UNL     1      24.739  19.352  10.582  1.00  0.00     0.275 HD
ATOM     21  H71 UNL     1      25.181  18.219  11.763  1.00  0.00     0.275 HD
ENDBRANCH  17  18
BRANCH  17  22
HETATM   22  C10 UNL     1      27.409  20.063  12.106  1.00  0.00     0.240 C
BRANCH  22  23
HETATM   23  O3  UNL     1      28.434  19.254  12.722  1.00  0.00    -0.384 OA
ATOM     24  H3  UNL     1      27.991  18.630  13.285  1.00  0.00     0.210 HD
ENDBRANCH  22  23
BRANCH  22  25
HETATM   25  C11 UNL     1      26.479  20.445  13.162  1.00  0.00     0.262 C
HETATM   26  N8  UNL     1      25.862  19.607  14.115  1.00  0.00    -0.060 NA
HETATM   27  O4  UNL     1      26.155  21.684  13.271  1.00  0.00    -0.274 OA
ENDBRANCH  22  25
ENDBRANCH  17  22
ENDBRANCH  14  17
ENDBRANCH  12  14
BRANCH  10  28
HETATM   28  C5  UNL     1      25.019  14.633   8.009  1.00  0.00     0.164 C
HETATM   29  N5  UNL     1      24.633  13.699   8.996  1.00  0.00    -0.078 NA
HETATM   30  N6  UNL     1      24.391  14.685   6.906  1.00  0.00    -0.253 N
ATOM     31  H6  UNL     1      23.611  14.050   6.737  1.00  0.00     0.195 HD
BRANCH  30  32
HETATM   32  O1  UNL     1      24.752  15.584   5.941  1.00  0.00    -0.288 OA
ATOM     33  H1  UNL     1      24.137  15.841   5.265  1.00  0.00     0.244 HD
ENDBRANCH  30  32
ENDBRANCH  10  28
TORSDOF 9
ENDMDL