MODEL 1
REMARK VINA RESULT: -8.088403428      0.000      0.000
REMARK  8 active torsions:
REMARK  status: ('A' for Active; 'I' for Inactive)
REMARK    1  A    between atoms: C2_2  and  N1_3
REMARK    2  A    between atoms: C2_2  and  C3_7
REMARK       I    between atoms: C3_7  and  N2_9
REMARK    3  A    between atoms: N2_9  and  C4_11
REMARK    4  A    between atoms: C4_11  and  C6_13
REMARK    5  A    between atoms: C6_13  and  O2_15
REMARK    6  A    between atoms: O2_15  and  N3_16
REMARK    7  A    between atoms: C8_17  and  N4_18
REMARK    8  A    between atoms: N8_28  and  O3_30
ROOT
HETATM    1  N3  UNL     1      26.481  15.755   8.658  1.00  0.00    -0.124 NA
HETATM    2  C8  UNL     1      27.398  15.911   7.588  1.00  0.00     0.389 C
HETATM    3  N5  UNL     1      28.643  16.532   7.867  1.00  0.00    -0.323 N
ATOM      4  H5  UNL     1      29.364  16.488   7.147  1.00  0.00     0.165 HD
HETATM    5  C9  UNL     1      28.922  17.136   8.941  1.00  0.00     0.196 C
HETATM    6  N6  UNL     1      30.180  17.757   9.204  1.00  0.00    -0.063 NA
HETATM    7  N7  UNL     1      27.924  17.203   9.961  1.00  0.00    -0.289 N
HETATM    8  C10 UNL     1      27.818  18.035  11.109  1.00  0.00     0.107 C
HETATM    9  N8  UNL     1      28.820  18.553  11.778  1.00  0.00    -0.257 N
ATOM     10  H8  UNL     1      29.789  18.384  11.505  1.00  0.00     0.195 HD
HETATM   11  C11 UNL     1      26.370  18.190  11.386  1.00  0.00     0.082 C
HETATM   12  C12 UNL     1      25.694  17.190  10.485  1.00  0.00     0.051 C
HETATM   13  C13 UNL     1      26.814  16.323   9.914  1.00  0.00     0.199 C
ENDROOT
BRANCH   1  14
HETATM   14  O2  UNL     1      26.049  14.495   8.717  1.00  0.00    -0.291 OA
BRANCH  14  15
HETATM   15  C6  UNL     1      24.712  14.346   8.374  1.00  0.00     0.164 C
HETATM   16  C7  UNL     1      24.527  14.096   6.895  1.00  0.00     0.044 C
BRANCH  15  17
HETATM   17  C4  UNL     1      24.173  13.134   9.103  1.00  0.00     0.111 C
HETATM   18  C5  UNL     1      22.708  12.999   8.734  1.00  0.00     0.035 C
BRANCH  17  19
HETATM   19  N2  UNL     1      24.833  11.919   8.703  1.00  0.00    -0.353 N
HETATM   20  C3  UNL     1      24.997  10.807   9.577  1.00  0.00     0.248 C
HETATM   21  O1  UNL     1      24.573  10.815  10.761  1.00  0.00    -0.271 OA
ATOM     22  H2  UNL     1      25.199  11.851   7.754  1.00  0.00     0.163 HD
BRANCH  20  23
HETATM   23  C2  UNL     1      25.684   9.578   9.114  1.00  0.00     0.270 C
HETATM   24  C1  UNL     1      27.176   9.711   9.365  1.00  0.00     0.050 C
BRANCH  23  25
HETATM   25  N1  UNL     1      25.211   8.449   9.879  1.00  0.00    -0.067 N
ATOM     26  H13 UNL     1      25.906   7.706   9.961  1.00  0.00     0.275 HD
ATOM     27  H12 UNL     1      25.117   8.655  10.873  1.00  0.00     0.275 HD
ATOM     28  H11 UNL     1      24.339   8.133   9.454  1.00  0.00     0.275 HD
ENDBRANCH  23  25
ENDBRANCH  20  23
ENDBRANCH  17  19
ENDBRANCH  15  17
ENDBRANCH  14  15
ENDBRANCH   1  14
BRANCH   2  29
HETATM   29  N4  UNL     1      26.807  16.647   6.457  1.00  0.00    -0.043 N
ATOM     30  H43 UNL     1      26.215  16.041   5.889  1.00  0.00     0.278 HD
ATOM     31  H42 UNL     1      26.099  17.310   6.775  1.00  0.00     0.278 HD
ATOM     32  H41 UNL     1      27.517  17.109   5.889  1.00  0.00     0.278 HD
ENDBRANCH   2  29
BRANCH   9  33
HETATM   33  O3  UNL     1      28.509  19.328  12.856  1.00  0.00    -0.288 OA
ATOM     34  H3  UNL     1      28.947  19.125  13.674  1.00  0.00     0.244 HD
ENDBRANCH   9  33
TORSDOF 8
ENDMDL