MODEL 5
REMARK VINA RESULT: -8.298119952      2.581      3.069
REMARK  8 active torsions:
REMARK  status: ('A' for Active; 'I' for Inactive)
REMARK    1  A    between atoms: C2_2  and  N1_3
REMARK    2  A    between atoms: C2_2  and  N2_7
REMARK    3  A    between atoms: C2_2  and  S1_30
REMARK       I    between atoms: N2_7  and  C3_9
REMARK    4  A    between atoms: C3_9  and  C4_11
REMARK    5  A    between atoms: C4_11  and  O2_12
REMARK    6  A    between atoms: C4_11  and  C5_14
REMARK    7  A    between atoms: N5_18  and  C6_19
REMARK    8  A    between atoms: S1_30  and  N10_32
ROOT
HETATM    1  C4  UNL     1      23.357  12.652   9.479  1.00  0.00     0.279 C
ENDROOT
BRANCH   1   2
HETATM    2  C3  UNL     1      24.292  13.317   8.577  1.00  0.00     0.256 C
HETATM    3  N2  UNL     1      24.824  14.581   8.943  1.00  0.00    -0.315 N
ATOM      4  H2  UNL     1      24.554  15.014   9.826  1.00  0.00     0.166 HD
HETATM    5  O1  UNL     1      24.595  12.749   7.501  1.00  0.00    -0.270 OA
BRANCH   3   6
HETATM    6  C2  UNL     1      25.756  15.255   8.054  1.00  0.00     0.277 C
HETATM    7  C1  UNL     1      25.020  15.532   6.767  1.00  0.00     0.087 C
BRANCH   6   8
HETATM    8  N1  UNL     1      26.846  14.340   7.790  1.00  0.00    -0.040 N
ATOM      9  H13 UNL     1      27.136  14.355   6.812  1.00  0.00     0.278 HD
ATOM     10  H12 UNL     1      27.724  14.652   8.204  1.00  0.00     0.278 HD
ATOM     11  H11 UNL     1      26.580  13.405   8.102  1.00  0.00     0.278 HD
ENDBRANCH   6   8
BRANCH   6  12
HETATM   12  S1  UNL     1      26.346  16.766   8.722  1.00  0.00     0.069 S
HETATM   13  C8  UNL     1      28.096  16.909   8.656  1.00  0.00     0.141 C
HETATM   14  O4  UNL     1      25.748  17.896   7.944  1.00  0.00    -0.246 OA
BRANCH  12  15
HETATM   15  N10 UNL     1      25.871  16.857  10.213  1.00  0.00    -0.357 N
ATOM     16 2H10 UNL     1      26.412  16.553  11.022  1.00  0.00     0.165 HD
ATOM     17 1H10 UNL     1      24.938  17.268  10.223  1.00  0.00     0.165 HD
ENDBRANCH  12  15
ENDBRANCH   6  12
ENDBRANCH   3   6
ENDBRANCH   1   2
BRANCH   1  18
HETATM   18  O2  UNL     1      22.025  12.864   9.152  1.00  0.00    -0.378 OA
ATOM     19  H2  UNL     1      21.511  13.220   9.867  1.00  0.00     0.211 HD
ENDBRANCH   1  18
BRANCH   1  20
HETATM   20  C5  UNL     1      23.586  11.172   9.458  1.00  0.00     0.149 A
HETATM   21  N3  UNL     1      24.763  10.524   9.385  1.00  0.00    -0.267 N
HETATM   22  N4  UNL     1      24.518   9.224   9.394  1.00  0.00     0.018 NA
ATOM     23  H3  UNL     1      25.684  10.959   9.331  1.00  0.00     0.185 HD
HETATM   24  N5  UNL     1      23.202   8.996   9.472  1.00  0.00    -0.002 N
HETATM   25  N9  UNL     1      22.657  10.202   9.510  1.00  0.00    -0.251 N
ATOM     26  H9  UNL     1      21.653  10.375   9.573  1.00  0.00     0.191 HD
BRANCH  24  27
HETATM   27  C6  UNL     1      22.567   7.726   9.504  1.00  0.00     0.736 A
HETATM   28  N6  UNL     1      21.667   7.254   8.633  1.00  0.00    -0.136 N
HETATM   29  C7  UNL     1      21.288   5.999   8.995  1.00  0.00     0.353 A
ATOM     30  H6  UNL     1      21.318   7.759   7.819  1.00  0.00     0.189 HD
HETATM   31  O3  UNL     1      20.451   5.250   8.397  1.00  0.00    -0.245 OA
HETATM   32  N7  UNL     1      21.970   5.710  10.104  1.00  0.00    -0.236 N
HETATM   33  N8  UNL     1      22.743   6.754  10.411  1.00  0.00    -0.125 N
ATOM     34  H7  UNL     1      21.912   4.837  10.629  1.00  0.00     0.192 HD
ATOM     35  H8  UNL     1      23.371   6.804  11.213  1.00  0.00     0.206 HD
ENDBRANCH  24  27
ENDBRANCH   1  20
TORSDOF 8
ENDMDL