MODEL 5
REMARK VINA RESULT: -7.143384834      1.197      1.316
REMARK  5 active torsions:
REMARK  status: ('A' for Active; 'I' for Inactive)
REMARK       I    between atoms: C2_2  and  N1_4
REMARK    1  A    between atoms: N1_4  and  C3_6
REMARK    2  A    between atoms: C3_6  and  C4_7
REMARK    3  A    between atoms: C3_6  and  C6_20
REMARK       I    between atoms: C4_7  and  N2_9
REMARK       I    between atoms: N2_9  and  C5_11
REMARK       I    between atoms: C5_11  and  N3_12
REMARK       I    between atoms: C5_11  and  N4_16
REMARK    4  A    between atoms: C7_23  and  C8_24
REMARK    5  A    between atoms: C9_33  and  O3_34
ROOT
HETATM    1  C3  UNL     1      25.489  15.331   7.638  1.00  0.00     0.193 C
ENDROOT
BRANCH   1   2
HETATM    2  N1  UNL     1      26.733  15.268   8.334  1.00  0.00    -0.347 N
HETATM    3  C2  UNL     1      27.056  15.703   9.604  1.00  0.00     0.214 C
HETATM    4  C1  UNL     1      28.413  15.544  10.146  1.00  0.00     0.117 C
HETATM    5  O1  UNL     1      26.177  16.243  10.308  1.00  0.00    -0.274 OA
ATOM      6  H1  UNL     1      27.499  14.836   7.816  1.00  0.00     0.163 HD
ENDBRANCH   1   2
BRANCH   1   7
HETATM    7  C4  UNL     1      25.671  16.133   6.410  1.00  0.00     0.244 C
HETATM    8  O2  UNL     1      26.591  16.981   6.327  1.00  0.00    -0.271 OA
HETATM    9  N2  UNL     1      24.849  16.015   5.258  1.00  0.00    -0.310 N
HETATM   10  C5  UNL     1      25.008  16.777   4.066  1.00  0.00     0.482 C
ATOM     11  H2  UNL     1      24.088  15.335   5.287  1.00  0.00     0.166 HD
HETATM   12  N3  UNL     1      23.786  17.557   3.818  1.00  0.00    -0.033 N
HETATM   13  N4  UNL     1      25.296  15.926   2.926  1.00  0.00    -0.033 N
ATOM     14  H33 UNL     1      22.953  16.970   3.792  1.00  0.00     0.278 HD
ATOM     15  H32 UNL     1      23.531  18.138   4.616  1.00  0.00     0.278 HD
ATOM     16  H31 UNL     1      23.901  18.103   2.963  1.00  0.00     0.278 HD
ATOM     17  H43 UNL     1      26.106  15.332   3.100  1.00  0.00     0.278 HD
ATOM     18  H42 UNL     1      24.588  15.200   2.813  1.00  0.00     0.278 HD
ATOM     19  H41 UNL     1      25.411  16.472   2.072  1.00  0.00     0.278 HD
ENDBRANCH   1   7
BRANCH   1  20
HETATM   20  C6  UNL     1      24.805  14.066   7.343  1.00  0.00     0.120 C
HETATM   21  S1  UNL     1      23.021  14.112   7.703  1.00  0.00    -0.087 SA
HETATM   22  S2  UNL     1      23.087  12.623   9.264  1.00  0.00    -0.082 SA
HETATM   23  C7  UNL     1      24.896  12.374   9.164  1.00  0.00     0.159 C
HETATM   24  C9  UNL     1      25.366  12.815   7.859  1.00  0.00     0.157 C
BRANCH  23  25
HETATM   25  C8  UNL     1      25.081  10.894   9.283  1.00  0.00     0.130 A
HETATM   26  N5  UNL     1      26.252  10.231   9.295  1.00  0.00    -0.271 N
HETATM   27  N6  UNL     1      26.056   8.931   9.414  1.00  0.00    -0.227 N
ATOM     28  H5  UNL     1      27.168  10.674   9.223  1.00  0.00     0.190 HD
HETATM   29  N7  UNL     1      24.748   8.769   9.478  1.00  0.00    -0.227 N
ATOM     30  H6  UNL     1      26.769   8.202   9.448  1.00  0.00     0.210 HD
HETATM   31  N8  UNL     1      24.142   9.942   9.401  1.00  0.00    -0.271 N
ATOM     32  H7  UNL     1      24.275   7.871   9.573  1.00  0.00     0.210 HD
ATOM     33  H8  UNL     1      23.134  10.096   9.426  1.00  0.00     0.190 HD
ENDBRANCH  23  25
BRANCH  24  34
HETATM   34  O3  UNL     1      25.282  11.758   6.919  1.00  0.00    -0.393 OA
ATOM     35  H3  UNL     1      25.712  10.968   7.225  1.00  0.00     0.210 HD
ENDBRANCH  24  34
ENDBRANCH   1  20
TORSDOF 5
ENDMDL