MODEL 2
REMARK VINA RESULT: -9.268831061      1.809      3.579
REMARK  8 active torsions:
REMARK  status: ('A' for Active; 'I' for Inactive)
REMARK    1  A    between atoms: N1_1  and  N2_4
REMARK    2  A    between atoms: N2_4  and  N3_6
REMARK    3  A    between atoms: N3_6  and  C1_8
REMARK    4  A    between atoms: C2_11  and  C3_12
REMARK    5  A    between atoms: C3_12  and  N5_13
REMARK    6  A    between atoms: N5_13  and  C4_16
REMARK    7  A    between atoms: C4_16  and  C5_17
REMARK    8  A    between atoms: C9_22  and  N7_23
ROOT
HETATM    1  C1  UNL     1      24.660  14.598   5.449  1.00  0.00     0.697 C
HETATM    2  N4  UNL     1      24.881  13.660   6.288  1.00  0.00    -0.212 N
ATOM      3  H4  UNL     1      24.765  12.733   5.878  1.00  0.00     0.178 HD
HETATM    4  C2  UNL     1      25.256  13.606   7.669  1.00  0.00     0.190 C
HETATM    5  C10 UNL     1      26.191  14.712   8.062  1.00  0.00     0.120 C
HETATM    6  N9  UNL     1      27.135  14.342   9.064  1.00  0.00    -0.085 NA
HETATM    7  N10 UNL     1      26.221  15.906   7.608  1.00  0.00    -0.320 N
ATOM      8  H10 UNL     1      26.945  16.492   8.023  1.00  0.00     0.169 HD
HETATM    9  C11 UNL     1      25.423  16.571   6.621  1.00  0.00     0.208 C
HETATM   10  N11 UNL     1      25.427  17.970   6.726  1.00  0.00    -0.063 NA
HETATM   11  N12 UNL     1      24.732  16.017   5.671  1.00  0.00    -0.162 N
ATOM     12  H12 UNL     1      24.209  16.627   5.042  1.00  0.00     0.187 HD
ENDROOT
BRANCH   4  13
HETATM   13  C3  UNL     1      23.998  13.664   8.516  1.00  0.00     0.265 C
BRANCH  13  14
HETATM   14  N5  UNL     1      23.866  12.445   9.260  1.00  0.00    -0.068 N
ATOM     15  H52 UNL     1      24.499  12.414  10.058  1.00  0.00     0.277 HD
ATOM     16  H51 UNL     1      22.982  12.402   9.768  1.00  0.00     0.277 HD
BRANCH  14  17
HETATM   17  C4  UNL     1      24.041  11.314   8.388  1.00  0.00     0.289 C
BRANCH  17  18
HETATM   18  C5  UNL     1      24.747  10.174   9.028  1.00  0.00     0.036 A
HETATM   19  C6  UNL     1      24.061   9.099   9.562  1.00  0.00     0.029 A
HETATM   20  C7  UNL     1      24.730   8.030  10.129  1.00  0.00     0.033 A
HETATM   21  C8  UNL     1      26.109   8.007  10.178  1.00  0.00     0.096 A
HETATM   22  N6  UNL     1      26.837   6.913  10.751  1.00  0.00    -0.098 NA
HETATM   23  C9  UNL     1      26.771   9.103   9.638  1.00  0.00     0.198 A
HETATM   24  N8  UNL     1      26.082  10.132   9.091  1.00  0.00    -0.338 N
ATOM     25  H8  UNL     1      26.609  10.916   8.707  1.00  0.00     0.167 HD
BRANCH  23  26
HETATM   26  N7  UNL     1      28.181   9.105   9.671  1.00  0.00    -0.096 N
HETATM   27  O1  UNL     1      28.770   9.584  10.652  1.00  0.00    -0.530 OA
HETATM   28  O2  UNL     1      28.902   8.583   8.624  1.00  0.00    -0.530 OA
ENDBRANCH  23  26
ENDBRANCH  17  18
ENDBRANCH  14  17
ENDBRANCH  13  14
ENDBRANCH   4  13
BRANCH   1  29
HETATM   29  N3  UNL     1      24.301  14.173   4.143  1.00  0.00    -0.118 N
ATOM     30  H3  UNL     1      24.063  13.195   3.978  1.00  0.00     0.207 HD
BRANCH  29  31
HETATM   31  N2  UNL     1      24.273  15.074   3.092  1.00  0.00    -0.235 N
ATOM     32  H2  UNL     1      23.391  15.497   2.802  1.00  0.00     0.208 HD
BRANCH  31  33
HETATM   33  N1  UNL     1      25.369  15.373   2.483  1.00  0.00    -0.330 N
ATOM     34  H12 UNL     1      26.259  15.079   2.885  1.00  0.00     0.178 HD
ATOM     35  H11 UNL     1      25.330  15.900   1.610  1.00  0.00     0.178 HD
ENDBRANCH  31  33
ENDBRANCH  29  31
ENDBRANCH   1  29
TORSDOF 8
ENDMDL