MODEL 2
REMARK VINA RESULT: -7.384047868      2.189      3.795
REMARK  9 active torsions:
REMARK  status: ('A' for Active; 'I' for Inactive)
REMARK       I    between atoms: C2_2  and  N1_4
REMARK    1  A    between atoms: N1_4  and  N2_6
REMARK    2  A    between atoms: N2_6  and  C3_8
REMARK    3  A    between atoms: C3_8  and  C4_9
REMARK    4  A    between atoms: C3_8  and  C7_20
REMARK    5  A    between atoms: C5_14  and  C6_15
REMARK    6  A    between atoms: C8_26  and  C9_27
REMARK    7  A    between atoms: C9_27  and  O3_28
REMARK    8  A    between atoms: C9_27  and  N9_30
REMARK    9  A    between atoms: N9_30  and  N10_32
ROOT
HETATM    1  C3  UNL     1      27.727  17.246   8.986  1.00  0.00     0.220 C
ENDROOT
BRANCH   1   2
HETATM    2  N2  UNL     1      28.822  16.662   9.675  1.00  0.00    -0.316 N
ATOM      3  H2  UNL     1      28.652  15.969  10.404  1.00  0.00     0.181 HD
BRANCH   2   4
HETATM    4  N1  UNL     1      30.088  17.020   9.370  1.00  0.00    -0.274 N
HETATM    5  C2  UNL     1      30.772  18.235   9.444  1.00  0.00     0.231 C
HETATM    6  C1  UNL     1      32.225  18.327   9.017  1.00  0.00     0.119 C
HETATM    7  O1  UNL     1      30.238  19.279   9.854  1.00  0.00    -0.272 OA
ATOM      8  H1  UNL     1      30.657  16.250   9.015  1.00  0.00     0.189 HD
ENDBRANCH   2   4
ENDBRANCH   1   2
BRANCH   1   9
HETATM    9  C4  UNL     1      26.900  17.923  10.061  1.00  0.00     0.128 A
HETATM   10  N3  UNL     1      25.567  17.776  10.236  1.00  0.00    -0.285 N
HETATM   11  N4  UNL     1      25.237  18.553  11.238  1.00  0.00    -0.280 N
ATOM     12  H3  UNL     1      24.942  17.179   9.694  1.00  0.00     0.188 HD
HETATM   13  C5  UNL     1      26.340  19.192  11.702  1.00  0.00     0.188 A
ATOM     14  H4  UNL     1      24.295  18.661  11.612  1.00  0.00     0.188 HD
HETATM   15  N6  UNL     1      27.386  18.778  10.944  1.00  0.00    -0.324 N
ATOM     16  H6  UNL     1      28.358  19.070  11.037  1.00  0.00     0.169 HD
BRANCH  13  17
HETATM   17  C6  UNL     1      26.332  20.125  12.799  1.00  0.00     0.300 C
HETATM   18  N5  UNL     1      25.676  19.757  14.007  1.00  0.00    -0.054 NA
HETATM   19  O2  UNL     1      26.905  21.254  12.678  1.00  0.00    -0.268 OA
ENDBRANCH  13  17
ENDBRANCH   1   9
BRANCH   1  20
HETATM   20  C7  UNL     1      26.802  16.214   8.342  1.00  0.00     0.080 A
HETATM   21  N7  UNL     1      26.722  15.017   8.984  1.00  0.00    -0.311 N
HETATM   22  S1  UNL     1      25.629  14.126   8.108  1.00  0.00     0.068 SA
ATOM     23  H7  UNL     1      27.226  14.728   9.823  1.00  0.00     0.175 HD
HETATM   24  N8  UNL     1      25.273  15.248   6.945  1.00  0.00    -0.307 N
HETATM   25  C8  UNL     1      26.036  16.357   7.253  1.00  0.00     0.118 A
ATOM     26  H8  UNL     1      24.625  15.142   6.164  1.00  0.00     0.176 HD
BRANCH  25  27
HETATM   27  C9  UNL     1      25.887  17.501   6.335  1.00  0.00     0.184 C
BRANCH  27  28
HETATM   28  O3  UNL     1      26.938  17.856   5.636  1.00  0.00    -0.343 OA
ATOM     29  H3  UNL     1      26.894  18.681   5.165  1.00  0.00     0.219 HD
ENDBRANCH  27  28
BRANCH  27  30
HETATM   30  N9  UNL     1      24.802  18.308   6.059  1.00  0.00    -0.285 N
ATOM     31  H9  UNL     1      24.713  19.197   6.551  1.00  0.00     0.188 HD
BRANCH  30  32
HETATM   32  N10 UNL     1      23.792  17.943   5.100  1.00  0.00    -0.343 N
ATOM     33 2H10 UNL     1      24.089  17.436   4.266  1.00  0.00     0.176 HD
ATOM     34 1H10 UNL     1      22.807  18.174   5.228  1.00  0.00     0.176 HD
ENDBRANCH  30  32
ENDBRANCH  27  30
ENDBRANCH  25  27
ENDBRANCH   1  20
TORSDOF 9
ENDMDL