MODEL 4
REMARK VINA RESULT: -7.744833649      4.337      8.417
REMARK  9 active torsions:
REMARK  status: ('A' for Active; 'I' for Inactive)
REMARK    1  A    between atoms: N5_15  and  C7_16
REMARK    2  A    between atoms: N6_19  and  C10_20
REMARK    3  A    between atoms: C10_20  and  O1_21
REMARK    4  A    between atoms: C10_20  and  N7_23
REMARK    5  A    between atoms: N7_23  and  C11_26
REMARK    6  A    between atoms: C11_26  and  C12_27
REMARK    7  A    between atoms: C12_27  and  O2_28
REMARK    8  A    between atoms: C12_27  and  N8_30
REMARK    9  A    between atoms: N8_30  and  O3_31
ROOT
HETATM    1  C7  UNL     1      24.975  14.405   8.173  1.00  0.00     0.045 C
HETATM    2  C8  UNL     1      25.896  15.081   8.810  1.00  0.00     0.030 C
HETATM    3  C9  UNL     1      26.366  16.268   8.042  1.00  0.00     0.308 C
HETATM    4  N6  UNL     1      25.781  16.086   6.751  1.00  0.00     0.153 N
HETATM    5  C13 UNL     1      24.751  15.116   6.876  1.00  0.00     0.335 C
ENDROOT
BRANCH   1   6
HETATM    6  N5  UNL     1      24.284  13.221   8.572  1.00  0.00    -0.294 N
HETATM    7  C4  UNL     1      24.766  11.984   8.770  1.00  0.00     0.145 A
HETATM    8  N3  UNL     1      25.992  11.457   8.669  1.00  0.00    -0.336 N
HETATM    9  C5  UNL     1      23.752  11.121   9.154  1.00  0.00     0.122 A
HETATM   10  C3  UNL     1      26.253  10.159   8.922  1.00  0.00     0.183 A
ATOM     11  H3  UNL     1      26.762  12.063   8.387  1.00  0.00     0.168 HD
HETATM   12  N2  UNL     1      25.252   9.357   9.289  1.00  0.00    -0.337 N
HETATM   13  C2  UNL     1      23.974   9.788   9.422  1.00  0.00     0.132 A
ATOM     14  H2  UNL     1      25.458   8.375   9.478  1.00  0.00     0.168 HD
HETATM   15  N1  UNL     1      23.050   8.978   9.776  1.00  0.00    -0.379 N
HETATM   16  C1  UNL     1      23.363   7.597  10.039  1.00  0.00     0.147 C
ATOM     17  H1  UNL     1      22.091   9.310   9.874  1.00  0.00     0.160 HD
HETATM   18  N4  UNL     1      22.641  11.873   9.181  1.00  0.00    -0.346 N
HETATM   19  C6  UNL     1      22.967  13.120   8.834  1.00  0.00     0.191 A
ATOM     20  H4  UNL     1      21.706  11.548   9.425  1.00  0.00     0.167 HD
ENDBRANCH   1   6
BRANCH   4  21
HETATM   21  C10 UNL     1      25.395  17.321   6.157  1.00  0.00     0.560 C
BRANCH  21  22
HETATM   22  O1  UNL     1      25.112  18.264   7.126  1.00  0.00    -0.347 OA
ATOM     23  H1  UNL     1      25.449  19.117   6.876  1.00  0.00     0.214 HD
ENDBRANCH  21  22
BRANCH  21  24
HETATM   24  N7  UNL     1      24.285  17.206   5.245  1.00  0.00    -0.017 N
ATOM     25  H72 UNL     1      23.934  16.249   5.223  1.00  0.00     0.282 HD
ATOM     26  H71 UNL     1      23.462  17.682   5.616  1.00  0.00     0.282 HD
BRANCH  24  27
HETATM   27  C11 UNL     1      24.580  17.665   3.925  1.00  0.00     0.288 C
BRANCH  27  28
HETATM   28  C12 UNL     1      25.819  16.894   3.452  1.00  0.00     0.264 C
BRANCH  28  29
HETATM   29  O2  UNL     1      26.551  17.715   2.616  1.00  0.00    -0.376 OA
ATOM     30  H2  UNL     1      25.978  18.399   2.288  1.00  0.00     0.211 HD
ENDBRANCH  28  29
BRANCH  28  31
HETATM   31  N8  UNL     1      25.409  15.701   2.739  1.00  0.00    -0.070 NA
BRANCH  31  32
HETATM   32  O3  UNL     1      24.586  14.929   3.475  1.00  0.00    -0.294 OA
ATOM     33  H3  UNL     1      24.940  14.058   3.611  1.00  0.00     0.238 HD
ENDBRANCH  31  32
ENDBRANCH  28  31
ENDBRANCH  27  28
ENDBRANCH  24  27
ENDBRANCH  21  24
ENDBRANCH   4  21
TORSDOF 9
ENDMDL