MODEL 1
REMARK VINA RESULT: -8.694984216      0.000      0.000
REMARK  7 active torsions:
REMARK  status: ('A' for Active; 'I' for Inactive)
REMARK    1  A    between atoms: N1_2  and  N2_3
REMARK    2  A    between atoms: N2_3  and  C3_5
REMARK    3  A    between atoms: N5_13  and  C7_15
REMARK    4  A    between atoms: C7_15  and  C8_16
REMARK    5  A    between atoms: C9_19  and  N7_20
REMARK    6  A    between atoms: C10_25  and  N9_26
REMARK    7  A    between atoms: C11_29  and  N10_30
ROOT
HETATM    1  C8  UNL     1      27.825  15.865   8.645  1.00  0.00     0.081 A
HETATM    2  N6  UNL     1      29.072  15.426   8.282  1.00  0.00    -0.192 N
ATOM      3  H6  UNL     1      29.161  14.774   7.502  1.00  0.00     0.184 HD
HETATM    4  C9  UNL     1      30.174  15.828   8.920  1.00  0.00     0.677 A
HETATM    5  N8  UNL     1      30.033  16.675   9.928  1.00  0.00    -0.175 N
ATOM      6  H8  UNL     1      30.869  16.988  10.421  1.00  0.00     0.186 HD
HETATM    7  C10 UNL     1      28.802  17.157  10.344  1.00  0.00     0.150 A
HETATM    8  C11 UNL     1      27.651  16.748   9.692  1.00  0.00     0.171 A
ENDROOT
BRANCH   1   9
HETATM    9  C7  UNL     1      26.632  15.378   7.881  1.00  0.00     0.181 C
BRANCH   9  10
HETATM   10  N5  UNL     1      26.484  13.981   8.224  1.00  0.00    -0.366 N
HETATM   11  C6  UNL     1      25.410  13.294   8.246  1.00  0.00     0.187 A
HETATM   12  C5  UNL     1      24.184  13.824   7.925  1.00  0.00     0.306 A
HETATM   13  N11 UNL     1      25.474  11.984   8.637  1.00  0.00    -0.169 N
HETATM   14  N4  UNL     1      23.109  13.009   8.016  1.00  0.00    -0.244 N
HETATM   15  O1  UNL     1      24.020  15.010   7.557  1.00  0.00    -0.262 OA
HETATM   16  N3  UNL     1      23.198  11.745   8.396  1.00  0.00    -0.126 N
HETATM   17  C4  UNL     1      21.801  13.544   7.690  1.00  0.00     0.182 C
HETATM   18  C3  UNL     1      24.403  11.198   8.721  1.00  0.00     0.712 A
ATOM     19  H3  UNL     1      22.354  11.174   8.447  1.00  0.00     0.206 HD
ATOM     20  H11 UNL     1      26.384  11.591   8.876  1.00  0.00     0.186 HD
ATOM     21  H5  UNL     1      27.339  13.487   8.478  1.00  0.00     0.161 HD
BRANCH  18  22
HETATM   22  N2  UNL     1      24.414   9.850   9.141  1.00  0.00    -0.132 N
HETATM   23  C2  UNL     1      23.188   9.115   9.411  1.00  0.00     0.192 C
BRANCH  22  24
HETATM   24  N1  UNL     1      25.635   9.193   9.297  1.00  0.00    -0.129 NA
HETATM   25  C1  UNL     1      25.492   7.977  10.078  1.00  0.00     0.159 C
ENDBRANCH  22  24
ENDBRANCH  18  22
ENDBRANCH   9  10
ENDBRANCH   1   9
BRANCH   8  26
HETATM   26  N10 UNL     1      26.345  17.164  10.045  1.00  0.00    -0.110 N
HETATM   27  O2  UNL     1      25.730  16.741  11.047  1.00  0.00    -0.532 OA
HETATM   28  O3  UNL     1      25.602  18.069   9.321  1.00  0.00    -0.532 OA
ENDBRANCH   8  26
BRANCH   4  29
HETATM   29  N7  UNL     1      31.325  15.372   8.525  1.00  0.00    -0.234 N
ATOM     30  H72 UNL     1      31.527  15.118   7.558  1.00  0.00     0.174 HD
ATOM     31  H71 UNL     1      32.070  15.260   9.213  1.00  0.00     0.174 HD
ENDBRANCH   4  29
BRANCH   7  32
HETATM   32  N9  UNL     1      28.774  17.952  11.307  1.00  0.00    -0.383 N
ATOM     33  H92 UNL     1      29.607  18.178  11.849  1.00  0.00     0.157 HD
ATOM     34  H91 UNL     1      27.882  18.385  11.549  1.00  0.00     0.157 HD
ENDBRANCH   7  32
TORSDOF 7
ENDMDL