MODEL 4
REMARK VINA RESULT: -6.513405326      3.027      5.446
REMARK  8 active torsions:
REMARK  status: ('A' for Active; 'I' for Inactive)
REMARK    1  A    between atoms: C1_4  and  C2_5
REMARK    2  A    between atoms: C2_5  and  N2_6
REMARK    3  A    between atoms: C3_7  and  N3_8
REMARK    4  A    between atoms: N3_8  and  C4_10
REMARK    5  A    between atoms: C4_10  and  C5_11
REMARK    6  A    between atoms: C5_11  and  N4_12
REMARK       I    between atoms: N4_12  and  C6_14
REMARK    7  A    between atoms: C9_26  and  N9_27
REMARK    8  A    between atoms: C10_32  and  N11_33
ROOT
HETATM    1  N2  UNL     1      30.962  17.112   7.831  1.00  0.00    -0.309 N
HETATM    2  C3  UNL     1      30.350  18.291   8.180  1.00  0.00     0.153 A
HETATM    3  C7  UNL     1      30.976  19.463   7.826  1.00  0.00     0.189 A
HETATM    4  N5  UNL     1      30.597  20.760   8.044  1.00  0.00    -0.265 N
ATOM      5  H5  UNL     1      29.757  21.087   8.523  1.00  0.00     0.190 HD
HETATM    6  N6  UNL     1      31.546  21.494   7.505  1.00  0.00    -0.226 N
ATOM      7  H6  UNL     1      31.568  22.514   7.494  1.00  0.00     0.210 HD
HETATM    8  N7  UNL     1      32.462  20.708   6.983  1.00  0.00    -0.219 N
ATOM      9  H7  UNL     1      33.303  21.032   6.505  1.00  0.00     0.210 HD
HETATM   10  N8  UNL     1      32.141  19.443   7.164  1.00  0.00    -0.212 N
HETATM   11  C8  UNL     1      32.732  18.270   6.827  1.00  0.00     0.148 A
HETATM   12  C9  UNL     1      33.935  18.234   6.150  1.00  0.00     0.147 A
HETATM   13  N10 UNL     1      34.467  16.998   5.853  1.00  0.00    -0.175 N
ATOM     14  H10 UNL     1      35.355  16.941   5.354  1.00  0.00     0.186 HD
HETATM   15  C10 UNL     1      33.845  15.877   6.206  1.00  0.00     0.679 A
HETATM   16  N12 UNL     1      32.671  15.866   6.866  1.00  0.00    -0.174 N
ATOM     17  H12 UNL     1      32.217  14.990   7.123  1.00  0.00     0.186 HD
HETATM   18  C11 UNL     1      32.123  17.050   7.172  1.00  0.00     0.158 A
ENDROOT
BRANCH   2  19
HETATM   19  N3  UNL     1      29.269  18.248   8.796  1.00  0.00    -0.371 N
ATOM     20  H3  UNL     1      28.548  17.782   8.244  1.00  0.00     0.161 HD
BRANCH  19  21
HETATM   21  C4  UNL     1      28.772  18.660  10.029  1.00  0.00     0.141 C
BRANCH  21  22
HETATM   22  C5  UNL     1      27.652  17.730  10.518  1.00  0.00     0.145 C
BRANCH  22  23
HETATM   23  N4  UNL     1      26.496  18.462  10.954  1.00  0.00    -0.334 N
HETATM   24  C6  UNL     1      25.379  18.778  10.135  1.00  0.00     0.283 C
HETATM   25  O1  UNL     1      25.306  18.438   8.929  1.00  0.00    -0.630 OA
HETATM   26  O2  UNL     1      24.279  19.499  10.633  1.00  0.00    -0.630 OA
ATOM     27  H4  UNL     1      26.475  18.778  11.924  1.00  0.00     0.165 HD
ENDBRANCH  22  23
ENDBRANCH  21  22
ENDBRANCH  19  21
ENDBRANCH   2  19
BRANCH   1  28
HETATM   28  C2  UNL     1      30.298  15.890   8.206  1.00  0.00     0.176 C
BRANCH  28  29
HETATM   29  C1  UNL     1      30.724  15.522   9.587  1.00  0.00     0.073 C
HETATM   30  N1  UNL     1      29.878  15.045  10.452  1.00  0.00    -0.410 N
ATOM     31  H12 UNL     1      28.906  14.927  10.164  1.00  0.00     0.155 HD
ATOM     32  H11 UNL     1      30.170  14.794  11.396  1.00  0.00     0.155 HD
ENDBRANCH  28  29
ENDBRANCH   1  28
BRANCH  12  33
HETATM   33  N9  UNL     1      34.531  19.268   5.811  1.00  0.00    -0.383 N
ATOM     34  H92 UNL     1      34.183  19.830   5.035  1.00  0.00     0.157 HD
ATOM     35  H91 UNL     1      35.374  19.588   6.288  1.00  0.00     0.157 HD
ENDBRANCH  12  33
BRANCH  15  36
HETATM   36  N11 UNL     1      34.364  14.725   5.916  1.00  0.00    -0.234 N
ATOM     37 2H11 UNL     1      34.052  14.283   5.052  1.00  0.00     0.174 HD
ATOM     38 1H11 UNL     1      35.052  14.302   6.540  1.00  0.00     0.174 HD
ENDBRANCH  15  36
TORSDOF 8
ENDMDL