MODEL 5
REMARK VINA RESULT: -7.838577022      1.931      2.373
REMARK  12 active torsions:
REMARK  status: ('A' for Active; 'I' for Inactive)
REMARK    1  A    between atoms: C2_2  and  O1_3
REMARK    2  A    between atoms: C2_2  and  C13_31
REMARK    3  A    between atoms: O1_3  and  C3_4
REMARK       I    between atoms: C3_4  and  N1_6
REMARK    4  A    between atoms: N1_6  and  C4_8
REMARK    5  A    between atoms: C4_8  and  C5_9
REMARK    6  A    between atoms: C4_8  and  C7_13
REMARK    7  A    between atoms: C5_9  and  C6_10
REMARK    8  A    between atoms: C7_13  and  O4_14
REMARK    9  A    between atoms: C7_13  and  N2_16
REMARK   10  A    between atoms: C10_21  and  N4_22
REMARK   11  A    between atoms: C13_31  and  N7_32
REMARK   12  A    between atoms: C13_31  and  O5_36
ROOT
HETATM    1  C6  UNL     1      24.380  14.469   5.556  1.00  0.00     0.054 C
HETATM    2  O3  UNL     1      24.421  14.936   4.255  1.00  0.00    -0.314 OA
ATOM      3  H3  UNL     1      24.459  15.269   3.366  1.00  0.00     0.230 HD
ENDROOT
BRANCH   1   4
HETATM    4  C5  UNL     1      24.331  14.046   6.685  1.00  0.00    -0.046 C
BRANCH   4   5
HETATM    5  C4  UNL     1      24.277  13.562   8.045  1.00  0.00     0.217 C
BRANCH   5   6
HETATM    6  N1  UNL     1      24.758  14.565   9.001  1.00  0.00    -0.317 N
HETATM    7  C3  UNL     1      26.055  15.109   8.904  1.00  0.00     0.362 C
HETATM    8  O2  UNL     1      26.822  14.721   7.972  1.00  0.00    -0.238 OA
ATOM      9  H1  UNL     1      24.141  14.876   9.752  1.00  0.00     0.166 HD
BRANCH   7  10
HETATM   10  O1  UNL     1      26.503  16.048   9.802  1.00  0.00    -0.295 OA
BRANCH  10  11
HETATM   11  C2  UNL     1      26.464  17.440   9.569  1.00  0.00     0.185 C
HETATM   12  C1  UNL     1      27.889  17.951   9.773  1.00  0.00     0.044 C
BRANCH  11  13
HETATM   13  C13 UNL     1      25.594  18.145  10.588  1.00  0.00     0.345 C
BRANCH  13  14
HETATM   14  N7  UNL     1      24.498  18.769   9.874  1.00  0.00    -0.051 N
ATOM     15  H73 UNL     1      24.284  19.705  10.217  1.00  0.00     0.277 HD
ATOM     16  H72 UNL     1      24.744  19.028   8.919  1.00  0.00     0.277 HD
ATOM     17  H71 UNL     1      23.699  18.137   9.921  1.00  0.00     0.277 HD
ENDBRANCH  13  14
BRANCH  13  18
HETATM   18  O5  UNL     1      25.083  17.254  11.515  1.00  0.00    -0.368 OA
ATOM     19  H5  UNL     1      24.385  17.648  12.024  1.00  0.00     0.212 HD
ENDBRANCH  13  18
ENDBRANCH  11  13
ENDBRANCH  10  11
ENDBRANCH   7  10
ENDBRANCH   5   6
BRANCH   5  20
HETATM   20  C7  UNL     1      25.097  12.324   8.272  1.00  0.00     0.262 C
BRANCH  20  21
HETATM   21  O4  UNL     1      25.771  11.913   7.113  1.00  0.00    -0.373 OA
ATOM     22  H4  UNL     1      26.238  11.096   7.240  1.00  0.00     0.212 HD
ENDBRANCH  20  21
BRANCH  20  23
HETATM   23  N2  UNL     1      24.356  11.212   8.772  1.00  0.00    -0.297 N
HETATM   24  C8  UNL     1      23.025  11.148   8.898  1.00  0.00     0.188 A
HETATM   25  N3  UNL     1      22.739   9.938   9.402  1.00  0.00    -0.346 N
HETATM   26  C9  UNL     1      23.860   9.251   9.592  1.00  0.00     0.122 A
ATOM     27  H3  UNL     1      21.800   9.598   9.609  1.00  0.00     0.167 HD
HETATM   28  C10 UNL     1      24.122   7.975  10.082  1.00  0.00     0.131 A
HETATM   29  C12 UNL     1      24.900  10.058   9.192  1.00  0.00     0.142 A
HETATM   30  N5  UNL     1      25.403   7.592  10.137  1.00  0.00    -0.337 N
HETATM   31  C11 UNL     1      26.426   8.372   9.749  1.00  0.00     0.183 A
ATOM     32  H5  UNL     1      25.614   6.660  10.493  1.00  0.00     0.168 HD
HETATM   33  N6  UNL     1      26.185   9.606   9.275  1.00  0.00    -0.336 N
ATOM     34  H6  UNL     1      26.959  10.201   8.978  1.00  0.00     0.168 HD
BRANCH  28  35
HETATM   35  N4  UNL     1      23.145   7.216  10.459  1.00  0.00    -0.383 N
ATOM     36  H42 UNL     1      23.218   6.200  10.505  1.00  0.00     0.157 HD
ATOM     37  H41 UNL     1      22.253   7.631  10.726  1.00  0.00     0.157 HD
ENDBRANCH  28  35
ENDBRANCH  20  23
ENDBRANCH   5  20
ENDBRANCH   4   5
ENDBRANCH   1   4
TORSDOF 12
ENDMDL