MODEL 3
REMARK VINA RESULT: -10.073027198      1.450      2.020
REMARK  8 active torsions:
REMARK  status: ('A' for Active; 'I' for Inactive)
REMARK    1  A    between atoms: C5_5  and  C6_6
REMARK    2  A    between atoms: C7_9  and  N2_10
REMARK    3  A    between atoms: N2_10  and  C8_12
REMARK    4  A    between atoms: C10_14  and  C11_15
REMARK    5  A    between atoms: C21_30  and  N6_31
REMARK    6  A    between atoms: C24_34  and  C25_35
REMARK       I    between atoms: C25_35  and  N7_37
REMARK    7  A    between atoms: N7_37  and  C26_39
REMARK    8  A    between atoms: C26_39  and  C27_40
ROOT
HETATM    1  C1  UNL     1      17.840  24.607  14.626  1.00  0.00     0.012 C
HETATM    2  C2  UNL     1      17.768  23.884  15.589  1.00  0.00    -0.110 C
HETATM    3  C3  UNL     1      17.656  22.998  16.777  1.00  0.00     0.098 C
HETATM    4  C4  UNL     1      16.542  22.035  16.478  1.00  0.00     0.030 C
HETATM    5  C5  UNL     1      15.175  22.672  16.584  1.00  0.00     0.038 C
HETATM    6  C19 UNL     1      15.076  23.073  18.065  1.00  0.00     0.013 C
HETATM    7  C20 UNL     1      16.046  24.222  18.225  1.00  0.00     0.038 C
HETATM    8  C21 UNL     1      17.479  23.831  17.989  1.00  0.00     0.238 C
ENDROOT
BRANCH   8   9
HETATM    9  N6  UNL     1      18.110  23.319  19.191  1.00  0.00     0.094 N
HETATM   10  C22 UNL     1      18.202  24.462  20.110  1.00  0.00     0.273 C
HETATM   11  C23 UNL     1      19.453  24.392  20.968  1.00  0.00     0.044 C
HETATM   12  C24 UNL     1      20.614  24.740  20.061  1.00  0.00     0.081 C
HETATM   13  C28 UNL     1      20.478  23.905  18.821  1.00  0.00     0.044 C
HETATM   14  C29 UNL     1      19.430  22.829  18.993  1.00  0.00     0.273 C
BRANCH  12  15
HETATM   15  C25 UNL     1      21.926  24.607  20.723  1.00  0.00     0.222 C
HETATM   16  O1  UNL     1      21.983  24.768  21.972  1.00  0.00    -0.273 OA
HETATM   17  N7  UNL     1      23.123  24.310  20.039  1.00  0.00    -0.351 N
ATOM     18  H7  UNL     1      23.088  24.181  19.027  1.00  0.00     0.163 HD
BRANCH  17  19
HETATM   19  C26 UNL     1      24.380  24.184  20.701  1.00  0.00     0.235 C
BRANCH  19  20
HETATM   20  C27 UNL     1      25.055  25.453  21.016  1.00  0.00     0.191 C
HETATM   21  O2  UNL     1      25.567  26.186  20.134  1.00  0.00    -0.647 OA
HETATM   22  O3  UNL     1      25.147  25.884  22.332  1.00  0.00    -0.647 OA
ENDBRANCH  19  20
ENDBRANCH  17  19
ENDBRANCH  12  15
ENDBRANCH   8   9
BRANCH   5  23
HETATM   23  C6  UNL     1      14.158  21.673  16.208  1.00  0.00     0.036 A
HETATM   24  N1  UNL     1      13.276  21.224  17.127  1.00  0.00    -0.344 N
HETATM   25  C7  UNL     1      12.316  20.322  16.868  1.00  0.00     0.107 A
ATOM     26  H1  UNL     1      13.343  21.593  18.076  1.00  0.00     0.167 HD
HETATM   27  C14 UNL     1      12.262  19.851  15.567  1.00  0.00     0.057 A
HETATM   28  C15 UNL     1      13.141  20.283  14.598  1.00  0.00    -0.036 A
HETATM   29  C16 UNL     1      13.094  19.783  13.197  1.00  0.00     0.050 C
HETATM   30  C17 UNL     1      14.117  21.214  14.910  1.00  0.00     0.073 A
HETATM   31  C18 UNL     1      15.052  21.662  13.889  1.00  0.00     0.102 C
HETATM   32  N5  UNL     1      15.802  21.999  13.070  1.00  0.00    -0.191 NA
BRANCH  25  33
HETATM   33  N2  UNL     1      11.420  19.890  17.879  1.00  0.00    -0.328 N
ATOM     34  H2  UNL     1      10.818  20.587  18.317  1.00  0.00     0.169 HD
BRANCH  33  35
HETATM   35  C8  UNL     1      11.321  18.668  18.276  1.00  0.00     0.123 A
HETATM   36  C9  UNL     1      10.772  17.652  17.519  1.00  0.00     0.076 A
HETATM   37  C10 UNL     1      10.833  16.491  18.256  1.00  0.00     0.033 A
HETATM   38  N3  UNL     1      11.406  16.796  19.432  1.00  0.00    -0.303 N
HETATM   39  N4  UNL     1      11.696  18.103  19.436  1.00  0.00    -0.285 N
ATOM     40  H3  UNL     1      11.590  16.143  20.193  1.00  0.00     0.186 HD
ATOM     41  H4  UNL     1      12.137  18.599  20.210  1.00  0.00     0.188 HD
BRANCH  37  42
HETATM   42  C11 UNL     1      10.382  15.122  17.913  1.00  0.00     0.037 A
HETATM   43  C12 UNL     1       8.970  14.780  18.440  1.00  0.00     0.011 A
HETATM   44  C13 UNL     1       9.257  14.982  16.949  1.00  0.00     0.011 A
ENDBRANCH  37  42
ENDBRANCH  33  35
ENDBRANCH  25  33
ENDBRANCH   5  23
TORSDOF 8
ENDMDL