MODEL 5
REMARK VINA RESULT: -9.686995269      4.704     12.321
REMARK  7 active torsions:
REMARK  status: ('A' for Active; 'I' for Inactive)
REMARK    1  A    between atoms: C6_9  and  S1_10
REMARK    2  A    between atoms: S1_10  and  N2_13
REMARK       I    between atoms: N2_13  and  C7_15
REMARK       I    between atoms: C7_15  and  N3_17
REMARK    3  A    between atoms: N3_17  and  C8_19
REMARK    4  A    between atoms: C8_19  and  C9_20
REMARK    5  A    between atoms: C9_20  and  C10_21
REMARK    6  A    between atoms: C10_21  and  C11_22
REMARK    7  A    between atoms: N5_35  and  C20_36
ROOT
HETATM    1  C1  UNL     1      16.227  24.954  18.506  1.00  0.00     0.042 C
HETATM    2  C2  UNL     1      17.601  24.362  18.158  1.00  0.00     0.176 C
HETATM    3  C3  UNL     1      17.899  23.394  19.249  1.00  0.00     0.244 C
HETATM    4  O1  UNL     1      18.936  23.646  19.916  1.00  0.00    -0.271 OA
HETATM    5  N1  UNL     1      17.144  22.239  19.600  1.00  0.00    -0.324 N
ATOM      6  H1  UNL     1      17.283  21.893  20.550  1.00  0.00     0.169 HD
HETATM    7  C4  UNL     1      16.220  21.501  18.805  1.00  0.00     0.052 A
HETATM    8  C5  UNL     1      15.510  20.550  19.524  1.00  0.00     0.055 A
HETATM    9  C6  UNL     1      14.585  19.768  18.869  1.00  0.00     0.082 A
HETATM   10  C16 UNL     1      14.400  19.969  17.503  1.00  0.00     0.026 A
HETATM   11  C17 UNL     1      15.096  20.904  16.788  1.00  0.00     0.021 A
HETATM   12  C18 UNL     1      16.017  21.685  17.433  1.00  0.00     0.059 A
HETATM   13  C19 UNL     1      16.681  22.625  16.562  1.00  0.00     0.257 C
HETATM   14  O5  UNL     1      16.435  22.509  15.320  1.00  0.00    -0.267 OA
HETATM   15  N5  UNL     1      17.588  23.688  16.886  1.00  0.00    -0.330 N
ENDROOT
BRANCH   9  16
HETATM   16  S1  UNL     1      13.653  18.551  19.707  1.00  0.00     0.266 S
HETATM   17  O2  UNL     1      14.463  18.011  20.847  1.00  0.00    -0.200 OA
HETATM   18  O3  UNL     1      12.474  19.275  20.342  1.00  0.00    -0.200 OA
BRANCH  16  19
HETATM   19  N2  UNL     1      13.090  17.304  18.674  1.00  0.00    -0.232 N
HETATM   20  C7  UNL     1      11.688  17.154  18.421  1.00  0.00     0.333 C
HETATM   21  O4  UNL     1      10.937  17.962  18.981  1.00  0.00    -0.246 OA
HETATM   22  N3  UNL     1      11.237  16.136  17.579  1.00  0.00    -0.322 N
ATOM     23  H3  UNL     1      11.983  15.544  17.215  1.00  0.00     0.169 HD
ATOM     24  H2  UNL     1      13.756  16.666  18.238  1.00  0.00     0.183 HD
BRANCH  22  25
HETATM   25  C8  UNL     1       9.949  15.767  17.133  1.00  0.00     0.065 C
BRANCH  25  26
HETATM   26  C9  UNL     1       9.646  14.408  16.648  1.00  0.00     0.045 C
BRANCH  26  27
HETATM   27  C10 UNL     1       9.877  14.158  15.219  1.00  0.00     0.010 C
BRANCH  27  28
HETATM   28  C11 UNL     1       9.726  15.453  14.388  1.00  0.00    -0.011 C
HETATM   29  C12 UNL     1      11.004  15.792  13.701  1.00  0.00     0.032 C
HETATM   30  C13 UNL     1      10.782  16.607  12.470  1.00  0.00     0.232 C
HETATM   31  N4  UNL     1       9.870  15.859  11.604  1.00  0.00    -0.075 N
HETATM   32  C14 UNL     1       8.555  16.008  12.222  1.00  0.00     0.232 C
ATOM     33  H42 UNL     1       9.902  16.144  10.625  1.00  0.00     0.277 HD
ATOM     34  H41 UNL     1      10.148  14.889  11.451  1.00  0.00     0.277 HD
HETATM   35  C15 UNL     1       8.551  15.234  13.498  1.00  0.00     0.032 C
ENDBRANCH  27  28
ENDBRANCH  26  27
ENDBRANCH  25  26
ENDBRANCH  22  25
ENDBRANCH  16  19
ENDBRANCH   9  16
BRANCH  15  36
HETATM   36  C20 UNL     1      18.540  24.099  15.854  1.00  0.00     0.088 C
HETATM   37  C21 UNL     1      19.956  24.006  16.290  1.00  0.00     0.025 C
HETATM   38  C22 UNL     1      20.632  25.248  16.730  1.00  0.00     0.002 C
HETATM   39  C23 UNL     1      20.586  26.400  15.783  1.00  0.00     0.000 C
HETATM   40  C24 UNL     1      20.435  25.989  14.357  1.00  0.00     0.000 C
HETATM   41  C25 UNL     1      19.057  25.560  13.984  1.00  0.00     0.002 C
HETATM   42  C26 UNL     1      18.147  25.376  15.175  1.00  0.00     0.025 C
ENDBRANCH  15  36
TORSDOF 7
ENDMDL