MODEL 2
REMARK VINA RESULT: -9.051725120      2.621      9.991
REMARK  8 active torsions:
REMARK  status: ('A' for Active; 'I' for Inactive)
REMARK    1  A    between atoms: C4_4  and  N1_5
REMARK    2  A    between atoms: N1_5  and  C5_7
REMARK    3  A    between atoms: C14_16  and  N2_17
REMARK       I    between atoms: N2_17  and  C15_19
REMARK    4  A    between atoms: C15_19  and  C16_21
REMARK    5  A    between atoms: C16_21  and  C17_22
REMARK    6  A    between atoms: C17_22  and  C18_23
REMARK    7  A    between atoms: C18_23  and  C19_24
REMARK       I    between atoms: C19_24  and  N3_26
REMARK    8  A    between atoms: N3_26  and  C20_27
ROOT
HETATM    1  C5  UNL     1      15.507  21.432  15.641  1.00  0.00     0.081 C
HETATM    2  C6  UNL     1      15.258  20.381  16.596  1.00  0.00     0.026 C
HETATM    3  C7  UNL     1      14.968  20.867  17.963  1.00  0.00     0.012 C
HETATM    4  C8  UNL     1      15.959  21.809  18.524  1.00  0.00    -0.036 C
HETATM    5  C9  UNL     1      15.442  22.399  19.781  1.00  0.00     0.016 C
HETATM    6  C10 UNL     1      17.244  21.065  18.880  1.00  0.00     0.037 C
HETATM    7  C11 UNL     1      18.138  22.045  19.556  1.00  0.00    -0.022 C
HETATM    8  C12 UNL     1      18.220  23.263  19.168  1.00  0.00    -0.073 C
HETATM    9  C13 UNL     1      19.088  24.254  19.842  1.00  0.00     0.059 C
HETATM   10  C14 UNL     1      19.969  24.959  18.862  1.00  0.00     0.088 C
HETATM   11  C21 UNL     1      19.633  24.826  17.437  1.00  0.00     0.026 C
HETATM   12  C22 UNL     1      18.425  24.110  16.993  1.00  0.00     0.016 C
HETATM   13  C23 UNL     1      17.381  23.793  18.038  1.00  0.00    -0.016 C
HETATM   14  C24 UNL     1      16.765  25.148  18.398  1.00  0.00     0.020 C
HETATM   15  C25 UNL     1      16.334  22.895  17.534  1.00  0.00     0.008 C
HETATM   16  C26 UNL     1      16.680  22.279  16.202  1.00  0.00     0.031 C
ENDROOT
BRANCH  10  17
HETATM   17  N2  UNL     1      21.327  24.274  18.962  1.00  0.00    -0.356 N
HETATM   18  C15 UNL     1      22.172  24.536  20.093  1.00  0.00     0.217 C
HETATM   19  O1  UNL     1      21.948  25.216  20.994  1.00  0.00    -0.274 OA
ATOM     20  H2  UNL     1      21.633  23.634  18.230  1.00  0.00     0.162 HD
BRANCH  18  21
HETATM   21  C16 UNL     1      23.497  23.770  19.893  1.00  0.00     0.103 C
BRANCH  21  22
HETATM   22  C17 UNL     1      24.594  24.837  20.094  1.00  0.00     0.019 C
BRANCH  22  23
HETATM   23  C18 UNL     1      25.356  25.156  18.843  1.00  0.00     0.120 C
BRANCH  23  24
HETATM   24  C19 UNL     1      24.783  26.576  18.444  1.00  0.00     0.294 C
HETATM   25  O2  UNL     1      25.373  27.524  19.080  1.00  0.00    -0.257 OA
HETATM   26  N3  UNL     1      23.855  26.706  17.587  1.00  0.00    -0.332 NA
BRANCH  26  27
HETATM   27  C20 UNL     1      22.908  26.825  16.755  1.00  0.00     0.294 A
HETATM   28  N4  UNL     1      22.607  25.812  15.860  1.00  0.00    -0.242 N
HETATM   29  N5  UNL     1      21.938  26.392  14.888  1.00  0.00    -0.225 N
ATOM     30  H4  UNL     1      22.853  24.825  15.937  1.00  0.00     0.192 HD
HETATM   31  N6  UNL     1      21.787  27.651  15.093  1.00  0.00    -0.225 N
ATOM     32  H5  UNL     1      21.582  25.901  14.068  1.00  0.00     0.210 HD
HETATM   33  N7  UNL     1      22.359  27.964  16.247  1.00  0.00    -0.242 N
ATOM     34  H6  UNL     1      21.305  28.301  14.471  1.00  0.00     0.210 HD
ATOM     35  H7  UNL     1      22.383  28.889  16.676  1.00  0.00     0.192 HD
ENDBRANCH  26  27
ENDBRANCH  23  24
ENDBRANCH  22  23
ENDBRANCH  21  22
ENDBRANCH  18  21
ENDBRANCH  10  17
BRANCH   1  36
HETATM   36  N1  UNL     1      14.562  22.293  15.074  1.00  0.00    -0.392 N
ATOM     37  H1  UNL     1      14.472  23.245  15.429  1.00  0.00     0.159 HD
BRANCH  36  38
HETATM   38  C4  UNL     1      13.742  21.865  14.030  1.00  0.00    -0.013 C
HETATM   39  C3  UNL     1      13.943  20.520  13.420  1.00  0.00     0.083 C
HETATM   40  C2  UNL     1      12.835  19.536  13.785  1.00  0.00     0.122 C
HETATM   41  C1  UNL     1      11.937  19.275  12.608  1.00  0.00     0.040 C
HETATM   42  O3  UNL     1      12.189  19.840  14.967  1.00  0.00    -0.386 OA
HETATM   43  C28 UNL     1      11.580  21.056  15.010  1.00  0.00     0.173 C
HETATM   44  C27 UNL     1      12.263  22.116  14.221  1.00  0.00     0.078 C
ENDBRANCH  36  38
ENDBRANCH   1  36
TORSDOF 8
ENDMDL