MODEL 1
REMARK VINA RESULT: -9.141178855      0.000      0.000
REMARK  11 active torsions:
REMARK  status: ('A' for Active; 'I' for Inactive)
REMARK    1  A    between atoms: O1_1  and  C1_3
REMARK    2  A    between atoms: C1_3  and  C2_4
REMARK    3  A    between atoms: N1_7  and  C5_8
REMARK    4  A    between atoms: C5_8  and  C6_9
REMARK    5  A    between atoms: C6_9  and  C7_10
REMARK    6  A    between atoms: C7_10  and  C8_11
REMARK    7  A    between atoms: C8_11  and  O2_12
REMARK    8  A    between atoms: N2_17  and  C12_18
REMARK    9  A    between atoms: C12_18  and  C13_19
REMARK   10  A    between atoms: C21_27  and  O3_28
REMARK   11  A    between atoms: C31_39  and  O4_40
ROOT
HETATM    1  C8  UNL     1      15.450  23.070  17.063  1.00  0.00     0.100 C
HETATM    2  C9  UNL     1      16.862  22.864  16.661  1.00  0.00     0.011 C
HETATM    3  C10 UNL     1      16.918  21.301  16.535  1.00  0.00     0.058 C
HETATM    4  C11 UNL     1      16.919  20.600  17.857  1.00  0.00     0.064 C
HETATM    5  N2  UNL     1      15.990  20.967  18.822  1.00  0.00    -0.366 N
HETATM    6  C16 UNL     1      15.971  22.204  19.439  1.00  0.00     0.126 C
HETATM    7  C17 UNL     1      17.124  22.455  20.443  1.00  0.00     0.034 C
HETATM    8  C18 UNL     1      17.516  23.854  20.589  1.00  0.00    -0.005 A
HETATM    9  C19 UNL     1      18.773  24.456  21.022  1.00  0.00     0.013 A
HETATM   10  C20 UNL     1      18.774  24.056  19.718  1.00  0.00     0.025 A
HETATM   11  C21 UNL     1      18.149  24.448  18.378  1.00  0.00     0.073 C
HETATM   12  C22 UNL     1      19.428  24.727  17.568  1.00  0.00     0.077 C
HETATM   13  C23 UNL     1      19.201  25.038  16.176  1.00  0.00    -0.049 A
HETATM   14  C24 UNL     1      20.023  26.105  15.795  1.00  0.00     0.007 A
HETATM   15  C25 UNL     1      19.964  26.555  14.502  1.00  0.00     0.001 A
HETATM   16  C26 UNL     1      19.116  25.970  13.589  1.00  0.00     0.001 A
HETATM   17  C27 UNL     1      18.327  24.926  14.007  1.00  0.00     0.007 A
HETATM   18  C28 UNL     1      18.345  24.426  15.315  1.00  0.00    -0.051 A
HETATM   19  C29 UNL     1      17.383  23.334  15.377  1.00  0.00     0.052 C
HETATM   20  C30 UNL     1      17.398  23.286  17.923  1.00  0.00     0.072 C
HETATM   21  C31 UNL     1      16.003  23.334  18.441  1.00  0.00     0.117 C
ENDROOT
BRANCH   1  22
HETATM   22  C7  UNL     1      14.539  24.036  16.467  1.00  0.00     0.043 C
BRANCH  22  23
HETATM   23  C6  UNL     1      13.484  23.802  15.515  1.00  0.00     0.033 C
BRANCH  23  24
HETATM   24  C5  UNL     1      13.742  22.520  14.718  1.00  0.00     0.272 C
BRANCH  24  25
HETATM   25  N1  UNL     1      12.903  22.285  13.620  1.00  0.00     0.088 N
HETATM   26  C4  UNL     1      13.649  21.710  12.513  1.00  0.00     0.273 C
HETATM   27  C3  UNL     1      13.893  20.243  12.718  1.00  0.00     0.037 C
HETATM   28  C2  UNL     1      12.552  19.564  12.835  1.00  0.00     0.012 C
HETATM   29  C33 UNL     1      11.912  20.080  14.098  1.00  0.00     0.037 C
HETATM   30  C32 UNL     1      11.707  21.569  13.906  1.00  0.00     0.273 C
BRANCH  28  31
HETATM   31  C1  UNL     1      12.650  18.062  12.827  1.00  0.00     0.168 C
BRANCH  31  32
HETATM   32  O1  UNL     1      13.980  17.627  12.810  1.00  0.00    -0.400 OA
ATOM     33  H1  UNL     1      14.048  16.693  12.967  1.00  0.00     0.209 HD
ENDBRANCH  31  32
ENDBRANCH  28  31
ENDBRANCH  24  25
ENDBRANCH  23  24
ENDBRANCH  22  23
ENDBRANCH   1  22
BRANCH   1  34
HETATM   34  O2  UNL     1      14.635  21.890  17.129  1.00  0.00    -0.386 OA
ATOM     35  H2  UNL     1      14.734  21.630  18.038  1.00  0.00     0.210 HD
ENDBRANCH   1  34
BRANCH  21  36
HETATM   36  O4  UNL     1      15.414  24.499  18.810  1.00  0.00    -0.384 OA
ATOM     37  H4  UNL     1      15.946  24.802  19.537  1.00  0.00     0.210 HD
ENDBRANCH  21  36
BRANCH  11  38
HETATM   38  O3  UNL     1      17.496  25.623  18.577  1.00  0.00    -0.389 OA
ATOM     39  H3  UNL     1      17.938  26.276  18.048  1.00  0.00     0.210 HD
ENDBRANCH  11  38
BRANCH   5  40
HETATM   40  C12 UNL     1      15.424  19.859  19.484  1.00  0.00     0.068 C
BRANCH  40  41
HETATM   41  C13 UNL     1      14.700  18.945  18.557  1.00  0.00     0.024 A
HETATM   42  C14 UNL     1      14.341  17.582  19.055  1.00  0.00     0.010 A
HETATM   43  C15 UNL     1      13.300  18.588  18.867  1.00  0.00     0.010 A
ENDBRANCH  40  41
ENDBRANCH   5  40
TORSDOF 11
ENDMDL