MODEL 4
REMARK VINA RESULT: -6.246450450      0.454      1.511
REMARK  10 active torsions:
REMARK  status: ('A' for Active; 'I' for Inactive)
REMARK    1  A    between atoms: C2_2  and  C3_3
REMARK    2  A    between atoms: C12_15  and  C13_16
REMARK    3  A    between atoms: C13_16  and  C15_18
REMARK    4  A    between atoms: C16_20  and  C17_21
REMARK    5  A    between atoms: C17_21  and  C18_22
REMARK    6  A    between atoms: C17_21  and  C21_25
REMARK    7  A    between atoms: C25_29  and  O3_30
REMARK    8  A    between atoms: C26_32  and  C27_33
REMARK    9  A    between atoms: C27_33  and  O4_34
REMARK   10  A    between atoms: C28_36  and  O5_37
ROOT
HETATM    1  C3  UNL     1      14.776  22.041  16.996  1.00  0.00     0.177 C
HETATM    2  N1  UNL     1      15.029  22.916  18.123  1.00  0.00    -0.346 N
ATOM      3  H1  UNL     1      14.268  23.207  18.736  1.00  0.00     0.163 HD
HETATM    4  C4  UNL     1      16.358  23.362  18.355  1.00  0.00     0.228 C
HETATM    5  O1  UNL     1      16.681  23.640  19.536  1.00  0.00    -0.273 OA
HETATM    6  C5  UNL     1      17.340  23.491  17.193  1.00  0.00     0.056 C
HETATM    7  C6  UNL     1      16.542  24.284  16.133  1.00  0.00     0.027 C
HETATM    8  C7  UNL     1      17.358  25.589  16.057  1.00  0.00     0.017 C
HETATM    9  C8  UNL     1      17.694  25.656  17.502  1.00  0.00     0.014 C
HETATM   10  C9  UNL     1      18.417  24.300  17.656  1.00  0.00     0.018 C
HETATM   11  C10 UNL     1      19.750  24.399  17.085  1.00  0.00    -0.001 C
HETATM   12  C11 UNL     1      20.428  23.031  16.868  1.00  0.00     0.021 C
HETATM   13  C12 UNL     1      20.789  25.123  17.939  1.00  0.00    -0.060 C
HETATM   14  C24 UNL     1      20.875  26.545  17.544  1.00  0.00     0.068 C
HETATM   15  C25 UNL     1      20.501  26.506  16.077  1.00  0.00     0.136 C
HETATM   16  C26 UNL     1      19.845  25.190  15.788  1.00  0.00     0.045 C
HETATM   17  C28 UNL     1      18.487  25.325  15.139  1.00  0.00     0.136 C
HETATM   18  C29 UNL     1      17.360  22.119  16.675  1.00  0.00     0.072 C
HETATM   19  C30 UNL     1      17.566  21.048  17.740  1.00  0.00     0.019 C
HETATM   20  C31 UNL     1      15.976  21.836  16.151  1.00  0.00     0.158 C
HETATM   21  O6  UNL     1      15.755  21.425  15.015  1.00  0.00    -0.295 OA
ENDROOT
BRANCH  13  22
HETATM   22  C13 UNL     1      20.959  24.714  19.310  1.00  0.00    -0.033 C
HETATM   23  C14 UNL     1      19.906  24.583  20.114  1.00  0.00     0.022 C
BRANCH  22  24
HETATM   24  C15 UNL     1      22.207  24.304  20.003  1.00  0.00     0.184 A
HETATM   25  O2  UNL     1      22.664  24.882  21.160  1.00  0.00    -0.370 OA
HETATM   26  C16 UNL     1      23.267  25.347  20.039  1.00  0.00     0.160 A
BRANCH  26  27
HETATM   27  C17 UNL     1      24.700  25.001  19.677  1.00  0.00     0.024 C
BRANCH  27  28
HETATM   28  C18 UNL     1      25.020  25.153  18.251  1.00  0.00    -0.016 C
HETATM   29  C19 UNL     1      26.423  25.043  17.803  1.00  0.00     0.010 C
HETATM   30  C20 UNL     1      24.258  26.333  17.651  1.00  0.00     0.010 C
ENDBRANCH  27  28
BRANCH  27  31
HETATM   31  C21 UNL     1      25.030  23.716  20.352  1.00  0.00    -0.016 C
HETATM   32  C22 UNL     1      25.396  22.586  19.423  1.00  0.00     0.010 C
HETATM   33  C23 UNL     1      25.961  23.775  21.510  1.00  0.00     0.010 C
ENDBRANCH  27  31
ENDBRANCH  26  27
ENDBRANCH  22  24
ENDBRANCH  13  22
BRANCH  16  34
HETATM   34  C27 UNL     1      20.712  24.510  14.739  1.00  0.00     0.179 C
BRANCH  34  35
HETATM   35  O4  UNL     1      21.589  25.539  14.292  1.00  0.00    -0.400 OA
ATOM     36  H4  UNL     1      22.172  25.100  13.686  1.00  0.00     0.209 HD
ENDBRANCH  34  35
ENDBRANCH  16  34
BRANCH  15  37
HETATM   37  O3  UNL     1      19.703  27.619  15.821  1.00  0.00    -0.394 OA
ATOM     38  H3  UNL     1      19.547  27.647  14.884  1.00  0.00     0.210 HD
ENDBRANCH  15  37
BRANCH  17  39
HETATM   39  O5  UNL     1      18.516  26.366  14.187  1.00  0.00    -0.394 OA
ATOM     40  H5  UNL     1      19.204  26.968  14.441  1.00  0.00     0.210 HD
ENDBRANCH  17  39
BRANCH   1  41
HETATM   41  C2  UNL     1      14.230  20.724  17.407  1.00  0.00    -0.005 C
HETATM   42  C1  UNL     1      14.007  20.387  18.664  1.00  0.00     0.009 C
ENDBRANCH   1  41
TORSDOF 10
ENDMDL