MODEL 2
REMARK VINA RESULT: -6.824629265      5.641     11.537
REMARK  8 active torsions:
REMARK  status: ('A' for Active; 'I' for Inactive)
REMARK    1  A    between atoms: C2_2  and  C3_3
REMARK    2  A    between atoms: C4_4  and  C5_5
REMARK    3  A    between atoms: C5_5  and  C6_6
REMARK    4  A    between atoms: C8_11  and  C9_12
REMARK    5  A    between atoms: C13_19  and  C14_20
REMARK    6  A    between atoms: C14_20  and  C15_21
REMARK    7  A    between atoms: C19_28  and  C20_29
REMARK    8  A    between atoms: C20_29  and  C21_30
ROOT
HETATM    1  C6  UNL     1      23.719  23.705  20.479  1.00  0.00     0.160 C
HETATM    2  C7  UNL     1      24.577  24.906  20.527  1.00  0.00     0.230 C
HETATM    3  O1  UNL     1      24.515  25.501  21.668  1.00  0.00    -0.273 OA
HETATM    4  N1  UNL     1      25.400  25.452  19.554  1.00  0.00    -0.347 N
ATOM      5  H1  UNL     1      26.377  25.569  19.825  1.00  0.00     0.163 HD
HETATM    6  C8  UNL     1      25.074  25.881  18.212  1.00  0.00     0.180 C
HETATM    7  C12 UNL     1      24.391  27.174  18.150  1.00  0.00     0.241 C
HETATM    8  O2  UNL     1      25.160  28.200  18.226  1.00  0.00    -0.271 OA
HETATM    9  N2  UNL     1      23.028  27.446  18.020  1.00  0.00    -0.346 N
ATOM     10  H2  UNL     1      22.690  28.279  18.503  1.00  0.00     0.163 HD
HETATM   11  C13 UNL     1      22.037  26.693  17.285  1.00  0.00     0.177 C
HETATM   12  C18 UNL     1      20.681  26.898  17.868  1.00  0.00     0.241 C
HETATM   13  O3  UNL     1      20.641  27.868  18.725  1.00  0.00    -0.271 OA
HETATM   14  N3  UNL     1      19.498  26.220  17.629  1.00  0.00    -0.347 N
ATOM     15  H3  UNL     1      18.777  26.794  17.192  1.00  0.00     0.163 HD
HETATM   16  C19 UNL     1      19.088  24.870  17.877  1.00  0.00     0.161 C
HETATM   17  C27 UNL     1      20.140  23.872  17.570  1.00  0.00     0.200 C
HETATM   18  O4  UNL     1      20.497  23.759  16.409  1.00  0.00    -0.288 OA
HETATM   19  C28 UNL     1      20.794  22.987  18.586  1.00  0.00     0.236 C
HETATM   20  N4  UNL     1      21.618  23.596  19.461  1.00  0.00    -0.403 NA
HETATM   21  C29 UNL     1      22.298  24.164  20.237  1.00  0.00     0.178 C
HETATM   22  N5  UNL     1      21.973  25.301  21.053  1.00  0.00    -0.071 NA
ENDROOT
BRANCH  16  23
HETATM   23  C20 UNL     1      18.433  24.634  19.196  1.00  0.00     0.038 C
BRANCH  23  24
HETATM   24  C21 UNL     1      17.227  23.796  19.262  1.00  0.00    -0.012 C
HETATM   25  C22 UNL     1      17.439  22.347  19.626  1.00  0.00     0.005 C
HETATM   26  C23 UNL     1      16.055  21.819  20.023  1.00  0.00     0.000 C
HETATM   27  C24 UNL     1      15.028  22.007  18.958  1.00  0.00     0.000 C
HETATM   28  C25 UNL     1      14.913  23.480  18.554  1.00  0.00     0.000 C
HETATM   29  C26 UNL     1      16.325  23.841  18.060  1.00  0.00     0.005 C
ENDBRANCH  23  24
ENDBRANCH  16  23
BRANCH  11  30
HETATM   30  C14 UNL     1      22.046  26.974  15.802  1.00  0.00     0.038 C
BRANCH  30  31
HETATM   31  C15 UNL     1      20.788  26.752  15.067  1.00  0.00    -0.020 C
HETATM   32  C16 UNL     1      21.046  25.536  14.149  1.00  0.00     0.009 C
HETATM   33  C17 UNL     1      20.335  27.829  14.142  1.00  0.00     0.009 C
ENDBRANCH  30  31
ENDBRANCH  11  30
BRANCH   1  34
HETATM   34  C5  UNL     1      24.160  22.639  19.530  1.00  0.00     0.049 C
BRANCH  34  35
HETATM   35  C4  UNL     1      25.571  22.342  19.822  1.00  0.00    -0.029 C
HETATM   36  C3  UNL     1      26.107  21.181  19.568  1.00  0.00    -0.031 C
BRANCH  36  37
HETATM   37  C2  UNL     1      25.485  19.978  18.975  1.00  0.00     0.022 C
HETATM   38  C1  UNL     1      25.434  18.936  20.080  1.00  0.00     0.009 C
ENDBRANCH  36  37
ENDBRANCH  34  35
ENDBRANCH   1  34
BRANCH   6  39
HETATM   39  C9  UNL     1      26.331  25.964  17.374  1.00  0.00     0.009 C
HETATM   40  C10 UNL     1      27.307  24.869  17.651  1.00  0.00     0.012 C
HETATM   41  C11 UNL     1      26.108  26.032  15.903  1.00  0.00     0.012 C
ENDBRANCH   6  39
TORSDOF 8
ENDMDL