MODEL 3
REMARK VINA RESULT: -7.780028426      1.358      1.800
REMARK  9 active torsions:
REMARK  status: ('A' for Active; 'I' for Inactive)
REMARK    1  A    between atoms: C2_2  and  O1_5
REMARK    2  A    between atoms: O1_5  and  C5_6
REMARK       I    between atoms: C5_6  and  N1_8
REMARK    3  A    between atoms: N1_8  and  C6_10
REMARK    4  A    between atoms: C6_10  and  C7_11
REMARK    5  A    between atoms: C7_11  and  C8_12
REMARK    6  A    between atoms: C8_12  and  C9_13
REMARK    7  A    between atoms: C9_13  and  C10_14
REMARK    8  A    between atoms: C13_20  and  C14_21
REMARK    9  A    between atoms: C16_24  and  C17_25
ROOT
HETATM    1  C10 UNL     1      19.677  24.784  17.329  1.00  0.00     0.176 C
HETATM    2  N2  UNL     1      18.325  24.964  17.046  1.00  0.00    -0.348 N
ATOM      3  H2  UNL     1      17.902  25.641  17.682  1.00  0.00     0.163 HD
HETATM    4  C11 UNL     1      17.393  24.480  16.139  1.00  0.00     0.218 C
HETATM    5  O3  UNL     1      16.701  25.319  15.445  1.00  0.00    -0.274 OA
HETATM    6  C12 UNL     1      17.079  23.077  15.854  1.00  0.00     0.108 C
HETATM    7  C13 UNL     1      15.696  22.616  16.073  1.00  0.00     0.006 C
HETATM    8  C15 UNL     1      15.751  21.462  17.042  1.00  0.00     0.031 C
HETATM    9  C16 UNL     1      15.852  21.896  18.491  1.00  0.00     0.089 C
HETATM   10  N3  UNL     1      17.043  21.374  19.129  1.00  0.00    -0.354 N
ATOM     11  H3  UNL     1      17.020  20.372  19.319  1.00  0.00     0.162 HD
HETATM   12  C21 UNL     1      18.215  22.011  19.527  1.00  0.00     0.241 C
HETATM   13  O4  UNL     1      19.301  21.436  19.117  1.00  0.00    -0.271 OA
HETATM   14  C22 UNL     1      18.477  23.183  20.306  1.00  0.00     0.179 C
HETATM   15  C23 UNL     1      17.410  24.146  20.644  1.00  0.00     0.037 C
HETATM   16  C24 UNL     1      18.255  25.145  21.469  1.00  0.00     0.022 C
HETATM   17  C25 UNL     1      19.692  24.700  21.256  1.00  0.00     0.127 C
HETATM   18  N4  UNL     1      19.526  24.109  19.892  1.00  0.00    -0.337 N
HETATM   19  C26 UNL     1      20.131  24.330  18.646  1.00  0.00     0.243 C
HETATM   20  O5  UNL     1      21.380  24.072  18.682  1.00  0.00    -0.271 OA
ENDROOT
BRANCH   1  21
HETATM   21  C9  UNL     1      20.352  24.020  16.205  1.00  0.00     0.035 C
BRANCH  21  22
HETATM   22  C8  UNL     1      20.858  24.804  15.086  1.00  0.00     0.004 C
BRANCH  22  23
HETATM   23  C7  UNL     1      21.318  26.160  15.628  1.00  0.00     0.020 C
BRANCH  23  24
HETATM   24  C6  UNL     1      22.771  26.265  15.823  1.00  0.00     0.125 C
BRANCH  24  25
HETATM   25  N1  UNL     1      23.181  25.922  17.151  1.00  0.00    -0.337 N
HETATM   26  C5  UNL     1      24.192  26.634  17.836  1.00  0.00     0.361 C
HETATM   27  O2  UNL     1      24.820  27.615  17.356  1.00  0.00    -0.238 OA
ATOM     28  H1  UNL     1      22.729  25.137  17.618  1.00  0.00     0.164 HD
BRANCH  26  29
HETATM   29  O1  UNL     1      24.565  26.267  19.147  1.00  0.00    -0.294 OA
BRANCH  29  30
HETATM   30  C2  UNL     1      25.539  25.269  19.308  1.00  0.00     0.061 C
HETATM   31  C1  UNL     1      26.139  24.807  18.012  1.00  0.00     0.046 C
HETATM   32  C3  UNL     1      26.648  25.744  20.230  1.00  0.00     0.046 C
HETATM   33  C4  UNL     1      24.851  24.069  19.947  1.00  0.00     0.046 C
ENDBRANCH  29  30
ENDBRANCH  26  29
ENDBRANCH  24  25
ENDBRANCH  23  24
ENDBRANCH  22  23
ENDBRANCH  21  22
ENDBRANCH   1  21
BRANCH   7  34
HETATM   34  C14 UNL     1      14.991  22.146  14.824  1.00  0.00     0.091 C
HETATM   35  S1  UNL     1      13.217  22.529  14.875  1.00  0.00    -0.097 SA
ENDBRANCH   7  34
BRANCH   9  36
HETATM   36  C17 UNL     1      14.686  21.208  19.190  1.00  0.00     0.008 C
HETATM   37  C18 UNL     1      15.104  20.258  20.289  1.00  0.00     0.007 C
HETATM   38  C19 UNL     1      13.952  19.352  19.835  1.00  0.00     0.001 C
HETATM   39  C20 UNL     1      14.091  20.040  18.470  1.00  0.00     0.007 C
ENDBRANCH   9  36
TORSDOF 9
ENDMDL