MODEL 2
REMARK VINA RESULT: -9.169468557      2.670     10.018
REMARK  8 active torsions:
REMARK  status: ('A' for Active; 'I' for Inactive)
REMARK    1  A    between atoms: N1_2  and  C2_4
REMARK    2  A    between atoms: C4_8  and  C5_9
REMARK    3  A    between atoms: C5_9  and  N3_10
REMARK    4  A    between atoms: N3_10  and  C6_12
REMARK    5  A    between atoms: C9_16  and  C10_17
REMARK    6  A    between atoms: C10_17  and  N4_18
REMARK    7  A    between atoms: N4_18  and  C11_19
REMARK       I    between atoms: N4_18  and  C18_26
REMARK    8  A    between atoms: C11_19  and  C12_20
REMARK       I    between atoms: C18_26  and  N5_28
ROOT
HETATM    1  C6  UNL     1      18.504  23.720  18.218  1.00  0.00     0.115 C
HETATM    2  C7  UNL     1      18.615  24.344  19.659  1.00  0.00     0.056 C
HETATM    3  C8  UNL     1      19.765  23.868  20.436  1.00  0.00     0.173 C
HETATM    4  O1  UNL     1      20.853  23.473  19.667  1.00  0.00    -0.359 OA
HETATM    5  C9  UNL     1      21.794  24.589  19.816  1.00  0.00     0.284 C
HETATM    6  O3  UNL     1      21.221  25.580  18.989  1.00  0.00    -0.318 OA
HETATM    7  C20 UNL     1      20.480  25.456  17.788  1.00  0.00     0.087 A
HETATM    8  C21 UNL     1      20.935  26.430  16.928  1.00  0.00    -0.027 A
HETATM    9  C22 UNL     1      21.940  27.406  17.422  1.00  0.00     0.051 C
HETATM   10  C23 UNL     1      20.392  26.501  15.681  1.00  0.00     0.017 A
HETATM   11  C24 UNL     1      19.413  25.597  15.294  1.00  0.00    -0.055 A
HETATM   12  C25 UNL     1      18.762  25.686  13.968  1.00  0.00     0.049 C
HETATM   13  C26 UNL     1      18.940  24.594  16.171  1.00  0.00    -0.045 A
HETATM   14  C27 UNL     1      18.068  23.550  15.671  1.00  0.00     0.049 C
HETATM   15  C28 UNL     1      19.486  24.575  17.390  1.00  0.00     0.005 A
ENDROOT
BRANCH   1  16
HETATM   16  N3  UNL     1      17.238  24.243  17.804  1.00  0.00    -0.408 N
ATOM     17  H3  UNL     1      17.138  24.557  16.839  1.00  0.00     0.154 HD
BRANCH  16  18
HETATM   18  C5  UNL     1      16.112  24.350  18.666  1.00  0.00     0.175 C
BRANCH  18  19
HETATM   19  C4  UNL     1      15.477  22.981  18.606  1.00  0.00     0.068 A
HETATM   20  N2  UNL     1      15.633  22.106  19.583  1.00  0.00    -0.362 N
HETATM   21  C3  UNL     1      15.035  20.899  19.592  1.00  0.00     0.136 A
ATOM     22  H2  UNL     1      16.234  22.357  20.368  1.00  0.00     0.165 HD
HETATM   23  C2  UNL     1      14.219  20.574  18.528  1.00  0.00     0.117 A
HETATM   24  N7  UNL     1      14.034  21.439  17.519  1.00  0.00    -0.328 N
HETATM   25  C29 UNL     1      14.667  22.661  17.553  1.00  0.00     0.142 A
ATOM     26  H7  UNL     1      13.430  21.193  16.734  1.00  0.00     0.168 HD
HETATM   27  N6  UNL     1      14.474  23.508  16.432  1.00  0.00    -0.081 NA
BRANCH  23  28
HETATM   28  N1  UNL     1      13.694  19.394  18.505  1.00  0.00    -0.380 N
HETATM   29  C1  UNL     1      14.338  18.165  18.949  1.00  0.00     0.147 C
ATOM     30  H1  UNL     1      12.743  19.317  18.144  1.00  0.00     0.160 HD
ENDBRANCH  23  28
ENDBRANCH  18  19
ENDBRANCH  16  18
ENDBRANCH   1  16
BRANCH   5  31
HETATM   31  C10 UNL     1      23.107  24.016  19.466  1.00  0.00     0.188 C
BRANCH  31  32
HETATM   32  N4  UNL     1      24.306  24.453  20.099  1.00  0.00    -0.329 N
HETATM   33  C18 UNL     1      24.411  24.820  21.421  1.00  0.00     0.318 C
HETATM   34  O2  UNL     1      23.343  24.957  22.118  1.00  0.00    -0.247 OA
HETATM   35  N5  UNL     1      25.631  25.066  22.132  1.00  0.00    -0.347 N
HETATM   36  C19 UNL     1      25.550  25.451  23.549  1.00  0.00     0.151 C
ATOM     37  H5  UNL     1      26.534  24.976  21.666  1.00  0.00     0.163 HD
BRANCH  32  38
HETATM   38  C11 UNL     1      25.492  24.629  19.203  1.00  0.00     0.132 C
BRANCH  38  39
HETATM   39  C12 UNL     1      25.240  25.772  18.321  1.00  0.00     0.004 C
HETATM   40  C13 UNL     1      25.553  27.102  18.892  1.00  0.00     0.006 C
HETATM   41  C14 UNL     1      26.035  28.072  17.811  1.00  0.00     0.000 C
HETATM   42  C15 UNL     1      25.228  27.907  16.563  1.00  0.00     0.000 C
HETATM   43  C16 UNL     1      25.157  26.532  16.004  1.00  0.00     0.000 C
HETATM   44  C17 UNL     1      25.890  25.562  16.952  1.00  0.00     0.006 C
ENDBRANCH  38  39
ENDBRANCH  32  38
ENDBRANCH  31  32
ENDBRANCH   5  31
TORSDOF 8
ENDMDL