MODEL 5
REMARK VINA RESULT: -9.238249055      2.450      5.679
REMARK  7 active torsions:
REMARK  status: ('A' for Active; 'I' for Inactive)
REMARK       I    between atoms: N1_2  and  C2_4
REMARK    1  A    between atoms: C2_4  and  C3_6
REMARK    2  A    between atoms: C4_11  and  C5_12
REMARK    3  A    between atoms: C11_18  and  N4_19
REMARK    4  A    between atoms: C19_28  and  C20_29
REMARK       I    between atoms: C20_29  and  N5_31
REMARK    5  A    between atoms: N5_31  and  C21_33
REMARK    6  A    between atoms: C21_33  and  C22_34
REMARK    7  A    between atoms: C22_34  and  C24_36
ROOT
HETATM    1  C3  UNL     1      13.745  20.818  14.557  1.00  0.00     0.133 A
HETATM    2  N2  UNL     1      14.830  21.194  13.868  1.00  0.00    -0.294 N
ATOM      3  H2  UNL     1      14.943  21.119  12.857  1.00  0.00     0.187 HD
HETATM    4  N3  UNL     1      15.704  21.662  14.679  1.00  0.00    -0.302 N
ATOM      5  H3  UNL     1      16.615  22.012  14.384  1.00  0.00     0.186 HD
HETATM    6  C4  UNL     1      15.287  21.644  15.982  1.00  0.00     0.052 A
HETATM    7  C19 UNL     1      14.031  21.097  15.884  1.00  0.00     0.090 A
ENDROOT
BRANCH   6   8
HETATM    8  C5  UNL     1      16.093  22.145  17.097  1.00  0.00     0.006 C
HETATM    9  C6  UNL     1      16.182  21.187  18.265  1.00  0.00     0.020 C
HETATM   10  C7  UNL     1      17.180  21.757  19.261  1.00  0.00    -0.013 C
HETATM   11  C8  UNL     1      18.583  21.718  18.689  1.00  0.00     0.011 C
HETATM   12  C17 UNL     1      16.838  23.158  19.687  1.00  0.00     0.011 C
HETATM   13  C9  UNL     1      18.547  22.654  17.483  1.00  0.00     0.010 C
HETATM   14  C10 UNL     1      17.552  22.131  16.543  1.00  0.00     0.022 C
HETATM   15  C11 UNL     1      18.250  24.052  17.961  1.00  0.00     0.087 C
HETATM   16  C16 UNL     1      16.867  24.102  18.459  1.00  0.00     0.010 C
HETATM   17  C18 UNL     1      15.793  23.521  17.562  1.00  0.00     0.022 C
BRANCH  15  18
HETATM   18  N4  UNL     1      18.757  25.013  17.107  1.00  0.00    -0.406 N
HETATM   19  C12 UNL     1      19.693  25.980  17.473  1.00  0.00     0.127 C
HETATM   20  C13 UNL     1      20.469  26.550  16.273  1.00  0.00     0.093 C
HETATM   21  S1  UNL     1      20.294  25.270  14.963  1.00  0.00    -0.166 SA
HETATM   22  C14 UNL     1      18.479  25.197  14.668  1.00  0.00     0.093 C
HETATM   23  C15 UNL     1      17.859  25.379  16.041  1.00  0.00     0.127 C
ENDBRANCH  15  18
ENDBRANCH   6   8
BRANCH   7  24
HETATM   24  C20 UNL     1      13.159  20.732  17.002  1.00  0.00     0.259 C
HETATM   25  O2  UNL     1      13.526  21.031  18.140  1.00  0.00    -0.267 OA
HETATM   26  N5  UNL     1      11.935  20.057  16.791  1.00  0.00    -0.336 N
ATOM     27  H5  UNL     1      11.754  19.870  15.805  1.00  0.00     0.168 HD
BRANCH  26  28
HETATM   28  C21 UNL     1      10.920  19.589  17.624  1.00  0.00     0.070 C
BRANCH  28  29
HETATM   29  C22 UNL     1      11.090  18.285  18.265  1.00  0.00     0.051 C
HETATM   30  C23 UNL     1      11.085  17.049  17.461  1.00  0.00     0.017 C
BRANCH  29  31
HETATM   31  C24 UNL     1      12.392  18.294  19.080  1.00  0.00     0.194 C
HETATM   32  C25 UNL     1      12.124  18.118  20.550  1.00  0.00     0.034 C
HETATM   33  C26 UNL     1      13.431  18.479  21.269  1.00  0.00     0.004 C
HETATM   34  C27 UNL     1      14.572  17.671  20.731  1.00  0.00     0.027 C
HETATM   35  C28 UNL     1      14.621  17.640  19.225  1.00  0.00     0.232 C
HETATM   36  N6  UNL     1      13.328  17.305  18.649  1.00  0.00    -0.070 N
ATOM     37  H62 UNL     1      13.030  16.354  18.870  1.00  0.00     0.277 HD
ATOM     38  H61 UNL     1      13.360  17.204  17.635  1.00  0.00     0.277 HD
ENDBRANCH  29  31
ENDBRANCH  28  29
ENDBRANCH  26  28
ENDBRANCH   7  24
BRANCH   1  39
HETATM   39  C2  UNL     1      12.510  20.253  13.973  1.00  0.00     0.270 C
HETATM   40  N1  UNL     1      12.594  18.919  13.465  1.00  0.00    -0.360 N
HETATM   41  C1  UNL     1      11.432  18.269  12.867  1.00  0.00     0.149 C
ATOM     42  H1  UNL     1      13.479  18.414  13.520  1.00  0.00     0.162 HD
HETATM   43  O1  UNL     1      11.424  20.845  13.894  1.00  0.00    -0.266 OA
ENDBRANCH   1  39
TORSDOF 7
ENDMDL