MODEL 4
REMARK VINA RESULT: -9.778372509      2.670      3.705
REMARK  9 active torsions:
REMARK  status: ('A' for Active; 'I' for Inactive)
REMARK    1  A    between atoms: C3_5  and  N2_6
REMARK    2  A    between atoms: C6_13  and  C7_14
REMARK       I    between atoms: C7_14  and  N4_16
REMARK    3  A    between atoms: N4_16  and  C8_18
REMARK    4  A    between atoms: C14_24  and  C15_25
REMARK       I    between atoms: C15_25  and  N5_27
REMARK    5  A    between atoms: C16_29  and  C17_30
REMARK    6  A    between atoms: C17_30  and  C18_31
REMARK    7  A    between atoms: C18_31  and  C19_32
REMARK    8  A    between atoms: C19_32  and  N6_33
REMARK    9  A    between atoms: C28_42  and  O3_43
ROOT
HETATM    1  C8  UNL     1      15.757  21.280  17.400  1.00  0.00     0.038 C
HETATM    2  C9  UNL     1      16.256  21.658  16.047  1.00  0.00     0.036 C
HETATM    3  C10 UNL     1      16.677  23.105  16.314  1.00  0.00    -0.002 C
HETATM    4  C11 UNL     1      15.358  23.626  16.879  1.00  0.00     0.012 C
HETATM    5  C12 UNL     1      15.108  22.558  17.921  1.00  0.00     0.015 C
HETATM    6  C13 UNL     1      15.964  22.941  19.118  1.00  0.00     0.027 C
HETATM    7  C14 UNL     1      17.341  22.511  18.605  1.00  0.00     0.052 C
HETATM    8  C24 UNL     1      16.983  21.053  18.251  1.00  0.00     0.051 C
HETATM    9  C25 UNL     1      17.750  23.218  17.371  1.00  0.00    -0.020 C
HETATM   10  C26 UNL     1      19.039  22.696  16.830  1.00  0.00     0.013 C
HETATM   11  C27 UNL     1      19.943  23.765  16.299  1.00  0.00     0.032 C
HETATM   12  C28 UNL     1      19.228  24.853  15.531  1.00  0.00     0.118 C
HETATM   13  C29 UNL     1      18.058  25.435  16.252  1.00  0.00     0.032 C
HETATM   14  C30 UNL     1      17.943  24.711  17.604  1.00  0.00     0.013 C
ENDROOT
BRANCH   1  15
HETATM   15  N4  UNL     1      14.824  20.167  17.411  1.00  0.00    -0.347 N
HETATM   16  C7  UNL     1      13.799  20.056  18.351  1.00  0.00     0.256 C
HETATM   17  O1  UNL     1      13.654  20.963  19.231  1.00  0.00    -0.267 OA
ATOM     18  H4  UNL     1      14.921  19.439  16.704  1.00  0.00     0.163 HD
BRANCH  16  19
HETATM   19  C6  UNL     1      12.838  18.971  18.428  1.00  0.00     0.077 A
HETATM   20  C2  UNL     1      11.745  18.947  17.544  1.00  0.00     0.040 A
HETATM   21  C1  UNL     1      11.663  20.006  16.508  1.00  0.00     0.070 C
HETATM   22  N1  UNL     1      10.843  17.980  17.652  1.00  0.00    -0.195 N
HETATM   23  C3  UNL     1      10.961  17.026  18.594  1.00  0.00     0.676 A
ATOM     24  H1  UNL     1      10.049  17.960  17.013  1.00  0.00     0.184 HD
HETATM   25  N3  UNL     1      11.998  17.039  19.443  1.00  0.00    -0.195 N
HETATM   26  C4  UNL     1      12.966  18.007  19.390  1.00  0.00     0.040 A
ATOM     27  H3  UNL     1      12.068  16.308  20.150  1.00  0.00     0.184 HD
HETATM   28  C5  UNL     1      14.043  17.948  20.427  1.00  0.00     0.070 C
BRANCH  23  29
HETATM   29  N2  UNL     1      10.094  16.077  18.715  1.00  0.00    -0.234 N
ATOM     30  H22 UNL     1       9.390  15.979  17.984  1.00  0.00     0.174 HD
ATOM     31  H21 UNL     1      10.103  15.438  19.510  1.00  0.00     0.174 HD
ENDBRANCH  23  29
ENDBRANCH  16  19
ENDBRANCH   1  15
BRANCH   7  32
HETATM   32  C15 UNL     1      18.245  22.523  19.736  1.00  0.00     0.231 C
HETATM   33  O2  UNL     1      19.191  21.718  19.846  1.00  0.00    -0.272 OA
HETATM   34  N5  UNL     1      18.085  23.465  20.771  1.00  0.00    -0.340 N
HETATM   35  C16 UNL     1      18.748  24.504  21.019  1.00  0.00     0.064 C
ATOM     36  H5  UNL     1      17.317  23.277  21.415  1.00  0.00     0.167 HD
BRANCH  35  37
HETATM   37  C17 UNL     1      19.912  25.035  20.267  1.00  0.00     0.046 C
BRANCH  37  38
HETATM   38  C18 UNL     1      21.224  24.598  20.878  1.00  0.00     0.035 C
BRANCH  38  39
HETATM   39  C19 UNL     1      22.328  24.622  19.813  1.00  0.00     0.272 C
BRANCH  39  40
HETATM   40  N6  UNL     1      23.561  24.194  20.387  1.00  0.00     0.088 N
HETATM   41  C20 UNL     1      24.697  24.757  19.733  1.00  0.00     0.272 C
HETATM   42  C21 UNL     1      25.537  25.439  20.779  1.00  0.00     0.032 C
HETATM   43  C22 UNL     1      25.117  24.750  22.059  1.00  0.00     0.032 C
HETATM   44  C23 UNL     1      23.634  24.539  21.778  1.00  0.00     0.272 C
ENDBRANCH  39  40
ENDBRANCH  38  39
ENDBRANCH  37  38
ENDBRANCH  35  37
ENDBRANCH   7  32
BRANCH  12  45
HETATM   45  O3  UNL     1      20.169  25.860  15.314  1.00  0.00    -0.396 OA
ATOM     46  H3  UNL     1      20.233  26.344  16.130  1.00  0.00     0.210 HD
ENDBRANCH  12  45
TORSDOF 9
ENDMDL