MODEL 4
REMARK VINA RESULT: -9.052695979      2.897     10.336
REMARK  10 active torsions:
REMARK  status: ('A' for Active; 'I' for Inactive)
REMARK    1  A    between atoms: C14_20  and  C15_21
REMARK    2  A    between atoms: C16_22  and  C17_23
REMARK    3  A    between atoms: C17_23  and  O3_24
REMARK    4  A    between atoms: N3_27  and  C19_28
REMARK    5  A    between atoms: C19_28  and  C20_29
REMARK    6  A    between atoms: C20_29  and  C21_30
REMARK    7  A    between atoms: C21_30  and  C22_31
REMARK    8  A    between atoms: C22_31  and  C23_32
REMARK    9  A    between atoms: C23_32  and  C24_33
REMARK   10  A    between atoms: N5_39  and  C28_42
ROOT
HETATM    1  C15 UNL     1      17.501  23.292  18.709  1.00  0.00     0.028 A
HETATM    2  C16 UNL     1      17.460  23.105  20.059  1.00  0.00    -0.006 A
HETATM    3  C18 UNL     1      16.606  22.066  20.314  1.00  0.00     0.102 A
HETATM    4  N3  UNL     1      16.119  21.610  19.157  1.00  0.00    -0.342 N
HETATM    5  C25 UNL     1      16.585  22.276  18.108  1.00  0.00     0.124 A
HETATM    6  N4  UNL     1      16.435  22.322  16.766  1.00  0.00    -0.267 N
HETATM    7  C26 UNL     1      17.458  22.282  15.679  1.00  0.00     0.267 C
HETATM    8  N5  UNL     1      17.003  23.709  16.002  1.00  0.00    -0.304 N
HETATM    9  C27 UNL     1      15.709  23.029  15.722  1.00  0.00     0.329 C
HETATM   10  O6  UNL     1      14.707  23.127  14.999  1.00  0.00    -0.246 OA
ENDROOT
BRANCH   4  11
HETATM   11  C19 UNL     1      15.169  20.486  19.005  1.00  0.00     0.130 C
BRANCH  11  12
HETATM   12  C20 UNL     1      14.759  19.990  20.401  1.00  0.00     0.020 C
BRANCH  12  13
HETATM   13  C21 UNL     1      14.490  18.539  20.240  1.00  0.00     0.002 C
BRANCH  13  14
HETATM   14  C22 UNL     1      14.031  17.972  18.975  1.00  0.00     0.010 C
BRANCH  14  15
HETATM   15  C23 UNL     1      12.651  17.501  18.797  1.00  0.00     0.113 C
BRANCH  15  16
HETATM   16  C24 UNL     1      11.578  18.384  19.258  1.00  0.00     0.172 C
HETATM   17  O4  UNL     1      11.130  18.447  20.424  1.00  0.00    -0.648 OA
HETATM   18  O5  UNL     1      10.961  19.267  18.327  1.00  0.00    -0.648 OA
ENDBRANCH  15  16
ENDBRANCH  14  15
ENDBRANCH  13  14
ENDBRANCH  12  13
ENDBRANCH  11  12
ENDBRANCH   4  11
BRANCH   2  19
HETATM   19  C17 UNL     1      18.233  23.924  21.031  1.00  0.00     0.205 C
BRANCH  19  20
HETATM   20  O3  UNL     1      17.742  25.229  20.995  1.00  0.00    -0.396 OA
ATOM     21  H3  UNL     1      17.947  25.648  21.822  1.00  0.00     0.209 HD
ENDBRANCH  19  20
ENDBRANCH   2  19
BRANCH   1  22
HETATM   22  C14 UNL     1      18.309  24.189  17.939  1.00  0.00     0.195 C
HETATM   23  O2  UNL     1      19.241  25.024  18.491  1.00  0.00    -0.336 OA
HETATM   24  C12 UNL     1      19.680  25.814  17.410  1.00  0.00     0.108 A
HETATM   25  C11 UNL     1      18.564  26.022  16.583  1.00  0.00     0.073 A
HETATM   26  C13 UNL     1      20.868  26.387  17.001  1.00  0.00     0.045 A
HETATM   27  N2  UNL     1      18.623  26.737  15.446  1.00  0.00    -0.321 N
HETATM   28  C28 UNL     1      17.460  25.349  17.259  1.00  0.00     0.177 C
HETATM   29  C10 UNL     1      19.765  27.275  15.072  1.00  0.00     0.273 A
ATOM     30  H2  UNL     1      17.786  26.863  14.876  1.00  0.00     0.169 HD
HETATM   31  C9  UNL     1      20.922  27.130  15.816  1.00  0.00     0.115 A
HETATM   32  O1  UNL     1      19.874  27.968  13.996  1.00  0.00    -0.266 OA
HETATM   33  N1  UNL     1      22.170  27.577  15.627  1.00  0.00    -0.350 N
HETATM   34  C7  UNL     1      22.952  27.163  16.636  1.00  0.00     0.045 A
ATOM     35  H1  UNL     1      22.479  28.144  14.837  1.00  0.00     0.166 HD
HETATM   36  C6  UNL     1      22.150  26.411  17.516  1.00  0.00     0.012 A
HETATM   37  C8  UNL     1      24.291  27.354  16.898  1.00  0.00     0.037 A
HETATM   38  C4  UNL     1      22.698  25.864  18.641  1.00  0.00    -0.048 A
HETATM   39  C3  UNL     1      24.070  26.069  18.894  1.00  0.00     0.014 A
HETATM   40  C5  UNL     1      21.920  25.078  19.610  1.00  0.00     0.049 C
HETATM   41  C2  UNL     1      24.827  26.807  18.018  1.00  0.00    -0.059 A
HETATM   42  C1  UNL     1      26.275  27.023  18.286  1.00  0.00     0.048 C
ENDBRANCH   1  22
TORSDOF 10
ENDMDL