MODEL 3
REMARK VINA RESULT: -9.222755601      2.598      9.540
REMARK  11 active torsions:
REMARK  status: ('A' for Active; 'I' for Inactive)
REMARK    1  A    between atoms: C2_2  and  N1_3
REMARK    2  A    between atoms: N1_3  and  C3_4
REMARK    3  A    between atoms: N1_3  and  C26_38
REMARK    4  A    between atoms: C5_6  and  C6_7
REMARK    5  A    between atoms: C7_8  and  C8_9
REMARK    6  A    between atoms: C8_9  and  N2_11
REMARK    7  A    between atoms: C13_15  and  C14_16
REMARK    8  A    between atoms: C14_16  and  O1_17
REMARK    9  A    between atoms: C14_16  and  C15_19
REMARK   10  A    between atoms: C15_19  and  O2_20
REMARK   11  A    between atoms: N5_30  and  C20_32
ROOT
HETATM    1  C3  UNL     1      20.962  25.822  17.494  1.00  0.00     0.076 C
HETATM    2  C4  UNL     1      19.767  25.125  17.200  1.00  0.00     0.055 C
HETATM    3  C5  UNL     1      19.076  24.170  17.888  1.00  0.00     0.046 C
HETATM    4  C16 UNL     1      19.182  23.933  19.256  1.00  0.00     0.131 C
HETATM    5  C17 UNL     1      18.131  23.167  19.862  1.00  0.00     0.106 C
HETATM    6  N3  UNL     1      17.279  22.570  20.342  1.00  0.00    -0.191 NA
HETATM    7  C18 UNL     1      20.200  24.366  20.081  1.00  0.00     0.269 C
HETATM    8  O3  UNL     1      20.076  24.032  21.301  1.00  0.00    -0.266 OA
HETATM    9  N4  UNL     1      21.310  25.084  19.826  1.00  0.00    -0.307 N
ATOM     10  H4  UNL     1      21.916  25.290  20.621  1.00  0.00     0.170 HD
HETATM   11  C19 UNL     1      21.706  25.565  18.610  1.00  0.00     0.131 C
HETATM   12  N5  UNL     1      22.934  25.811  18.504  1.00  0.00    -0.370 N
ATOM     13  H5  UNL     1      23.237  26.175  17.600  1.00  0.00     0.161 HD
ENDROOT
BRANCH   3  14
HETATM   14  C6  UNL     1      18.162  23.324  17.178  1.00  0.00    -0.063 C
HETATM   15  C7  UNL     1      17.407  22.596  16.592  1.00  0.00    -0.065 C
BRANCH  15  16
HETATM   16  C8  UNL     1      16.499  21.686  15.890  1.00  0.00     0.298 C
HETATM   17  C9  UNL     1      15.641  21.002  16.964  1.00  0.00     0.057 C
BRANCH  16  18
HETATM   18  N2  UNL     1      15.594  22.363  15.020  1.00  0.00     0.111 N
HETATM   19  C10 UNL     1      16.195  22.926  13.857  1.00  0.00     0.275 C
HETATM   20  C11 UNL     1      15.229  22.720  12.730  1.00  0.00     0.033 C
HETATM   21  C12 UNL     1      14.506  21.448  13.130  1.00  0.00     0.040 C
HETATM   22  C13 UNL     1      14.431  21.624  14.639  1.00  0.00     0.255 C
BRANCH  22  23
HETATM   23  C14 UNL     1      13.145  22.364  14.916  1.00  0.00     0.175 C
BRANCH  23  24
HETATM   24  O1  UNL     1      12.431  21.667  15.888  1.00  0.00    -0.391 OA
ATOM     25  H1  UNL     1      11.883  21.022  15.457  1.00  0.00     0.210 HD
ENDBRANCH  23  24
BRANCH  23  26
HETATM   26  C15 UNL     1      13.348  23.765  15.387  1.00  0.00     0.198 C
BRANCH  26  27
HETATM   27  O2  UNL     1      13.622  23.826  16.751  1.00  0.00    -0.398 OA
ATOM     28  H2  UNL     1      13.440  24.685  17.115  1.00  0.00     0.209 HD
ENDBRANCH  26  27
ENDBRANCH  23  26
ENDBRANCH  22  23
ENDBRANCH  16  18
ENDBRANCH  15  16
ENDBRANCH   3  14
BRANCH   1  29
HETATM   29  N1  UNL     1      21.326  26.803  16.543  1.00  0.00    -0.373 N
BRANCH  29  30
HETATM   30  C2  UNL     1      22.167  27.901  16.925  1.00  0.00     0.119 C
HETATM   31  C1  UNL     1      23.462  28.036  16.210  1.00  0.00     0.026 C
ENDBRANCH  29  30
BRANCH  29  32
HETATM   32  C26 UNL     1      20.869  26.622  15.186  1.00  0.00     0.084 C
HETATM   33  C27 UNL     1      19.603  27.395  14.897  1.00  0.00     0.025 C
HETATM   34  C28 UNL     1      18.521  26.598  14.278  1.00  0.00     0.002 C
HETATM   35  C29 UNL     1      18.885  25.601  13.249  1.00  0.00     0.000 C
HETATM   36  C30 UNL     1      20.319  25.192  13.263  1.00  0.00     0.002 C
HETATM   37  C31 UNL     1      20.736  25.178  14.750  1.00  0.00     0.025 C
ENDBRANCH  29  32
ENDBRANCH   1  29
BRANCH  12  38
HETATM   38  C20 UNL     1      23.955  25.652  19.474  1.00  0.00     0.083 C
HETATM   39  C21 UNL     1      25.001  24.629  19.095  1.00  0.00     0.025 C
HETATM   40  C22 UNL     1      25.612  24.149  20.395  1.00  0.00     0.002 C
HETATM   41  C23 UNL     1      26.236  25.349  21.074  1.00  0.00     0.000 C
HETATM   42  C24 UNL     1      26.121  26.611  20.277  1.00  0.00     0.002 C
HETATM   43  C25 UNL     1      24.720  26.921  19.811  1.00  0.00     0.025 C
ENDBRANCH  12  38
TORSDOF 11
ENDMDL