MODEL 2
REMARK VINA RESULT: -10.190486752      2.400      5.664
REMARK  7 active torsions:
REMARK  status: ('A' for Active; 'I' for Inactive)
REMARK    1  A    between atoms: C1_2  and  C2_4
REMARK    2  A    between atoms: C2_4  and  C3_5
REMARK    3  A    between atoms: C7_11  and  C8_12
REMARK    4  A    between atoms: N2_18  and  C14_19
REMARK    5  A    between atoms: C14_19  and  C15_20
REMARK    6  A    between atoms: C18_23  and  C19_24
REMARK    7  A    between atoms: C19_24  and  N3_25
ROOT
HETATM    1  C15 UNL     1      16.121  23.452  14.472  1.00  0.00    -0.040 A
HETATM    2  C16 UNL     1      16.064  22.260  13.783  1.00  0.00     0.009 A
HETATM    3  C17 UNL     1      14.901  21.536  13.642  1.00  0.00     0.009 A
HETATM    4  C18 UNL     1      13.727  21.986  14.196  1.00  0.00    -0.030 A
HETATM    5  C28 UNL     1      13.758  23.172  14.889  1.00  0.00     0.009 A
HETATM    6  C29 UNL     1      14.935  23.884  15.019  1.00  0.00     0.009 A
ENDROOT
BRANCH   1   7
HETATM    7  C14 UNL     1      17.384  24.195  14.590  1.00  0.00     0.164 C
BRANCH   7   8
HETATM    8  N2  UNL     1      17.761  24.475  15.988  1.00  0.00    -0.346 N
HETATM    9  C13 UNL     1      17.106  23.686  17.005  1.00  0.00     0.126 C
HETATM   10  C12 UNL     1      17.699  22.350  17.268  1.00  0.00     0.025 C
HETATM   11  C7  UNL     1      17.771  21.977  18.737  1.00  0.00    -0.009 C
HETATM   12  C6  UNL     1      18.959  22.561  19.434  1.00  0.00     0.006 C
HETATM   13  C5  UNL     1      18.792  23.892  20.058  1.00  0.00     0.020 C
HETATM   14  C4  UNL     1      19.603  25.010  19.387  1.00  0.00     0.114 C
HETATM   15  N1  UNL     1      19.973  24.581  18.090  1.00  0.00    -0.409 N
HETATM   16  C3  UNL     1      19.919  25.485  17.021  1.00  0.00     0.179 C
ATOM     17  H1  UNL     1      20.278  23.619  17.936  1.00  0.00     0.154 HD
HETATM   18  C30 UNL     1      18.709  25.500  16.185  1.00  0.00     0.243 C
HETATM   19  O3  UNL     1      18.512  26.608  15.558  1.00  0.00    -0.271 OA
BRANCH  11  20
HETATM   20  C8  UNL     1      16.473  22.106  19.450  1.00  0.00    -0.010 C
HETATM   21  C9  UNL     1      15.518  20.988  19.005  1.00  0.00     0.005 C
HETATM   22  C10 UNL     1      15.137  20.784  20.471  1.00  0.00     0.001 C
HETATM   23  C11 UNL     1      16.474  21.456  20.816  1.00  0.00     0.005 C
ENDBRANCH  11  20
BRANCH  16  24
HETATM   24  C2  UNL     1      20.259  26.917  17.439  1.00  0.00     0.147 C
BRANCH  24  25
HETATM   25  C1  UNL     1      21.406  27.454  16.689  1.00  0.00     0.175 C
HETATM   26  O1  UNL     1      21.304  28.583  16.099  1.00  0.00    -0.648 OA
HETATM   27  O2  UNL     1      22.595  26.759  16.606  1.00  0.00    -0.648 OA
ENDBRANCH  24  25
ENDBRANCH  16  24
ENDBRANCH   7   8
ENDBRANCH   1   7
BRANCH   4  28
HETATM   28  C19 UNL     1      12.447  21.236  14.066  1.00  0.00     0.311 C
BRANCH  28  29
HETATM   29  N3  UNL     1      11.996  20.655  15.286  1.00  0.00     0.094 N
HETATM   30  C20 UNL     1      10.607  20.824  15.572  1.00  0.00     0.274 C
HETATM   31  C21 UNL     1       9.710  19.995  14.689  1.00  0.00     0.057 C
HETATM   32  C22 UNL     1       9.885  18.518  14.881  1.00  0.00     0.234 C
HETATM   33  N4  UNL     1       9.998  18.209  16.295  1.00  0.00    -0.075 N
HETATM   34  C23 UNL     1      10.737  16.999  16.528  1.00  0.00     0.233 C
ATOM     35  H42 UNL     1      10.398  18.991  16.813  1.00  0.00     0.277 HD
ATOM     36  H41 UNL     1       9.080  18.173  16.739  1.00  0.00     0.277 HD
HETATM   37  C24 UNL     1      10.974  16.866  18.017  1.00  0.00     0.055 C
HETATM   38  C25 UNL     1      11.606  18.156  18.494  1.00  0.00     0.234 C
HETATM   39  N5  UNL     1      12.283  18.777  17.371  1.00  0.00    -0.073 N
HETATM   40  C26 UNL     1      12.547  20.176  17.633  1.00  0.00     0.262 C
ATOM     41  H52 UNL     1      13.134  18.274  17.121  1.00  0.00     0.277 HD
ATOM     42  H51 UNL     1      11.764  18.649  16.503  1.00  0.00     0.277 HD
HETATM   43  C27 UNL     1      12.857  20.968  16.409  1.00  0.00     0.300 C
ENDBRANCH  28  29
ENDBRANCH   4  28
TORSDOF 7
ENDMDL