MODEL 3
REMARK VINA RESULT: -7.462195588      2.466      8.412
REMARK  7 active torsions:
REMARK  status: ('A' for Active; 'I' for Inactive)
REMARK    1  A    between atoms: C2_2  and  C3_3
REMARK    2  A    between atoms: C3_3  and  N1_4
REMARK       I    between atoms: N1_4  and  C4_6
REMARK    3  A    between atoms: C4_6  and  C5_8
REMARK    4  A    between atoms: C5_8  and  C6_9
REMARK    5  A    between atoms: C5_8  and  C25_36
REMARK    6  A    between atoms: C6_9  and  C7_10
REMARK    7  A    between atoms: C21_28  and  N3_29
ROOT
HETATM    1  C7  UNL     1      16.336  21.701  16.688  1.00  0.00     0.095 C
HETATM    2  C8  UNL     1      15.471  20.585  17.186  1.00  0.00     0.099 C
HETATM    3  S1  UNL     1      14.506  21.041  18.660  1.00  0.00    -0.167 SA
HETATM    4  C9  UNL     1      14.383  19.655  19.818  1.00  0.00     0.074 C
HETATM    5  C10 UNL     1      13.450  18.575  19.292  1.00  0.00     0.012 C
HETATM    6  C11 UNL     1      12.015  18.872  19.623  1.00  0.00     0.020 C
HETATM    7  C12 UNL     1      11.261  17.640  20.002  1.00  0.00     0.122 C
HETATM    8  N2  UNL     1      11.498  16.496  19.175  1.00  0.00    -0.361 N
ATOM      9  H2  UNL     1      12.278  15.890  19.431  1.00  0.00     0.162 HD
HETATM   10  C13 UNL     1      10.741  16.131  18.029  1.00  0.00     0.217 C
HETATM   11  O2  UNL     1      10.391  14.933  17.849  1.00  0.00    -0.274 OA
HETATM   12  C14 UNL     1      10.307  17.093  16.977  1.00  0.00     0.103 C
HETATM   13  C15 UNL     1      10.460  16.377  15.653  1.00  0.00     0.009 C
HETATM   14  C16 UNL     1      10.792  17.295  14.516  1.00  0.00     0.000 C
HETATM   15  C17 UNL     1      10.051  18.593  14.530  1.00  0.00     0.000 C
HETATM   16  C18 UNL     1      10.821  19.617  13.765  1.00  0.00     0.000 C
HETATM   17  C19 UNL     1      11.556  20.509  14.777  1.00  0.00     0.003 C
HETATM   18  C20 UNL     1      12.705  21.104  14.001  1.00  0.00     0.045 C
HETATM   19  C21 UNL     1      13.541  22.073  14.779  1.00  0.00     0.313 C
HETATM   20  C24 UNL     1      14.990  21.819  14.519  1.00  0.00     0.251 C
HETATM   21  O3  UNL     1      15.265  21.234  13.407  1.00  0.00    -0.271 OA
HETATM   22  N4  UNL     1      16.061  22.149  15.348  1.00  0.00    -0.354 N
ATOM     23  H4  UNL     1      16.743  22.794  14.950  1.00  0.00     0.162 HD
ENDROOT
BRANCH   1  24
HETATM   24  C6  UNL     1      17.785  21.512  16.961  1.00  0.00     0.051 C
BRANCH  24  25
HETATM   25  C5  UNL     1      18.486  22.600  17.700  1.00  0.00     0.180 C
BRANCH  25  26
HETATM   26  C4  UNL     1      19.189  23.592  16.875  1.00  0.00     0.232 C
HETATM   27  N1  UNL     1      18.866  23.896  15.528  1.00  0.00    -0.360 N
ATOM     28  H1  UNL     1      18.097  23.380  15.101  1.00  0.00     0.162 HD
HETATM   29  O1  UNL     1      20.159  24.245  17.376  1.00  0.00    -0.273 OA
BRANCH  27  30
HETATM   30  C3  UNL     1      19.542  24.878  14.714  1.00  0.00     0.122 C
BRANCH  30  31
HETATM   31  C2  UNL     1      18.576  25.649  13.887  1.00  0.00     0.015 C
HETATM   32  C1  UNL     1      17.138  25.314  14.304  1.00  0.00     0.006 C
ENDBRANCH  30  31
ENDBRANCH  27  30
ENDBRANCH  25  26
BRANCH  25  33
HETATM   33  C25 UNL     1      17.438  23.307  18.500  1.00  0.00     0.186 C
HETATM   34  O4  UNL     1      17.218  23.037  19.707  1.00  0.00    -0.647 OA
HETATM   35  O5  UNL     1      16.688  24.285  17.894  1.00  0.00    -0.647 OA
ENDBRANCH  25  33
ENDBRANCH  24  25
ENDBRANCH   1  24
BRANCH  19  36
HETATM   36  N3  UNL     1      13.206  23.454  14.489  1.00  0.00     0.093 N
HETATM   37  C22 UNL     1      12.089  23.632  13.624  1.00  0.00     0.310 C
HETATM   38  C23 UNL     1      13.046  24.255  15.667  1.00  0.00     0.310 C
ENDBRANCH  19  36
TORSDOF 7
ENDMDL