MODEL 5
REMARK VINA RESULT: -9.749422429      3.659      8.514
REMARK  11 active torsions:
REMARK  status: ('A' for Active; 'I' for Inactive)
REMARK    1  A    between atoms: C2_2  and  N1_3
REMARK    2  A    between atoms: N1_3  and  C4_6
REMARK    3  A    between atoms: C4_6  and  C5_7
REMARK    4  A    between atoms: C5_7  and  N2_8
REMARK       I    between atoms: N2_8  and  C6_10
REMARK    5  A    between atoms: C6_10  and  C7_12
REMARK    6  A    between atoms: C7_12  and  C8_13
REMARK    7  A    between atoms: C8_13  and  O3_14
REMARK    8  A    between atoms: O3_14  and  C9_15
REMARK    9  A    between atoms: C13_19  and  O4_20
REMARK   10  A    between atoms: C21_29  and  O5_30
REMARK   11  A    between atoms: C28_38  and  O6_39
ROOT
HETATM    1  C9  UNL     1      11.753  20.732  14.641  1.00  0.00     0.064 C
HETATM    2  C10 UNL     1      10.579  21.462  14.149  1.00  0.00     0.046 C
HETATM    3  C11 UNL     1      12.279  19.656  13.720  1.00  0.00     0.041 C
HETATM    4  C12 UNL     1      13.617  19.962  13.123  1.00  0.00     0.035 C
HETATM    5  C13 UNL     1      13.673  21.455  12.887  1.00  0.00     0.127 C
HETATM    6  C14 UNL     1      13.705  22.274  14.126  1.00  0.00    -0.005 C
HETATM    7  C15 UNL     1      12.994  23.603  13.779  1.00  0.00     0.019 C
HETATM    8  C16 UNL     1      15.034  22.698  14.643  1.00  0.00     0.005 C
HETATM    9  C17 UNL     1      15.983  23.210  13.592  1.00  0.00     0.033 C
HETATM   10  C18 UNL     1      16.996  24.056  14.279  1.00  0.00    -0.023 C
HETATM   11  C19 UNL     1      17.322  23.741  15.516  1.00  0.00    -0.072 C
HETATM   12  C20 UNL     1      18.340  24.603  16.183  1.00  0.00     0.066 C
HETATM   13  C21 UNL     1      17.968  24.878  17.619  1.00  0.00     0.122 C
HETATM   14  C22 UNL     1      16.483  24.658  17.756  1.00  0.00     0.033 C
HETATM   15  C23 UNL     1      16.082  23.229  17.503  1.00  0.00     0.016 C
HETATM   16  C24 UNL     1      16.775  22.615  16.307  1.00  0.00    -0.017 C
HETATM   17  C25 UNL     1      17.852  21.662  16.786  1.00  0.00     0.020 C
HETATM   18  C26 UNL     1      15.805  21.760  15.477  1.00  0.00     0.005 C
HETATM   19  C27 UNL     1      15.044  20.898  16.407  1.00  0.00     0.038 C
HETATM   20  C28 UNL     1      13.628  20.684  16.117  1.00  0.00     0.126 C
HETATM   21  C29 UNL     1      12.902  21.586  15.179  1.00  0.00     0.059 C
ENDROOT
BRANCH   1  22
HETATM   22  O3  UNL     1      11.276  20.029  15.781  1.00  0.00    -0.380 OA
BRANCH  22  23
HETATM   23  C8  UNL     1      10.159  19.292  15.518  1.00  0.00     0.178 C
BRANCH  23  24
HETATM   24  C7  UNL     1      10.293  17.903  16.159  1.00  0.00     0.129 C
BRANCH  24  25
HETATM   25  C6  UNL     1      10.939  18.069  17.511  1.00  0.00     0.219 C
HETATM   26  N2  UNL     1      11.940  17.155  17.896  1.00  0.00    -0.359 N
ATOM     27  H2  UNL     1      12.189  16.409  17.245  1.00  0.00     0.162 HD
HETATM   28  O2  UNL     1      10.591  18.999  18.272  1.00  0.00    -0.274 OA
BRANCH  26  29
HETATM   29  C5  UNL     1      12.633  17.215  19.163  1.00  0.00     0.159 C
BRANCH  29  30
HETATM   30  C4  UNL     1      13.952  17.923  19.024  1.00  0.00     0.331 C
BRANCH  30  31
HETATM   31  N1  UNL     1      14.138  18.758  20.217  1.00  0.00     0.011 N
HETATM   32  C3  UNL     1      12.885  18.733  20.944  1.00  0.00     0.356 C
HETATM   33  O1  UNL     1      15.082  18.147  20.970  1.00  0.00    -0.065 OA
BRANCH  31  34
HETATM   34  C2  UNL     1      14.503  20.099  19.846  1.00  0.00     0.307 C
HETATM   35  C1  UNL     1      15.393  20.702  20.929  1.00  0.00     0.043 C
ENDBRANCH  31  34
ENDBRANCH  30  31
ENDBRANCH  29  30
ENDBRANCH  26  29
ENDBRANCH  24  25
ENDBRANCH  23  24
ENDBRANCH  22  23
ENDBRANCH   1  22
BRANCH  20  36
HETATM   36  O6  UNL     1      12.911  20.720  17.348  1.00  0.00    -0.395 OA
ATOM     37  H6  UNL     1      12.572  21.600  17.468  1.00  0.00     0.210 HD
ENDBRANCH  20  36
BRANCH   5  38
HETATM   38  O4  UNL     1      14.611  21.713  11.929  1.00  0.00    -0.395 OA
ATOM     39  H4  UNL     1      14.171  21.833  11.096  1.00  0.00     0.210 HD
ENDBRANCH   5  38
BRANCH  13  40
HETATM   40  O5  UNL     1      18.226  26.206  17.958  1.00  0.00    -0.395 OA
ATOM     41  H5  UNL     1      18.888  26.263  18.637  1.00  0.00     0.210 HD
ENDBRANCH  13  40
TORSDOF 11
ENDMDL