MODEL 4
REMARK VINA RESULT: -11.005994842      1.794      2.180
REMARK  8 active torsions:
REMARK  status: ('A' for Active; 'I' for Inactive)
REMARK    1  A    between atoms: C1_2  and  C2_4
REMARK    2  A    between atoms: C2_4  and  C3_5
REMARK       I    between atoms: N1_8  and  C6_9
REMARK    3  A    between atoms: C6_9  and  C7_11
REMARK    4  A    between atoms: N2_15  and  C11_16
REMARK    5  A    between atoms: C11_16  and  O4_17
REMARK    6  A    between atoms: C11_16  and  C12_19
REMARK    7  A    between atoms: C13_22  and  C14_23
REMARK    8  A    between atoms: C15_24  and  C16_25
ROOT
HETATM    1  C11 UNL     1      18.289  24.269  19.686  1.00  0.00     0.293 C
ENDROOT
BRANCH   1   2
HETATM    2  N2  UNL     1      17.705  23.793  18.486  1.00  0.00    -0.341 N
HETATM    3  C10 UNL     1      17.904  22.480  18.085  1.00  0.00     0.066 C
HETATM    4  C9  UNL     1      18.143  22.213  16.631  1.00  0.00     0.046 C
HETATM    5  C8  UNL     1      18.150  23.433  15.760  1.00  0.00     0.019 C
HETATM    6  C7  UNL     1      16.760  24.034  15.621  1.00  0.00     0.083 C
HETATM    7  C26 UNL     1      15.939  23.726  16.863  1.00  0.00     0.059 C
HETATM    8  C25 UNL     1      16.562  24.452  18.024  1.00  0.00     0.067 C
BRANCH   6   9
HETATM    9  C6  UNL     1      16.065  23.467  14.451  1.00  0.00     0.224 C
HETATM   10  N1  UNL     1      15.302  22.281  14.457  1.00  0.00    -0.352 N
HETATM   11  C5  UNL     1      15.107  21.546  15.680  1.00  0.00     0.126 C
HETATM   12  C27 UNL     1      14.708  21.753  13.255  1.00  0.00     0.126 C
HETATM   13  C4  UNL     1      13.605  21.413  15.868  1.00  0.00     0.025 C
HETATM   14  C3  UNL     1      12.869  20.840  14.737  1.00  0.00    -0.002 C
HETATM   15  C28 UNL     1      13.347  21.209  13.372  1.00  0.00     0.025 C
HETATM   16  O3  UNL     1      16.167  24.099  13.348  1.00  0.00    -0.273 OA
BRANCH  14  17
HETATM   17  C2  UNL     1      11.411  21.206  14.819  1.00  0.00     0.117 C
BRANCH  17  18
HETATM   18  C1  UNL     1      10.496  20.058  14.853  1.00  0.00     0.172 C
HETATM   19  O1  UNL     1      10.712  18.959  14.314  1.00  0.00    -0.648 OA
HETATM   20  O2  UNL     1       9.293  20.208  15.540  1.00  0.00    -0.648 OA
ENDBRANCH  17  18
ENDBRANCH  14  17
ENDBRANCH   6   9
ENDBRANCH   1   2
BRANCH   1  21
HETATM   21  O4  UNL     1      17.364  25.035  20.438  1.00  0.00    -0.369 OA
ATOM     22  H4  UNL     1      17.767  25.386  21.224  1.00  0.00     0.212 HD
ENDBRANCH   1  21
BRANCH   1  23
HETATM   23  C12 UNL     1      19.440  25.210  19.415  1.00  0.00     0.147 A
HETATM   24  N3  UNL     1      20.097  25.385  18.263  1.00  0.00    -0.326 N
HETATM   25  C13 UNL     1      21.075  26.313  18.439  1.00  0.00     0.134 A
ATOM     26  H3  UNL     1      19.896  24.898  17.389  1.00  0.00     0.169 HD
HETATM   27  N5  UNL     1      20.963  26.668  19.727  1.00  0.00    -0.283 N
HETATM   28  N6  UNL     1      19.976  26.009  20.336  1.00  0.00    -0.284 N
ATOM     29  H5  UNL     1      21.559  27.357  20.185  1.00  0.00     0.188 HD
ATOM     30  H6  UNL     1      19.690  26.098  21.311  1.00  0.00     0.188 HD
BRANCH  25  31
HETATM   31  C14 UNL     1      22.024  26.804  17.464  1.00  0.00     0.041 A
HETATM   32  C15 UNL     1      21.739  27.413  16.263  1.00  0.00     0.028 A
HETATM   33  N4  UNL     1      22.894  27.729  15.644  1.00  0.00    -0.361 N
HETATM   34  C19 UNL     1      23.954  27.339  16.418  1.00  0.00     0.016 A
ATOM     35  H4  UNL     1      22.967  28.189  14.737  1.00  0.00     0.165 HD
HETATM   36  C20 UNL     1      23.391  26.768  17.541  1.00  0.00    -0.020 A
HETATM   37  C24 UNL     1      25.423  27.417  16.261  1.00  0.00     0.057 C
HETATM   38  C21 UNL     1      24.334  26.254  18.565  1.00  0.00     0.042 C
HETATM   39  C22 UNL     1      25.339  27.394  18.788  1.00  0.00     0.005 C
HETATM   40  C23 UNL     1      26.078  27.769  17.551  1.00  0.00     0.006 C
BRANCH  32  41
HETATM   41  C16 UNL     1      20.379  27.673  15.737  1.00  0.00     0.036 A
HETATM   42  C17 UNL     1      20.287  27.855  14.227  1.00  0.00     0.011 A
HETATM   43  C18 UNL     1      19.754  26.638  14.865  1.00  0.00     0.011 A
ENDBRANCH  32  41
ENDBRANCH  25  31
ENDBRANCH   1  23
TORSDOF 8
ENDMDL