MODEL 1
REMARK VINA RESULT: -10.410499673      0.000      0.000
REMARK  9 active torsions:
REMARK  status: ('A' for Active; 'I' for Inactive)
REMARK    1  A    between atoms: C3_4  and  O2_5
REMARK    2  A    between atoms: O2_5  and  C4_6
REMARK    3  A    between atoms: C18_20  and  C19_21
REMARK       I    between atoms: C19_21  and  N1_23
REMARK    4  A    between atoms: N1_23  and  C20_25
REMARK    5  A    between atoms: C20_25  and  C21_26
REMARK    6  A    between atoms: C21_26  and  C22_27
REMARK    7  A    between atoms: C22_27  and  C23_28
REMARK    8  A    between atoms: C29_36  and  O6_37
REMARK    9  A    between atoms: C30_39  and  O7_40
ROOT
HETATM    1  C4  UNL     1      17.959  24.504  16.365  1.00  0.00     0.128 C
HETATM    2  C5  UNL     1      17.884  22.997  16.242  1.00  0.00     0.033 C
HETATM    3  C6  UNL     1      16.555  22.586  16.890  1.00  0.00     0.016 C
HETATM    4  C7  UNL     1      15.388  23.047  16.061  1.00  0.00    -0.017 C
HETATM    5  C8  UNL     1      14.357  23.757  16.911  1.00  0.00     0.020 C
HETATM    6  C9  UNL     1      15.911  24.095  15.116  1.00  0.00    -0.072 C
HETATM    7  C10 UNL     1      15.572  24.124  13.837  1.00  0.00    -0.023 C
HETATM    8  C11 UNL     1      14.656  23.151  13.184  1.00  0.00     0.033 C
HETATM    9  C12 UNL     1      13.798  22.541  14.307  1.00  0.00    -0.001 C
HETATM   10  C13 UNL     1      14.782  21.924  15.254  1.00  0.00     0.003 C
HETATM   11  C14 UNL     1      14.228  20.875  16.126  1.00  0.00     0.007 C
HETATM   12  C15 UNL     1      13.286  19.909  15.475  1.00  0.00     0.011 C
HETATM   13  C16 UNL     1      12.830  20.207  14.111  1.00  0.00    -0.028 C
HETATM   14  C17 UNL     1      13.516  19.382  13.023  1.00  0.00     0.016 C
HETATM   15  C18 UNL     1      11.342  19.868  14.004  1.00  0.00     0.086 C
HETATM   16  C24 UNL     1      10.727  21.001  14.775  1.00  0.00     0.015 C
HETATM   17  C25 UNL     1      11.416  22.190  14.113  1.00  0.00     0.007 C
HETATM   18  C26 UNL     1      12.797  21.653  13.708  1.00  0.00    -0.001 C
HETATM   19  C27 UNL     1      16.836  25.151  15.687  1.00  0.00     0.066 C
ENDROOT
BRANCH   1  20
HETATM   20  O2  UNL     1      19.224  24.911  16.048  1.00  0.00    -0.356 OA
BRANCH  20  21
HETATM   21  C3  UNL     1      19.359  26.257  15.773  1.00  0.00     0.263 C
HETATM   22  O1  UNL     1      20.316  26.774  16.648  1.00  0.00    -0.354 OA
HETATM   23  C2  UNL     1      21.433  25.975  16.647  1.00  0.00     0.151 C
HETATM   24  C1  UNL     1      22.480  26.616  17.540  1.00  0.00     0.042 C
HETATM   25  C30 UNL     1      22.054  25.828  15.281  1.00  0.00     0.175 C
HETATM   26  C29 UNL     1      21.345  26.764  14.330  1.00  0.00     0.154 C
HETATM   27  C28 UNL     1      19.884  26.473  14.374  1.00  0.00     0.095 C
BRANCH  25  28
HETATM   28  O7  UNL     1      21.847  24.543  14.821  1.00  0.00    -0.390 OA
ATOM     29  H7  UNL     1      21.610  24.573  13.902  1.00  0.00     0.210 HD
ENDBRANCH  25  28
BRANCH  26  30
HETATM   30  O6  UNL     1      21.538  28.109  14.659  1.00  0.00    -0.393 OA
ATOM     31  H6  UNL     1      22.420  28.212  14.997  1.00  0.00     0.210 HD
ENDBRANCH  26  30
ENDBRANCH  20  21
ENDBRANCH   1  20
BRANCH  15  32
HETATM   32  C19 UNL     1      10.985  18.550  14.531  1.00  0.00     0.222 C
HETATM   33  O3  UNL     1      10.895  17.559  13.776  1.00  0.00    -0.273 OA
HETATM   34  N1  UNL     1      10.740  18.387  15.909  1.00  0.00    -0.361 N
ATOM     35  H1  UNL     1      10.812  19.189  16.535  1.00  0.00     0.162 HD
BRANCH  34  36
HETATM   36  C20 UNL     1      10.389  17.096  16.437  1.00  0.00     0.123 C
BRANCH  36  37
HETATM   37  C21 UNL     1      10.788  16.958  17.895  1.00  0.00     0.030 C
BRANCH  37  38
HETATM   38  C22 UNL     1      11.179  18.289  18.487  1.00  0.00     0.114 C
BRANCH  38  39
HETATM   39  C23 UNL     1      11.940  18.153  19.734  1.00  0.00     0.172 C
HETATM   40  O4  UNL     1      11.476  18.597  20.797  1.00  0.00    -0.648 OA
HETATM   41  O5  UNL     1      13.188  17.534  19.773  1.00  0.00    -0.648 OA
ENDBRANCH  38  39
ENDBRANCH  37  38
ENDBRANCH  36  37
ENDBRANCH  34  36
ENDBRANCH  15  32
TORSDOF 9
ENDMDL