MODEL 2
REMARK VINA RESULT: -8.982859404      5.408     11.969
REMARK  10 active torsions:
REMARK  status: ('A' for Active; 'I' for Inactive)
REMARK    1  A    between atoms: C2_2  and  C3_3
REMARK    2  A    between atoms: C3_3  and  C4_4
REMARK    3  A    between atoms: C16_17  and  O2_18
REMARK    4  A    between atoms: O2_18  and  C17_19
REMARK    5  A    between atoms: C19_21  and  C20_22
REMARK    6  A    between atoms: C19_21  and  C22_24
REMARK    7  A    between atoms: C22_24  and  O3_25
REMARK    8  A    between atoms: C23_27  and  O4_28
REMARK    9  A    between atoms: C24_30  and  N1_31
REMARK       I    between atoms: N1_31  and  C25_33
REMARK   10  A    between atoms: C27_36  and  O6_37
ROOT
HETATM    1  C4  UNL     1      17.384  23.893  16.081  1.00  0.00    -0.022 C
HETATM    2  C5  UNL     1      16.441  24.530  17.084  1.00  0.00     0.093 C
HETATM    3  C6  UNL     1      15.753  23.515  17.913  1.00  0.00     0.149 C
HETATM    4  O1  UNL     1      14.530  23.537  18.187  1.00  0.00    -0.293 OA
HETATM    5  C7  UNL     1      16.568  22.424  18.435  1.00  0.00     0.046 C
HETATM    6  C8  UNL     1      17.707  22.155  17.838  1.00  0.00    -0.017 C
HETATM    7  C9  UNL     1      18.263  22.846  16.675  1.00  0.00     0.022 C
HETATM    8  C10 UNL     1      19.574  23.488  17.022  1.00  0.00     0.004 C
HETATM    9  C11 UNL     1      19.646  24.073  18.386  1.00  0.00     0.011 C
HETATM   10  C12 UNL     1      20.131  25.495  18.232  1.00  0.00    -0.007 C
HETATM   11  C13 UNL     1      21.242  25.800  19.174  1.00  0.00     0.011 C
HETATM   12  C14 UNL     1      20.367  25.782  16.796  1.00  0.00    -0.006 C
HETATM   13  C15 UNL     1      19.717  27.116  16.383  1.00  0.00     0.019 C
HETATM   14  C16 UNL     1      21.797  25.830  16.354  1.00  0.00     0.131 C
HETATM   15  C28 UNL     1      21.691  25.312  14.903  1.00  0.00     0.034 C
HETATM   16  C29 UNL     1      20.668  24.235  14.999  1.00  0.00     0.013 C
HETATM   17  C30 UNL     1      19.696  24.645  16.059  1.00  0.00    -0.025 C
HETATM   18  C31 UNL     1      18.332  24.945  15.549  1.00  0.00     0.021 C
ENDROOT
BRANCH  14  19
HETATM   19  O2  UNL     1      22.216  27.148  16.206  1.00  0.00    -0.377 OA
BRANCH  19  20
HETATM   20  C17 UNL     1      23.321  27.482  16.982  1.00  0.00     0.153 C
HETATM   21  C18 UNL     1      24.193  26.225  16.967  1.00  0.00     0.049 C
HETATM   22  C19 UNL     1      25.420  26.414  17.833  1.00  0.00     0.011 C
HETATM   23  C23 UNL     1      25.943  27.790  17.868  1.00  0.00     0.154 C
HETATM   24  C24 UNL     1      25.473  28.756  16.843  1.00  0.00     0.145 C
HETATM   25  C27 UNL     1      24.123  28.504  16.249  1.00  0.00     0.172 C
BRANCH  22  26
HETATM   26  C20 UNL     1      26.396  25.344  17.425  1.00  0.00     0.010 C
HETATM   27  C21 UNL     1      27.255  25.650  16.261  1.00  0.00     0.006 C
ENDBRANCH  22  26
BRANCH  22  28
HETATM   28  C22 UNL     1      24.963  26.046  19.254  1.00  0.00     0.176 C
BRANCH  28  29
HETATM   29  O3  UNL     1      24.626  24.723  19.374  1.00  0.00    -0.400 OA
ATOM     30  H3  UNL     1      24.539  24.449  20.279  1.00  0.00     0.209 HD
ENDBRANCH  28  29
ENDBRANCH  22  28
BRANCH  23  31
HETATM   31  O4  UNL     1      25.792  28.379  19.147  1.00  0.00    -0.393 OA
ATOM     32  H4  UNL     1      26.574  28.847  19.416  1.00  0.00     0.210 HD
ENDBRANCH  23  31
BRANCH  24  33
HETATM   33  N1  UNL     1      25.435  30.095  17.430  1.00  0.00    -0.352 N
HETATM   34  C25 UNL     1      25.639  31.265  16.684  1.00  0.00     0.214 C
HETATM   35  C26 UNL     1      25.583  32.578  17.351  1.00  0.00     0.117 C
HETATM   36  O5  UNL     1      25.866  31.169  15.452  1.00  0.00    -0.274 OA
ATOM     37  H1  UNL     1      25.251  30.181  18.429  1.00  0.00     0.163 HD
ENDBRANCH  24  33
BRANCH  25  38
HETATM   38  O6  UNL     1      24.287  28.005  14.934  1.00  0.00    -0.391 OA
ATOM     39  H6  UNL     1      23.416  27.776  14.630  1.00  0.00     0.210 HD
ENDBRANCH  25  38
ENDBRANCH  19  20
ENDBRANCH  14  19
BRANCH   1  40
HETATM   40  C3  UNL     1      16.496  23.327  14.995  1.00  0.00     0.036 C
BRANCH  40  41
HETATM   41  C2  UNL     1      16.398  24.153  13.806  1.00  0.00    -0.036 C
HETATM   42  C1  UNL     1      15.682  23.747  12.775  1.00  0.00     0.007 C
ENDBRANCH  40  41
ENDBRANCH   1  40
TORSDOF 10
ENDMDL