MODEL 4
REMARK VINA RESULT: -9.440114298      2.990      9.825
REMARK  8 active torsions:
REMARK  status: ('A' for Active; 'I' for Inactive)
REMARK    1  A    between atoms: C2_2  and  C3_3
REMARK       I    between atoms: C3_3  and  N1_5
REMARK    2  A    between atoms: N1_5  and  C4_7
REMARK    3  A    between atoms: C4_7  and  C6_9
REMARK    4  A    between atoms: C6_9  and  N2_10
REMARK    5  A    between atoms: C10_14  and  N3_15
REMARK       I    between atoms: N3_15  and  C11_17
REMARK    6  A    between atoms: C11_17  and  C12_19
REMARK    7  A    between atoms: C13_22  and  N5_23
REMARK    8  A    between atoms: N7_30  and  C16_31
ROOT
HETATM    1  C12 UNL     1      15.641  23.404  14.396  1.00  0.00     0.177 A
HETATM    2  N4  UNL     1      15.438  22.761  13.237  1.00  0.00    -0.324 N
ATOM      3  H4  UNL     1      15.890  23.114  12.394  1.00  0.00     0.169 HD
HETATM    4  C13 UNL     1      14.646  21.646  13.143  1.00  0.00     0.110 A
HETATM    5  C14 UNL     1      14.044  21.182  14.280  1.00  0.00     0.029 A
HETATM    6  C15 UNL     1      14.279  21.874  15.465  1.00  0.00     0.115 A
HETATM    7  N6  UNL     1      15.059  22.961  15.517  1.00  0.00    -0.324 N
ATOM      8  H6  UNL     1      15.207  23.446  16.402  1.00  0.00     0.169 HD
HETATM    9  N7  UNL     1      13.689  21.411  16.677  1.00  0.00    -0.362 N
HETATM   10  C25 UNL     1      12.357  20.758  16.582  1.00  0.00     0.125 C
HETATM   11  C26 UNL     1      12.027  20.222  15.273  1.00  0.00     0.025 C
HETATM   12  C27 UNL     1      13.127  19.986  14.287  1.00  0.00     0.048 C
ENDROOT
BRANCH   1  13
HETATM   13  C11 UNL     1      16.493  24.580  14.435  1.00  0.00     0.286 C
HETATM   14  N3  UNL     1      17.870  24.521  14.080  1.00  0.00    -0.350 N
ATOM     15  H3  UNL     1      18.265  23.626  13.791  1.00  0.00     0.163 HD
HETATM   16  O2  UNL     1      15.980  25.671  14.796  1.00  0.00    -0.264 OA
BRANCH  14  17
HETATM   17  C10 UNL     1      18.736  25.689  14.115  1.00  0.00     0.086 C
HETATM   18  C9  UNL     1      20.102  25.386  13.579  1.00  0.00     0.030 C
HETATM   19  C8  UNL     1      21.122  25.558  14.675  1.00  0.00     0.046 C
HETATM   20  C7  UNL     1      20.894  24.513  15.762  1.00  0.00     0.058 C
HETATM   21  N2  UNL     1      20.177  24.992  16.852  1.00  0.00    -0.388 N
HETATM   22  C29 UNL     1      18.859  25.482  16.632  1.00  0.00     0.124 C
HETATM   23  C28 UNL     1      18.697  26.383  15.432  1.00  0.00     0.045 C
BRANCH  21  24
HETATM   24  C6  UNL     1      20.252  24.250  18.049  1.00  0.00     0.174 C
BRANCH  24  25
HETATM   25  C4  UNL     1      20.662  24.932  19.307  1.00  0.00     0.004 C
HETATM   26  C5  UNL     1      19.945  24.563  20.554  1.00  0.00     0.065 C
BRANCH  25  27
HETATM   27  N1  UNL     1      22.100  25.070  19.433  1.00  0.00    -0.330 N
HETATM   28  C3  UNL     1      22.858  26.163  18.959  1.00  0.00     0.244 C
HETATM   29  O1  UNL     1      22.290  27.113  18.376  1.00  0.00    -0.268 OA
ATOM     30  H1  UNL     1      22.604  24.317  19.902  1.00  0.00     0.168 HD
BRANCH  28  31
HETATM   31  C2  UNL     1      24.284  26.186  19.144  1.00  0.00     0.064 C
HETATM   32  C1  UNL     1      24.915  25.104  19.548  1.00  0.00     0.017 C
ENDBRANCH  28  31
ENDBRANCH  25  27
ENDBRANCH  24  25
ENDBRANCH  21  24
ENDBRANCH  14  17
ENDBRANCH   1  13
BRANCH   4  33
HETATM   33  N5  UNL     1      14.483  21.062  12.023  1.00  0.00    -0.385 N
ATOM     34  H52 UNL     1      14.618  21.560  11.142  1.00  0.00     0.157 HD
ATOM     35  H51 UNL     1      14.210  20.080  11.987  1.00  0.00     0.157 HD
ENDBRANCH   4  33
BRANCH   9  36
HETATM   36  C16 UNL     1      14.217  21.516  17.943  1.00  0.00     0.090 C
HETATM   37  C17 UNL     1      15.522  21.752  18.450  1.00  0.00     0.026 C
HETATM   38  C18 UNL     1      15.307  21.463  19.976  1.00  0.00     0.007 C
HETATM   39  C19 UNL     1      14.928  20.066  19.791  1.00  0.00    -0.008 C
HETATM   40  C20 UNL     1      14.310  19.296  20.869  1.00  0.00     0.005 C
HETATM   41  C24 UNL     1      13.880  20.190  18.657  1.00  0.00     0.012 C
HETATM   42  C21 UNL     1      13.698  18.055  20.198  1.00  0.00     0.000 C
HETATM   43  C22 UNL     1      14.393  17.800  18.854  1.00  0.00     0.000 C
HETATM   44  C23 UNL     1      14.108  18.950  17.881  1.00  0.00     0.007 C
ENDBRANCH   9  36
TORSDOF 8
ENDMDL