MODEL 2
REMARK VINA RESULT: -9.281279011      1.237      2.121
REMARK  10 active torsions:
REMARK  status: ('A' for Active; 'I' for Inactive)
REMARK    1  A    between atoms: C2_2  and  O1_3
REMARK    2  A    between atoms: O1_3  and  C3_4
REMARK    3  A    between atoms: C3_4  and  C4_6
REMARK    4  A    between atoms: C6_8  and  C7_9
REMARK    5  A    between atoms: C7_9  and  N1_10
REMARK       I    between atoms: N1_10  and  C8_11
REMARK    6  A    between atoms: C8_11  and  C9_13
REMARK    7  A    between atoms: C9_13  and  C10_14
REMARK    8  A    between atoms: C23_28  and  O5_29
REMARK    9  A    between atoms: O5_29  and  N2_30
REMARK       I    between atoms: N2_30  and  C24_32
REMARK   10  A    between atoms: C25_37  and  C26_38
ROOT
HETATM    1  C4  UNL     1      21.964  27.699  16.271  1.00  0.00     0.014 C
HETATM    2  C5  UNL     1      21.462  27.707  17.478  1.00  0.00     0.000 C
HETATM    3  C6  UNL     1      21.745  26.850  18.598  1.00  0.00     0.097 C
HETATM    4  C20 UNL     1      23.042  26.296  18.890  1.00  0.00     0.063 C
HETATM    5  O4  UNL     1      23.608  26.952  20.005  1.00  0.00    -0.354 OA
HETATM    6  C21 UNL     1      23.813  26.134  21.083  1.00  0.00     0.178 C
HETATM    7  C22 UNL     1      24.585  24.895  20.835  1.00  0.00     0.066 C
HETATM    8  C23 UNL     1      24.974  24.491  19.507  1.00  0.00     0.184 C
HETATM    9  C25 UNL     1      25.357  25.481  18.449  1.00  0.00    -0.033 C
HETATM   10  C30 UNL     1      24.075  26.003  17.865  1.00  0.00    -0.022 C
HETATM   11  C31 UNL     1      24.211  26.903  16.689  1.00  0.00     0.046 C
HETATM   12  C32 UNL     1      22.991  26.791  15.742  1.00  0.00     0.049 C
ENDROOT
BRANCH   3  13
HETATM   13  C7  UNL     1      20.594  25.787  18.618  1.00  0.00     0.237 C
BRANCH  13  14
HETATM   14  N1  UNL     1      20.317  25.293  17.377  1.00  0.00    -0.414 NA
HETATM   15  C8  UNL     1      20.039  24.796  16.127  1.00  0.00     0.287 C
HETATM   16  O3  UNL     1      20.911  24.476  15.291  1.00  0.00    -0.258 OA
BRANCH  15  17
HETATM   17  C9  UNL     1      18.626  24.591  15.667  1.00  0.00     0.128 C
BRANCH  17  18
HETATM   18  C10 UNL     1      17.765  23.728  16.504  1.00  0.00    -0.030 C
HETATM   19  C11 UNL     1      17.072  24.593  17.523  1.00  0.00     0.014 C
HETATM   20  C12 UNL     1      16.015  23.839  18.287  1.00  0.00    -0.013 C
HETATM   21  C13 UNL     1      16.728  22.723  19.026  1.00  0.00     0.009 C
HETATM   22  C17 UNL     1      14.990  23.273  17.362  1.00  0.00     0.009 C
HETATM   23  C14 UNL     1      17.356  21.821  17.994  1.00  0.00    -0.013 C
HETATM   24  C15 UNL     1      16.312  21.228  17.097  1.00  0.00     0.009 C
HETATM   25  C19 UNL     1      18.399  22.556  17.162  1.00  0.00     0.014 C
HETATM   26  C16 UNL     1      15.688  22.390  16.337  1.00  0.00    -0.013 C
HETATM   27  C18 UNL     1      16.682  23.167  15.559  1.00  0.00     0.014 C
ENDBRANCH  17  18
ENDBRANCH  15  17
ENDBRANCH  13  14
ENDBRANCH   3  13
BRANCH   1  28
HETATM   28  C3  UNL     1      21.477  28.688  15.356  1.00  0.00     0.289 C
HETATM   29  O2  UNL     1      22.224  29.574  14.877  1.00  0.00    -0.260 OA
BRANCH  28  30
HETATM   30  O1  UNL     1      20.128  28.721  14.948  1.00  0.00    -0.318 OA
BRANCH  30  31
HETATM   31  C2  UNL     1      19.694  27.797  13.940  1.00  0.00     0.174 C
HETATM   32  C1  UNL     1      19.995  28.356  12.591  1.00  0.00     0.034 C
ENDBRANCH  30  31
ENDBRANCH  28  30
ENDBRANCH   1  28
BRANCH   9  33
HETATM   33  C26 UNL     1      26.572  26.239  18.596  1.00  0.00    -0.025 C
HETATM   34  C27 UNL     1      27.447  26.056  19.817  1.00  0.00     0.019 C
HETATM   35  C28 UNL     1      26.562  27.730  18.376  1.00  0.00     0.019 C
HETATM   36  C29 UNL     1      27.592  25.842  17.473  1.00  0.00     0.019 C
ENDBRANCH   9  33
BRANCH   8  37
HETATM   37  O5  UNL     1      25.962  23.497  19.628  1.00  0.00    -0.268 OA
BRANCH  37  38
HETATM   38  N2  UNL     1      25.707  22.373  18.973  1.00  0.00    -0.238 N
HETATM   39  C24 UNL     1      25.812  21.124  19.647  1.00  0.00     0.205 C
HETATM   40  N3  UNL     1      25.359  20.066  19.061  1.00  0.00    -0.372 N
HETATM   41  N4  UNL     1      26.390  20.968  20.927  1.00  0.00    -0.062 NA
ATOM     42  H32 UNL     1      24.942  20.179  18.136  1.00  0.00     0.158 HD
ATOM     43  H31 UNL     1      25.434  19.171  19.544  1.00  0.00     0.158 HD
ATOM     44  H2  UNL     1      25.436  22.404  17.991  1.00  0.00     0.197 HD
ENDBRANCH  37  38
ENDBRANCH   8  37
TORSDOF 10
ENDMDL