MODEL 2
REMARK VINA RESULT: -7.687008340      0.723      1.166
REMARK  10 active torsions:
REMARK  status: ('A' for Active; 'I' for Inactive)
REMARK    1  A    between atoms: C2_2  and  C3_3
REMARK    2  A    between atoms: C3_3  and  C4_4
REMARK    3  A    between atoms: C4_4  and  C5_5
REMARK    4  A    between atoms: C8_10  and  C9_11
REMARK    5  A    between atoms: C9_11  and  C11_13
REMARK    6  A    between atoms: C14_18  and  C15_19
REMARK    7  A    between atoms: C15_19  and  C16_20
REMARK    8  A    between atoms: C23_30  and  C24_31
REMARK    9  A    between atoms: C24_31  and  C26_33
REMARK   10  A    between atoms: C28_35  and  O4_36
ROOT
HETATM    1  C5  UNL     1      19.560  25.248  18.528  1.00  0.00     0.093 C
HETATM    2  C6  UNL     1      19.629  26.402  17.580  1.00  0.00     0.136 C
HETATM    3  C7  UNL     1      20.776  27.318  17.802  1.00  0.00     0.261 C
HETATM    4  O1  UNL     1      20.903  27.801  18.957  1.00  0.00    -0.265 OA
HETATM    5  O2  UNL     1      21.614  27.580  16.749  1.00  0.00    -0.314 OA
HETATM    6  C8  UNL     1      22.252  26.692  15.891  1.00  0.00     0.153 C
HETATM    7  C13 UNL     1      23.663  26.322  16.293  1.00  0.00     0.147 C
HETATM    8  N1  UNL     1      24.094  27.131  17.383  1.00  0.00    -0.407 N
ATOM      9  H1  UNL     1      23.504  27.316  18.194  1.00  0.00     0.154 HD
HETATM   10  C14 UNL     1      25.434  27.674  17.255  1.00  0.00     0.169 C
HETATM   11  C22 UNL     1      26.359  27.190  18.312  1.00  0.00     0.240 C
HETATM   12  O3  UNL     1      27.587  27.116  17.920  1.00  0.00    -0.271 OA
HETATM   13  N2  UNL     1      26.053  26.827  19.618  1.00  0.00    -0.347 N
ATOM     14  H2  UNL     1      26.578  27.319  20.341  1.00  0.00     0.163 HD
HETATM   15  C23 UNL     1      25.096  25.848  20.101  1.00  0.00     0.163 C
HETATM   16  C28 UNL     1      23.906  26.438  20.736  1.00  0.00     0.137 C
HETATM   17  N3  UNL     1      22.761  25.858  21.231  1.00  0.00    -0.355 N
HETATM   18  C29 UNL     1      22.075  26.548  22.355  1.00  0.00     0.152 C
HETATM   19  C30 UNL     1      22.038  24.663  20.869  1.00  0.00     0.173 C
HETATM   20  C31 UNL     1      22.445  23.967  19.633  1.00  0.00     0.042 C
HETATM   21  C32 UNL     1      20.561  24.916  20.879  1.00  0.00     0.240 C
HETATM   22  O5  UNL     1      19.954  24.452  21.915  1.00  0.00    -0.271 OA
HETATM   23  N4  UNL     1      19.804  25.581  19.911  1.00  0.00    -0.354 N
ATOM     24  H4  UNL     1      19.354  26.438  20.232  1.00  0.00     0.162 HD
ENDROOT
BRANCH  10  25
HETATM   25  C15 UNL     1      25.293  29.175  17.274  1.00  0.00     0.039 C
BRANCH  25  26
HETATM   26  C16 UNL     1      25.786  29.910  16.105  1.00  0.00    -0.012 C
HETATM   27  C17 UNL     1      27.247  30.281  16.405  1.00  0.00     0.005 C
HETATM   28  C18 UNL     1      27.685  31.449  15.549  1.00  0.00     0.000 C
HETATM   29  C19 UNL     1      27.080  32.744  16.084  1.00  0.00     0.000 C
HETATM   30  C20 UNL     1      25.749  32.361  16.698  1.00  0.00     0.000 C
HETATM   31  C21 UNL     1      25.060  31.233  15.964  1.00  0.00     0.005 C
ENDBRANCH  25  26
ENDBRANCH  10  25
BRANCH   6  32
HETATM   32  C9  UNL     1      22.233  27.358  14.506  1.00  0.00     0.012 C
HETATM   33  C10 UNL     1      22.465  28.866  14.708  1.00  0.00     0.012 C
BRANCH  32  34
HETATM   34  C11 UNL     1      20.883  27.266  13.840  1.00  0.00     0.002 C
HETATM   35  C12 UNL     1      20.666  28.635  13.181  1.00  0.00     0.005 C
ENDBRANCH  32  34
ENDBRANCH   6  32
BRANCH  15  36
HETATM   36  C24 UNL     1      25.854  24.849  20.905  1.00  0.00     0.012 C
HETATM   37  C25 UNL     1      25.445  24.965  22.397  1.00  0.00     0.012 C
BRANCH  36  38
HETATM   38  C26 UNL     1      25.707  23.419  20.576  1.00  0.00     0.002 C
HETATM   39  C27 UNL     1      26.063  22.992  19.186  1.00  0.00     0.005 C
ENDBRANCH  36  38
ENDBRANCH  15  36
BRANCH  16  40
HETATM   40  O4  UNL     1      23.962  27.738  20.840  1.00  0.00    -0.348 OA
ATOM     41  H4  UNL     1      24.777  28.054  21.213  1.00  0.00     0.219 HD
ENDBRANCH  16  40
BRANCH   1  42
HETATM   42  C4  UNL     1      18.153  24.671  18.464  1.00  0.00     0.026 C
BRANCH  42  43
HETATM   43  C3  UNL     1      17.366  25.126  17.280  1.00  0.00     0.002 C
BRANCH  43  44
HETATM   44  C2  UNL     1      17.361  24.040  16.211  1.00  0.00    -0.004 C
HETATM   45  C1  UNL     1      17.770  24.660  14.884  1.00  0.00     0.005 C
ENDBRANCH  43  44
ENDBRANCH  42  43
ENDBRANCH   1  42
TORSDOF 10
ENDMDL