MODEL 4
REMARK VINA RESULT: -9.786206731      3.199     10.694
REMARK  10 active torsions:
REMARK  status: ('A' for Active; 'I' for Inactive)
REMARK       I    between atoms: C2_2  and  N1_4
REMARK    1  A    between atoms: N1_4  and  C3_6
REMARK    2  A    between atoms: C9_17  and  C10_18
REMARK    3  A    between atoms: C12_23  and  C13_24
REMARK    4  A    between atoms: C13_24  and  C14_25
REMARK    5  A    between atoms: C14_25  and  C15_26
REMARK    6  A    between atoms: C15_26  and  C16_27
REMARK    7  A    between atoms: C16_27  and  C17_28
REMARK    8  A    between atoms: C17_28  and  C18_29
REMARK    9  A    between atoms: C18_29  and  C19_30
REMARK   10  A    between atoms: C19_30  and  C20_31
ROOT
HETATM    1  C10 UNL     1      17.389  25.236  16.826  1.00  0.00     0.216 C
HETATM    2  C11 UNL     1      17.533  24.669  15.447  1.00  0.00     0.236 C
HETATM    3  O4  UNL     1      17.810  25.431  14.496  1.00  0.00    -0.272 OA
HETATM    4  N3  UNL     1      17.344  23.264  15.279  1.00  0.00    -0.354 N
ATOM      5  H3  UNL     1      17.898  22.769  14.581  1.00  0.00     0.162 HD
HETATM    6  C12 UNL     1      16.383  22.521  16.075  1.00  0.00     0.100 C
HETATM    7  C25 UNL     1      16.414  22.911  17.528  1.00  0.00     0.042 C
HETATM    8  C26 UNL     1      15.138  22.483  18.234  1.00  0.00     0.019 C
HETATM    9  C27 UNL     1      15.583  22.100  19.655  1.00  0.00     0.001 C
HETATM   10  C28 UNL     1      16.816  21.267  19.289  1.00  0.00     0.001 C
HETATM   11  C29 UNL     1      17.482  22.125  18.270  1.00  0.00     0.019 C
HETATM   12  C30 UNL     1      16.659  24.371  17.737  1.00  0.00     0.158 C
HETATM   13  O5  UNL     1      16.209  24.900  18.763  1.00  0.00    -0.296 OA
ENDROOT
BRANCH   1  14
HETATM   14  C9  UNL     1      18.805  25.544  17.250  1.00  0.00     0.112 A
HETATM   15  N2  UNL     1      19.531  26.274  16.482  1.00  0.00    -0.268 N
HETATM   16  S1  UNL     1      21.155  26.706  16.831  1.00  0.00     0.266 S
ATOM     17  H2  UNL     1      19.118  26.617  15.615  1.00  0.00     0.180 HD
HETATM   18  C7  UNL     1      21.553  25.972  18.371  1.00  0.00     0.108 A
HETATM   19  O2  UNL     1      22.043  26.109  15.768  1.00  0.00    -0.200 OA
HETATM   20  O3  UNL     1      21.319  28.201  16.898  1.00  0.00    -0.200 OA
HETATM   21  C6  UNL     1      20.594  25.227  19.006  1.00  0.00     0.057 A
HETATM   22  C8  UNL     1      22.808  26.136  18.933  1.00  0.00     0.057 A
HETATM   23  C5  UNL     1      20.963  24.662  20.229  1.00  0.00     0.033 A
HETATM   24  N5  UNL     1      19.319  25.042  18.463  1.00  0.00    -0.343 N
HETATM   25  C4  UNL     1      22.186  24.801  20.817  1.00  0.00     0.032 A
HETATM   26  C3  UNL     1      23.153  25.570  20.144  1.00  0.00     0.036 A
ATOM     27  H5  UNL     1      18.678  24.471  19.016  1.00  0.00     0.167 HD
BRANCH  26  28
HETATM   28  N1  UNL     1      24.411  25.689  20.743  1.00  0.00    -0.327 N
HETATM   29  C2  UNL     1      24.765  26.608  21.722  1.00  0.00     0.218 C
HETATM   30  C1  UNL     1      26.166  26.656  22.299  1.00  0.00     0.117 C
HETATM   31  O1  UNL     1      23.984  27.446  22.194  1.00  0.00    -0.274 OA
ATOM     32  H1  UNL     1      25.135  25.042  20.432  1.00  0.00     0.169 HD
ENDBRANCH  26  28
ENDBRANCH   1  14
BRANCH   6  33
HETATM   33  C13 UNL     1      14.985  22.709  15.449  1.00  0.00     0.026 C
BRANCH  33  34
HETATM   34  C14 UNL     1      14.837  21.787  14.297  1.00  0.00     0.002 C
BRANCH  34  35
HETATM   35  C15 UNL     1      13.505  21.557  13.740  1.00  0.00     0.000 C
BRANCH  35  36
HETATM   36  C16 UNL     1      12.243  21.724  14.445  1.00  0.00     0.000 C
BRANCH  36  37
HETATM   37  C17 UNL     1      11.696  20.656  15.299  1.00  0.00     0.000 C
BRANCH  37  38
HETATM   38  C18 UNL     1      12.521  20.282  16.470  1.00  0.00     0.000 C
BRANCH  38  39
HETATM   39  C19 UNL     1      11.933  19.544  17.596  1.00  0.00     0.005 C
BRANCH  39  40
HETATM   40  C20 UNL     1      12.730  19.322  18.821  1.00  0.00    -0.011 C
HETATM   41  C21 UNL     1      14.117  18.837  18.714  1.00  0.00     0.032 C
HETATM   42  C22 UNL     1      14.473  17.933  19.924  1.00  0.00     0.232 C
HETATM   43  N4  UNL     1      13.873  18.466  21.127  1.00  0.00    -0.075 N
HETATM   44  C23 UNL     1      12.421  18.302  21.076  1.00  0.00     0.232 C
ATOM     45  H42 UNL     1      14.274  18.056  21.970  1.00  0.00     0.277 HD
ATOM     46  H41 UNL     1      14.143  19.436  21.292  1.00  0.00     0.277 HD
HETATM   47  C24 UNL     1      11.936  18.291  19.663  1.00  0.00     0.032 C
ENDBRANCH  39  40
ENDBRANCH  38  39
ENDBRANCH  37  38
ENDBRANCH  36  37
ENDBRANCH  35  36
ENDBRANCH  34  35
ENDBRANCH  33  34
ENDBRANCH   6  33
TORSDOF 10
ENDMDL