MODEL 4
REMARK VINA RESULT: -9.225317050      0.504      1.078
REMARK  12 active torsions:
REMARK  status: ('A' for Active; 'I' for Inactive)
REMARK    1  A    between atoms: C2_2  and  C4_4
REMARK       I    between atoms: C4_4  and  N1_6
REMARK    2  A    between atoms: N1_6  and  C5_8
REMARK    3  A    between atoms: C17_20  and  C18_21
REMARK    4  A    between atoms: C17_20  and  S2_36
REMARK    5  A    between atoms: C19_22  and  C20_23
REMARK    6  A    between atoms: C20_23  and  C21_24
REMARK    7  A    between atoms: C21_24  and  O2_25
REMARK    8  A    between atoms: C21_24  and  N2_27
REMARK       I    between atoms: N2_27  and  C22_29
REMARK    9  A    between atoms: C22_29  and  C23_31
REMARK   10  A    between atoms: C23_31  and  C24_32
REMARK   11  A    between atoms: C24_32  and  S1_33
REMARK   12  A    between atoms: S2_36  and  C25_37
ROOT
HETATM    1  C5  UNL     1      19.095  24.181  20.980  1.00  0.00     0.088 C
HETATM    2  C6  UNL     1      19.939  22.899  20.864  1.00  0.00     0.026 C
HETATM    3  C7  UNL     1      19.092  21.940  20.013  1.00  0.00     0.007 C
HETATM    4  C8  UNL     1      17.840  22.689  19.770  1.00  0.00    -0.004 C
HETATM    5  C9  UNL     1      18.366  24.130  19.679  1.00  0.00     0.013 C
HETATM    6  C10 UNL     1      17.157  24.992  19.557  1.00  0.00     0.008 C
HETATM    7  C11 UNL     1      16.641  24.718  18.132  1.00  0.00     0.012 C
HETATM    8  C12 UNL     1      16.175  23.316  17.983  1.00  0.00    -0.012 C
HETATM    9  C13 UNL     1      14.750  23.297  18.569  1.00  0.00     0.018 C
HETATM   10  C14 UNL     1      16.972  22.276  18.672  1.00  0.00     0.001 C
HETATM   11  C15 UNL     1      17.655  21.567  17.534  1.00  0.00     0.008 C
HETATM   12  C16 UNL     1      16.475  21.471  16.545  1.00  0.00     0.035 C
HETATM   13  C17 UNL     1      16.022  22.914  16.531  1.00  0.00     0.079 C
ENDROOT
BRANCH  13  14
HETATM   14  C18 UNL     1      16.923  23.717  15.664  1.00  0.00    -0.085 C
HETATM   15  C19 UNL     1      17.641  24.372  14.937  1.00  0.00    -0.101 C
BRANCH  15  16
HETATM   16  C20 UNL     1      18.507  25.140  14.043  1.00  0.00     0.147 C
BRANCH  16  17
HETATM   17  C21 UNL     1      18.619  26.546  14.605  1.00  0.00     0.231 C
BRANCH  17  18
HETATM   18  O2  UNL     1      18.693  27.397  13.501  1.00  0.00    -0.376 OA
ATOM     19  H2  UNL     1      18.389  28.245  13.803  1.00  0.00     0.212 HD
ENDBRANCH  17  18
BRANCH  17  20
HETATM   20  N2  UNL     1      19.850  26.571  15.369  1.00  0.00    -0.334 N
HETATM   21  C22 UNL     1      20.609  27.732  15.618  1.00  0.00     0.220 C
HETATM   22  O3  UNL     1      20.187  28.819  15.142  1.00  0.00    -0.274 OA
ATOM     23  H2  UNL     1      20.190  25.688  15.752  1.00  0.00     0.165 HD
BRANCH  21  24
HETATM   24  C23 UNL     1      21.857  27.744  16.396  1.00  0.00     0.118 C
BRANCH  24  25
HETATM   25  C24 UNL     1      22.639  26.467  16.198  1.00  0.00     0.166 C
BRANCH  25  26
HETATM   26  S1  UNL     1      24.219  26.786  16.085  1.00  0.00     0.251 S
HETATM   27  O4  UNL     1      25.151  25.799  16.193  1.00  0.00    -0.212 OA
HETATM   28  O5  UNL     1      24.628  27.950  15.192  1.00  0.00    -0.212 OA
ENDBRANCH  25  26
ENDBRANCH  24  25
ENDBRANCH  21  24
ENDBRANCH  17  20
ENDBRANCH  16  17
ENDBRANCH  15  16
ENDBRANCH  13  14
BRANCH  13  29
HETATM   29  S2  UNL     1      14.343  23.169  15.983  1.00  0.00    -0.140 SA
BRANCH  29  30
HETATM   30  C25 UNL     1      13.386  21.694  15.684  1.00  0.00     0.049 C
HETATM   31  C26 UNL     1      14.248  20.618  15.041  1.00  0.00     0.015 C
HETATM   32  C27 UNL     1      13.858  20.304  13.634  1.00  0.00     0.001 C
HETATM   33  C28 UNL     1      13.613  21.489  12.758  1.00  0.00     0.000 C
HETATM   34  C29 UNL     1      12.847  22.583  13.473  1.00  0.00     0.001 C
HETATM   35  C30 UNL     1      12.250  21.942  14.726  1.00  0.00     0.015 C
ENDBRANCH  29  30
ENDBRANCH  13  29
BRANCH   1  36
HETATM   36  N1  UNL     1      19.881  25.337  21.203  1.00  0.00    -0.356 N
HETATM   37  C4  UNL     1      20.797  25.780  20.218  1.00  0.00     0.221 C
HETATM   38  O1  UNL     1      20.919  25.142  19.123  1.00  0.00    -0.273 OA
ATOM     39  H1  UNL     1      19.787  25.853  22.077  1.00  0.00     0.162 HD
BRANCH  37  40
HETATM   40  C2  UNL     1      21.651  26.979  20.385  1.00  0.00     0.070 C
HETATM   41  C1  UNL     1      23.079  26.724  20.010  1.00  0.00     0.019 C
HETATM   42  C3  UNL     1      21.661  27.389  21.864  1.00  0.00     0.019 C
ENDBRANCH  37  40
ENDBRANCH   1  36
TORSDOF 12
ENDMDL