MODEL 1
REMARK VINA RESULT: -9.371395142      0.000      0.000
REMARK  14 active torsions:
REMARK  status: ('A' for Active; 'I' for Inactive)
REMARK    1  A    between atoms: C2_2  and  C3_3
REMARK    2  A    between atoms: C2_2  and  N4_40
REMARK    3  A    between atoms: C3_3  and  C4_4
REMARK    4  A    between atoms: C4_4  and  N1_6
REMARK    5  A    between atoms: C4_4  and  C24_32
REMARK    6  A    between atoms: N1_6  and  C6_8
REMARK    7  A    between atoms: C6_8  and  C7_9
REMARK    8  A    between atoms: C7_9  and  O1_10
REMARK    9  A    between atoms: C7_9  and  C8_12
REMARK   10  A    between atoms: C8_12  and  N2_13
REMARK   11  A    between atoms: C8_12  and  C20_28
REMARK       I    between atoms: N2_13  and  C9_15
REMARK   12  A    between atoms: C9_15  and  O3_17
REMARK   13  A    between atoms: O3_17  and  C10_18
REMARK       I    between atoms: C24_32  and  N3_34
REMARK   14  A    between atoms: N3_34  and  C25_36
ROOT
HETATM    1  C7  UNL     1      17.931  21.938  18.958  1.00  0.00     0.159 C
ENDROOT
BRANCH   1   2
HETATM    2  C6  UNL     1      17.468  21.832  17.502  1.00  0.00     0.149 C
BRANCH   2   3
HETATM    3  N1  UNL     1      16.439  20.903  17.391  1.00  0.00    -0.403 N
ATOM      4  H1  UNL     1      16.708  19.921  17.317  1.00  0.00     0.154 HD
BRANCH   3   5
HETATM    5  C4  UNL     1      15.085  21.184  17.372  1.00  0.00     0.105 C
HETATM    6  C5  UNL     1      14.639  22.418  18.126  1.00  0.00     0.049 C
BRANCH   5   7
HETATM    7  C3  UNL     1      14.209  19.990  17.502  1.00  0.00     0.065 C
BRANCH   7   8
HETATM    8  C2  UNL     1      12.985  20.016  18.317  1.00  0.00     0.087 C
HETATM    9  C1  UNL     1      11.724  19.675  17.551  1.00  0.00     0.033 C
BRANCH   8  10
HETATM   10  N4  UNL     1      13.138  19.236  19.494  1.00  0.00    -0.365 N
HETATM   11  C29 UNL     1      14.288  19.391  20.276  1.00  0.00     0.089 C
HETATM   12  C30 UNL     1      14.342  18.477  21.483  1.00  0.00     0.212 C
HETATM   13  O5  UNL     1      13.051  18.424  22.028  1.00  0.00    -0.381 OA
HETATM   14  C31 UNL     1      12.290  17.641  21.149  1.00  0.00     0.212 C
HETATM   15  C32 UNL     1      12.213  18.222  19.768  1.00  0.00     0.089 C
ENDBRANCH   8  10
ENDBRANCH   7   8
ENDBRANCH   5   7
BRANCH   5  16
HETATM   16  C24 UNL     1      14.813  21.592  15.874  1.00  0.00     0.246 C
HETATM   17  O4  UNL     1      15.139  22.738  15.538  1.00  0.00    -0.271 OA
HETATM   18  N3  UNL     1      14.233  20.665  15.017  1.00  0.00    -0.351 N
ATOM     19  H3  UNL     1      14.004  19.747  15.399  1.00  0.00     0.163 HD
BRANCH  18  20
HETATM   20  C25 UNL     1      13.932  20.900  13.642  1.00  0.00     0.022 C
HETATM   21  C26 UNL     1      15.147  21.349  12.850  1.00  0.00     0.037 C
HETATM   22  C27 UNL     1      12.864  21.980  13.471  1.00  0.00     0.037 C
HETATM   23  C28 UNL     1      13.383  19.662  12.955  1.00  0.00     0.037 C
ENDBRANCH  18  20
ENDBRANCH   5  16
ENDBRANCH   3   5
ENDBRANCH   2   3
ENDBRANCH   1   2
BRANCH   1  24
HETATM   24  O1  UNL     1      17.181  21.236  19.848  1.00  0.00    -0.392 OA
ATOM     25  H1  UNL     1      17.588  21.104  20.695  1.00  0.00     0.210 HD
ENDBRANCH   1  24
BRANCH   1  26
HETATM   26  C8  UNL     1      18.210  23.311  19.427  1.00  0.00     0.124 C
BRANCH  26  27
HETATM   27  N2  UNL     1      18.449  24.127  18.223  1.00  0.00    -0.329 N
HETATM   28  C9  UNL     1      17.585  25.185  17.865  1.00  0.00     0.361 C
HETATM   29  O2  UNL     1      16.601  25.440  18.567  1.00  0.00    -0.238 OA
ATOM     30  H2  UNL     1      19.256  23.922  17.635  1.00  0.00     0.165 HD
BRANCH  28  31
HETATM   31  O3  UNL     1      17.829  25.928  16.749  1.00  0.00    -0.298 OA
BRANCH  31  32
HETATM   32  C10 UNL     1      18.655  25.558  15.672  1.00  0.00     0.138 C
HETATM   33  C11 UNL     1      18.314  26.313  14.405  1.00  0.00     0.037 C
HETATM   34  C12 UNL     1      19.566  26.328  13.536  1.00  0.00    -0.011 C
HETATM   35  C13 UNL     1      20.322  27.630  13.700  1.00  0.00     0.009 C
HETATM   36  C17 UNL     1      20.453  25.157  13.811  1.00  0.00     0.010 C
HETATM   37  C14 UNL     1      21.080  27.696  14.997  1.00  0.00    -0.013 C
HETATM   38  C15 UNL     1      22.074  26.533  15.020  1.00  0.00     0.010 C
HETATM   39  C19 UNL     1      20.208  27.367  16.163  1.00  0.00     0.012 C
HETATM   40  C16 UNL     1      21.118  25.353  15.158  1.00  0.00    -0.007 C
HETATM   41  C18 UNL     1      20.075  25.848  16.105  1.00  0.00     0.020 C
ENDBRANCH  31  32
ENDBRANCH  28  31
ENDBRANCH  26  27
BRANCH  26  42
HETATM   42  C20 UNL     1      19.336  23.516  20.362  1.00  0.00    -0.028 C
HETATM   43  C21 UNL     1      20.657  23.852  19.667  1.00  0.00     0.016 C
HETATM   44  C22 UNL     1      18.973  24.745  21.234  1.00  0.00     0.016 C
HETATM   45  C23 UNL     1      19.629  22.407  21.314  1.00  0.00     0.016 C
ENDBRANCH  26  42
ENDBRANCH   1  26
TORSDOF 14
ENDMDL