MODEL 1
REMARK VINA RESULT: -8.253744827      0.000      0.000
REMARK  11 active torsions:
REMARK  status: ('A' for Active; 'I' for Inactive)
REMARK       I    between atoms: C2_2  and  N1_4
REMARK    1  A    between atoms: N1_4  and  C3_5
REMARK    2  A    between atoms: N1_4  and  C31_41
REMARK    3  A    between atoms: C3_5  and  C4_6
REMARK    4  A    between atoms: C4_6  and  C5_7
REMARK    5  A    between atoms: C5_7  and  C6_8
REMARK    6  A    between atoms: C6_8  and  O2_9
REMARK    7  A    between atoms: C6_8  and  N2_11
REMARK    8  A    between atoms: N2_11  and  C7_14
REMARK    9  A    between atoms: C15_23  and  O4_24
REMARK   10  A    between atoms: C31_41  and  C32_42
REMARK   11  A    between atoms: C32_42  and  C33_43
ROOT
HETATM    1  C7  UNL     1      17.839  23.102  19.382  1.00  0.00     0.197 C
HETATM    2  C8  UNL     1      18.660  23.303  20.607  1.00  0.00     0.039 C
HETATM    3  C9  UNL     1      19.132  24.618  20.033  1.00  0.00     0.005 C
HETATM    4  C10 UNL     1      20.660  24.628  20.072  1.00  0.00     0.023 C
HETATM    5  C11 UNL     1      21.138  24.469  21.474  1.00  0.00     0.174 C
HETATM    6  O3  UNL     1      22.499  24.449  21.574  1.00  0.00    -0.385 OA
HETATM    7  C12 UNL     1      23.179  24.578  20.368  1.00  0.00     0.131 C
HETATM    8  C13 UNL     1      24.650  24.538  20.608  1.00  0.00     0.025 C
HETATM    9  C14 UNL     1      25.408  23.718  19.577  1.00  0.00     0.039 C
HETATM   10  C15 UNL     1      26.869  23.855  19.897  1.00  0.00     0.118 C
HETATM   11  C16 UNL     1      27.138  24.312  21.308  1.00  0.00     0.032 C
HETATM   12  C17 UNL     1      26.543  25.641  21.648  1.00  0.00     0.012 C
HETATM   13  C18 UNL     1      25.298  25.870  20.778  1.00  0.00    -0.038 C
HETATM   14  C19 UNL     1      25.776  26.516  19.522  1.00  0.00     0.015 C
HETATM   15  C20 UNL     1      24.318  26.751  21.524  1.00  0.00     0.010 C
HETATM   16  C21 UNL     1      23.094  26.992  20.718  1.00  0.00     0.009 C
HETATM   17  C22 UNL     1      22.713  25.903  19.764  1.00  0.00     0.024 C
HETATM   18  C23 UNL     1      21.247  25.850  19.455  1.00  0.00    -0.029 C
HETATM   19  C24 UNL     1      20.558  27.068  20.068  1.00  0.00     0.016 C
HETATM   20  C25 UNL     1      20.907  25.852  17.996  1.00  0.00    -0.010 C
HETATM   21  C26 UNL     1      21.907  26.630  17.150  1.00  0.00     0.011 C
HETATM   22  C27 UNL     1      20.763  24.501  17.397  1.00  0.00     0.006 C
HETATM   23  C28 UNL     1      19.572  23.721  17.714  1.00  0.00     0.012 C
HETATM   24  C29 UNL     1      18.592  24.262  18.698  1.00  0.00    -0.011 C
HETATM   25  C30 UNL     1      17.549  25.203  18.125  1.00  0.00     0.018 C
ENDROOT
BRANCH   1  26
HETATM   26  N2  UNL     1      18.014  21.848  18.699  1.00  0.00    -0.044 N
ATOM     27  H22 UNL     1      18.340  21.121  19.336  1.00  0.00     0.280 HD
ATOM     28  H21 UNL     1      18.814  21.878  18.067  1.00  0.00     0.280 HD
BRANCH  26  29
HETATM   29  C6  UNL     1      16.801  21.435  17.998  1.00  0.00     0.319 C
BRANCH  29  30
HETATM   30  C5  UNL     1      15.574  22.106  18.471  1.00  0.00     0.062 C
BRANCH  30  31
HETATM   31  C4  UNL     1      14.377  21.264  18.683  1.00  0.00     0.024 C
BRANCH  31  32
HETATM   32  C3  UNL     1      14.222  20.138  17.732  1.00  0.00     0.126 C
BRANCH  32  33
HETATM   33  N1  UNL     1      12.834  20.045  17.231  1.00  0.00    -0.352 N
HETATM   34  C2  UNL     1      12.527  20.518  15.945  1.00  0.00     0.215 C
HETATM   35  C1  UNL     1      13.586  21.216  15.156  1.00  0.00     0.117 C
HETATM   36  O1  UNL     1      11.382  20.391  15.400  1.00  0.00    -0.274 OA
BRANCH  33  37
HETATM   37  C31 UNL     1      11.854  19.528  18.118  1.00  0.00     0.136 C
BRANCH  37  38
HETATM   38  C32 UNL     1      12.142  18.332  18.911  1.00  0.00     0.133 C
BRANCH  38  39
HETATM   39  C33 UNL     1      12.471  18.362  20.307  1.00  0.00     0.174 C
HETATM   40  O5  UNL     1      11.695  18.531  21.258  1.00  0.00    -0.648 OA
HETATM   41  O6  UNL     1      13.830  18.187  20.732  1.00  0.00    -0.648 OA
ENDBRANCH  38  39
ENDBRANCH  37  38
ENDBRANCH  33  37
ENDBRANCH  32  33
ENDBRANCH  31  32
ENDBRANCH  30  31
ENDBRANCH  29  30
BRANCH  29  42
HETATM   42  O2  UNL     1      16.965  21.609  16.628  1.00  0.00    -0.370 OA
ATOM     43  H2  UNL     1      17.843  21.912  16.427  1.00  0.00     0.212 HD
ENDBRANCH  29  42
ENDBRANCH  26  29
ENDBRANCH   1  26
BRANCH  10  44
HETATM   44  O4  UNL     1      27.419  22.554  19.800  1.00  0.00    -0.396 OA
ATOM     45  H4  UNL     1      26.692  21.972  19.613  1.00  0.00     0.210 HD
ENDBRANCH  10  44
TORSDOF 11
ENDMDL