MODEL 3
REMARK VINA RESULT: -9.372929627      1.207      1.359
REMARK  10 active torsions:
REMARK  status: ('A' for Active; 'I' for Inactive)
REMARK    1  A    between atoms: C2_2  and  C3_3
REMARK    2  A    between atoms: C3_3  and  C5_5
REMARK    3  A    between atoms: C5_5  and  N1_6
REMARK    4  A    between atoms: C5_5  and  C12_14
REMARK    5  A    between atoms: C12_14  and  O1_15
REMARK    6  A    between atoms: C12_14  and  C13_17
REMARK    7  A    between atoms: C13_17  and  C14_18
REMARK    8  A    between atoms: C18_22  and  C19_23
REMARK    9  A    between atoms: C23_32  and  C24_33
REMARK   10  A    between atoms: C24_33  and  C25_34
ROOT
HETATM    1  C14 UNL     1      17.090  23.880  17.528  1.00  0.00     0.080 C
HETATM    2  C15 UNL     1      17.669  22.957  18.560  1.00  0.00     0.014 C
HETATM    3  C16 UNL     1      18.662  23.728  19.441  1.00  0.00     0.003 C
HETATM    4  C17 UNL     1      20.051  23.146  19.263  1.00  0.00     0.034 C
HETATM    5  C18 UNL     1      21.123  24.120  19.573  1.00  0.00     0.174 C
HETATM    6  N3  UNL     1      21.346  25.198  18.651  1.00  0.00    -0.344 N
ATOM      7  H3  UNL     1      22.223  25.698  18.800  1.00  0.00     0.163 HD
HETATM    8  C20 UNL     1      20.587  25.688  17.592  1.00  0.00     0.246 C
HETATM    9  O3  UNL     1      20.060  26.851  17.760  1.00  0.00    -0.268 OA
HETATM   10  C21 UNL     1      20.267  25.098  16.266  1.00  0.00     0.007 C
HETATM   11  C22 UNL     1      21.500  24.924  15.394  1.00  0.00     0.051 C
HETATM   12  C23 UNL     1      19.066  25.630  15.625  1.00  0.00     0.134 C
HETATM   13  N5  UNL     1      18.182  24.487  15.278  1.00  0.00    -0.351 N
ATOM     14  H5  UNL     1      17.935  24.367  14.295  1.00  0.00     0.163 HD
HETATM   15  C30 UNL     1      17.665  23.569  16.180  1.00  0.00     0.222 C
HETATM   16  O4  UNL     1      17.656  22.327  15.878  1.00  0.00    -0.273 OA
ENDROOT
BRANCH   1  17
HETATM   17  C13 UNL     1      15.593  23.927  17.491  1.00  0.00     0.052 C
BRANCH  17  18
HETATM   18  C12 UNL     1      14.875  23.001  18.391  1.00  0.00     0.164 C
BRANCH  18  19
HETATM   19  C5  UNL     1      14.099  21.979  17.545  1.00  0.00     0.019 C
BRANCH  19  20
HETATM   20  C3  UNL     1      14.312  22.213  16.077  1.00  0.00     0.029 C
HETATM   21  C4  UNL     1      13.171  23.092  15.528  1.00  0.00     0.016 C
BRANCH  20  22
HETATM   22  C2  UNL     1      14.506  21.024  15.218  1.00  0.00     0.006 C
HETATM   23  C1  UNL     1      14.822  21.368  13.765  1.00  0.00     0.006 C
ENDBRANCH  20  22
ENDBRANCH  19  20
BRANCH  19  24
HETATM   24  N1  UNL     1      14.056  20.711  17.997  1.00  0.00    -0.367 N
HETATM   25  C6  UNL     1      13.604  19.679  18.356  1.00  0.00    -0.014 C
HETATM   26  C7  UNL     1      14.539  18.553  18.777  1.00  0.00     0.052 C
HETATM   27  C11 UNL     1      12.168  19.327  18.453  1.00  0.00     0.052 C
HETATM   28  C8  UNL     1      14.108  18.101  20.156  1.00  0.00     0.006 C
HETATM   29  C9  UNL     1      12.670  17.635  20.180  1.00  0.00     0.001 C
HETATM   30  C10 UNL     1      11.975  17.867  18.873  1.00  0.00     0.006 C
ATOM     31  H1  UNL     1      15.053  20.515  18.085  1.00  0.00     0.165 HD
ENDBRANCH  19  24
ENDBRANCH  18  19
BRANCH  18  32
HETATM   32  O1  UNL     1      14.080  23.484  19.360  1.00  0.00    -0.390 OA
ATOM     33  H1  UNL     1      13.666  22.764  19.823  1.00  0.00     0.210 HD
ENDBRANCH  18  32
ENDBRANCH  17  18
ENDBRANCH   1  17
BRANCH  12  34
HETATM   34  C24 UNL     1      19.035  26.550  14.500  1.00  0.00     0.033 A
HETATM   35  C28 UNL     1      17.950  27.020  13.664  1.00  0.00     0.020 A
HETATM   36  C29 UNL     1      18.854  25.992  13.086  1.00  0.00     0.020 A
BRANCH  34  37
HETATM   37  C25 UNL     1      20.218  27.528  14.535  1.00  0.00     0.061 A
HETATM   38  N4  UNL     1      20.751  28.124  15.568  1.00  0.00    -0.362 N
HETATM   39  C26 UNL     1      21.758  28.930  15.408  1.00  0.00     0.096 A
ATOM     40  H4  UNL     1      20.377  27.956  16.502  1.00  0.00     0.165 HD
HETATM   41  C27 UNL     1      22.216  29.116  14.128  1.00  0.00     0.068 A
HETATM   42  S1  UNL     1      21.160  28.110  13.236  1.00  0.00    -0.086 SA
ENDBRANCH  34  37
ENDBRANCH  12  34
BRANCH   5  43
HETATM   43  C19 UNL     1      20.853  24.627  20.957  1.00  0.00     0.254 C
HETATM   44  N2  UNL     1      20.728  25.993  21.264  1.00  0.00    -0.060 NA
HETATM   45  O2  UNL     1      20.734  23.755  21.884  1.00  0.00    -0.275 OA
ENDBRANCH   5  43
TORSDOF 10
ENDMDL