MODEL 2
REMARK VINA RESULT: -8.672883283      2.433      3.160
REMARK  11 active torsions:
REMARK  status: ('A' for Active; 'I' for Inactive)
REMARK    1  A    between atoms: C2_2  and  C3_3
REMARK    2  A    between atoms: C2_2  and  C10_14
REMARK    3  A    between atoms: C3_3  and  C4_4
REMARK    4  A    between atoms: C4_4  and  C5_5
REMARK       I    between atoms: C5_5  and  N1_7
REMARK    5  A    between atoms: N1_7  and  C6_9
REMARK    6  A    between atoms: C6_9  and  C7_10
REMARK    7  A    between atoms: C7_10  and  N2_11
REMARK    8  A    between atoms: C17_21  and  O2_22
REMARK    9  A    between atoms: C20_27  and  O4_28
REMARK   10  A    between atoms: O4_28  and  C21_29
REMARK   11  A    between atoms: C26_34  and  O5_35
ROOT
HETATM    1  C10 UNL     1      14.666  20.314  18.871  1.00  0.00    -0.002 C
HETATM    2  C11 UNL     1      15.053  21.122  20.100  1.00  0.00     0.006 C
HETATM    3  C12 UNL     1      14.926  22.524  19.487  1.00  0.00     0.006 C
HETATM    4  C13 UNL     1      15.149  22.336  17.987  1.00  0.00    -0.002 C
HETATM    5  C14 UNL     1      16.114  23.348  17.552  1.00  0.00    -0.005 C
HETATM    6  C15 UNL     1      16.060  23.783  16.124  1.00  0.00     0.008 C
HETATM    7  C16 UNL     1      16.955  24.951  15.937  1.00  0.00     0.039 C
HETATM    8  C17 UNL     1      18.298  24.907  16.546  1.00  0.00     0.072 C
HETATM    9  C18 UNL     1      19.346  24.521  15.525  1.00  0.00     0.119 C
HETATM   10  C19 UNL     1      20.709  24.744  16.100  1.00  0.00     0.158 C
HETATM   11  O3  UNL     1      21.599  25.059  15.335  1.00  0.00    -0.295 OA
HETATM   12  C20 UNL     1      20.892  24.569  17.561  1.00  0.00     0.192 C
HETATM   13  C27 UNL     1      19.802  23.801  18.225  1.00  0.00     0.052 C
HETATM   14  C28 UNL     1      18.405  24.141  17.824  1.00  0.00    -0.006 C
HETATM   15  C29 UNL     1      17.908  25.129  18.908  1.00  0.00     0.019 C
HETATM   16  C30 UNL     1      17.521  22.963  17.959  1.00  0.00     0.001 C
HETATM   17  C31 UNL     1      17.837  21.725  17.245  1.00  0.00     0.007 C
HETATM   18  C32 UNL     1      16.983  20.619  17.904  1.00  0.00     0.010 C
HETATM   19  C33 UNL     1      15.525  20.876  17.828  1.00  0.00    -0.036 C
HETATM   20  C34 UNL     1      15.029  20.456  16.453  1.00  0.00     0.016 C
ENDROOT
BRANCH   1  21
HETATM   21  C2  UNL     1      14.496  18.879  19.086  1.00  0.00    -0.013 C
HETATM   22  C1  UNL     1      14.805  18.336  20.458  1.00  0.00     0.010 C
BRANCH  21  23
HETATM   23  C3  UNL     1      13.104  18.385  18.762  1.00  0.00     0.014 C
BRANCH  23  24
HETATM   24  C4  UNL     1      12.095  19.463  18.542  1.00  0.00     0.103 C
BRANCH  24  25
HETATM   25  C5  UNL     1      11.645  19.497  17.131  1.00  0.00     0.217 C
HETATM   26  O1  UNL     1      11.026  18.587  16.549  1.00  0.00    -0.274 OA
HETATM   27  N1  UNL     1      11.959  20.684  16.402  1.00  0.00    -0.359 N
ATOM     28  H1  UNL     1      12.473  21.424  16.879  1.00  0.00     0.162 HD
BRANCH  27  29
HETATM   29  C6  UNL     1      11.584  20.885  15.029  1.00  0.00     0.152 C
BRANCH  29  30
HETATM   30  C7  UNL     1      12.606  21.710  14.321  1.00  0.00     0.290 C
BRANCH  30  31
HETATM   31  N2  UNL     1      13.109  21.050  13.121  1.00  0.00     0.081 N
HETATM   32  C8  UNL     1      12.868  19.642  13.247  1.00  0.00     0.309 C
HETATM   33  C9  UNL     1      14.518  21.380  13.031  1.00  0.00     0.309 C
ENDBRANCH  30  31
ENDBRANCH  29  30
ENDBRANCH  27  29
ENDBRANCH  24  25
ENDBRANCH  23  24
ENDBRANCH  21  23
ENDBRANCH   1  21
BRANCH   8  34
HETATM   34  O2  UNL     1      18.619  26.255  16.862  1.00  0.00    -0.389 OA
ATOM     35  H2  UNL     1      19.284  26.207  17.540  1.00  0.00     0.210 HD
ENDBRANCH   8  34
BRANCH  12  36
HETATM   36  O4  UNL     1      21.131  25.734  18.256  1.00  0.00    -0.370 OA
BRANCH  36  37
HETATM   37  C21 UNL     1      21.356  25.529  19.611  1.00  0.00     0.151 C
HETATM   38  C22 UNL     1      22.745  24.940  19.747  1.00  0.00     0.034 C
HETATM   39  C23 UNL     1      23.711  26.016  19.251  1.00  0.00     0.003 C
HETATM   40  C24 UNL     1      23.807  27.104  20.301  1.00  0.00     0.003 C
HETATM   41  C25 UNL     1      22.608  27.014  21.193  1.00  0.00     0.034 C
HETATM   42  C26 UNL     1      21.324  26.802  20.417  1.00  0.00     0.147 C
BRANCH  42  43
HETATM   43  O5  UNL     1      21.096  27.941  19.685  1.00  0.00    -0.393 OA
ATOM     44  H5  UNL     1      21.724  28.639  19.829  1.00  0.00     0.210 HD
ENDBRANCH  42  43
ENDBRANCH  36  37
ENDBRANCH  12  36
TORSDOF 11
ENDMDL