MODEL 4
REMARK VINA RESULT: -7.914454307      1.959      6.893
REMARK  11 active torsions:
REMARK  status: ('A' for Active; 'I' for Inactive)
REMARK    1  A    between atoms: C2_2  and  C3_3
REMARK    2  A    between atoms: C3_3  and  C4_4
REMARK    3  A    between atoms: C4_4  and  C5_5
REMARK    4  A    between atoms: C6_8  and  O1_9
REMARK    5  A    between atoms: C7_11  and  C8_12
REMARK    6  A    between atoms: C8_12  and  C9_13
REMARK    7  A    between atoms: C13_20  and  C14_21
REMARK    8  A    between atoms: C14_21  and  C16_23
REMARK    9  A    between atoms: C23_31  and  O4_32
REMARK   10  A    between atoms: C24_34  and  C25_35
REMARK   11  A    between atoms: C25_35  and  N3_36
ROOT
HETATM    1  C5  UNL     1      17.420  23.529  16.284  1.00  0.00     0.175 C
HETATM    2  N1  UNL     1      16.333  24.092  17.037  1.00  0.00    -0.359 N
ATOM      3  H1  UNL     1      15.779  24.774  16.521  1.00  0.00     0.162 HD
HETATM    4  C6  UNL     1      15.899  23.877  18.340  1.00  0.00     0.135 C
HETATM    5  C7  UNL     1      15.809  22.670  19.137  1.00  0.00     0.159 C
HETATM    6  N2  UNL     1      16.939  22.316  19.953  1.00  0.00    -0.344 N
ATOM      7  H2  UNL     1      16.678  21.925  20.857  1.00  0.00     0.163 HD
HETATM    8  C12 UNL     1      18.306  22.397  19.764  1.00  0.00     0.271 C
HETATM    9  O2  UNL     1      18.933  21.273  19.607  1.00  0.00    -0.266 OA
HETATM   10  C13 UNL     1      19.244  23.533  19.705  1.00  0.00     0.121 C
HETATM   11  O3  UNL     1      18.734  24.780  19.475  1.00  0.00    -0.316 OA
HETATM   12  C23 UNL     1      19.636  25.541  18.835  1.00  0.00     0.290 C
HETATM   13  C24 UNL     1      19.271  26.368  17.661  1.00  0.00     0.178 C
HETATM   14  N4  UNL     1      18.789  25.754  16.473  1.00  0.00    -0.345 N
ATOM     15  H4  UNL     1      18.558  26.430  15.744  1.00  0.00     0.163 HD
HETATM   16  C32 UNL     1      18.562  24.441  16.080  1.00  0.00     0.241 C
HETATM   17  O5  UNL     1      19.513  23.890  15.407  1.00  0.00    -0.271 OA
ENDROOT
BRANCH  10  18
HETATM   18  C14 UNL     1      20.347  23.442  20.716  1.00  0.00     0.048 C
HETATM   19  C15 UNL     1      19.720  23.448  22.126  1.00  0.00     0.017 C
BRANCH  18  20
HETATM   20  C16 UNL     1      21.372  24.545  20.643  1.00  0.00    -0.004 C
HETATM   21  C17 UNL     1      21.860  24.902  22.056  1.00  0.00     0.005 C
HETATM   22  C18 UNL     1      23.026  25.853  21.907  1.00  0.00     0.005 C
HETATM   23  C19 UNL     1      24.227  25.090  21.418  1.00  0.00    -0.019 C
HETATM   24  C20 UNL     1      25.229  24.831  22.517  1.00  0.00     0.010 C
HETATM   25  C21 UNL     1      23.777  23.849  20.716  1.00  0.00     0.005 C
HETATM   26  C22 UNL     1      22.588  24.242  19.832  1.00  0.00     0.005 C
ENDBRANCH  18  20
ENDBRANCH  10  18
BRANCH  12  27
HETATM   27  O4  UNL     1      20.113  26.488  19.787  1.00  0.00    -0.368 OA
ATOM     28  H4  UNL     1      20.393  27.249  19.293  1.00  0.00     0.212 HD
ENDBRANCH  12  27
BRANCH   5  29
HETATM   29  C8  UNL     1      15.326  21.463  18.310  1.00  0.00     0.037 C
BRANCH  29  30
HETATM   30  C9  UNL     1      14.155  20.766  18.963  1.00  0.00    -0.020 C
HETATM   31  C10 UNL     1      13.215  20.128  17.949  1.00  0.00     0.009 C
HETATM   32  C11 UNL     1      14.715  19.637  19.801  1.00  0.00     0.009 C
ENDBRANCH  29  30
ENDBRANCH   5  29
BRANCH  13  33
HETATM   33  C25 UNL     1      20.471  27.281  17.466  1.00  0.00     0.088 C
BRANCH  33  34
HETATM   34  N3  UNL     1      21.091  27.373  16.238  1.00  0.00    -0.391 N
HETATM   35  C26 UNL     1      21.383  28.622  15.641  1.00  0.00     0.122 C
HETATM   36  C27 UNL     1      20.607  28.888  14.366  1.00  0.00     0.020 C
HETATM   37  C28 UNL     1      21.153  27.972  13.300  1.00  0.00     0.002 C
HETATM   38  C29 UNL     1      20.727  26.565  13.684  1.00  0.00     0.002 C
HETATM   39  C30 UNL     1      21.836  25.866  14.430  1.00  0.00     0.020 C
HETATM   40  C31 UNL     1      21.958  26.300  15.852  1.00  0.00     0.122 C
ENDBRANCH  33  34
ENDBRANCH  13  33
BRANCH   4  41
HETATM   41  O1  UNL     1      15.503  24.969  18.937  1.00  0.00    -0.348 OA
ATOM     42  H1  UNL     1      14.725  25.349  18.547  1.00  0.00     0.219 HD
ENDBRANCH   4  41
BRANCH   1  43
HETATM   43  C4  UNL     1      16.817  23.114  14.958  1.00  0.00     0.035 C
BRANCH  43  44
HETATM   44  C3  UNL     1      15.602  22.279  14.985  1.00  0.00     0.002 C
BRANCH  44  45
HETATM   45  C2  UNL     1      15.332  21.865  13.510  1.00  0.00    -0.004 C
HETATM   46  C1  UNL     1      14.257  20.818  13.484  1.00  0.00     0.005 C
ENDBRANCH  44  45
ENDBRANCH  43  44
ENDBRANCH   1  43
TORSDOF 11
ENDMDL