MODEL 1
REMARK VINA RESULT: -10.142891411      0.000      0.000
REMARK  12 active torsions:
REMARK  status: ('A' for Active; 'I' for Inactive)
REMARK    1  A    between atoms: C2_2  and  C4_4
REMARK    2  A    between atoms: C4_4  and  N1_5
REMARK    3  A    between atoms: C4_4  and  C24_34
REMARK       I    between atoms: N1_5  and  C5_7
REMARK    4  A    between atoms: C5_7  and  C6_9
REMARK    5  A    between atoms: C6_9  and  N2_10
REMARK    6  A    between atoms: C6_9  and  C20_30
REMARK       I    between atoms: N2_10  and  C7_12
REMARK    7  A    between atoms: C7_12  and  C8_14
REMARK    8  A    between atoms: C8_14  and  N3_15
REMARK    9  A    between atoms: C8_14  and  C14_24
REMARK       I    between atoms: N3_15  and  C9_17
REMARK   10  A    between atoms: C9_17  and  O4_19
REMARK   11  A    between atoms: O4_19  and  C10_20
REMARK       I    between atoms: C24_34  and  N4_36
REMARK   12  A    between atoms: N4_36  and  C25_38
ROOT
HETATM    1  C6  UNL     1      18.842  23.073  18.706  1.00  0.00     0.184 C
ENDROOT
BRANCH   1   2
HETATM    2  C5  UNL     1      19.103  24.189  17.785  1.00  0.00     0.241 C
HETATM    3  N1  UNL     1      19.722  24.156  16.527  1.00  0.00    -0.346 N
ATOM      4  H1  UNL     1      20.071  23.274  16.152  1.00  0.00     0.163 HD
HETATM    5  O1  UNL     1      18.710  25.348  18.192  1.00  0.00    -0.271 OA
BRANCH   3   6
HETATM    6  C4  UNL     1      19.869  25.409  15.742  1.00  0.00     0.180 C
BRANCH   6   7
HETATM    7  C2  UNL     1      19.077  25.311  14.493  1.00  0.00     0.009 C
HETATM    8  C1  UNL     1      19.148  26.553  13.626  1.00  0.00     0.012 C
HETATM    9  C3  UNL     1      17.715  24.780  14.716  1.00  0.00     0.012 C
ENDBRANCH   6   7
BRANCH   6  10
HETATM   10  C24 UNL     1      21.297  25.691  15.517  1.00  0.00     0.241 C
HETATM   11  O5  UNL     1      21.909  24.914  14.692  1.00  0.00    -0.271 OA
HETATM   12  N4  UNL     1      22.073  26.698  16.095  1.00  0.00    -0.353 N
ATOM     13  H4  UNL     1      21.621  27.335  16.751  1.00  0.00     0.163 HD
BRANCH  12  14
HETATM   14  C25 UNL     1      23.487  26.891  15.818  1.00  0.00     0.117 C
HETATM   15  C26 UNL     1      23.823  28.242  15.292  1.00  0.00     0.029 C
HETATM   16  C27 UNL     1      25.328  28.270  15.007  1.00  0.00     0.032 C
HETATM   17  C28 UNL     1      26.057  27.974  16.295  1.00  0.00     0.272 C
HETATM   18  N5  UNL     1      25.101  27.777  17.343  1.00  0.00     0.090 N
HETATM   19  C29 UNL     1      25.706  27.773  18.661  1.00  0.00     0.310 C
HETATM   20  C30 UNL     1      24.302  26.622  17.094  1.00  0.00     0.241 C
HETATM   21  C31 UNL     1      23.335  26.423  18.260  1.00  0.00     0.045 C
ENDBRANCH  12  14
ENDBRANCH   6  10
ENDBRANCH   3   6
ENDBRANCH   1   2
BRANCH   1  22
HETATM   22  N2  UNL     1      17.434  22.694  18.681  1.00  0.00    -0.345 N
HETATM   23  C7  UNL     1      16.918  21.570  17.990  1.00  0.00     0.241 C
HETATM   24  O2  UNL     1      17.711  20.848  17.351  1.00  0.00    -0.271 OA
ATOM     25  H2  UNL     1      16.776  23.279  19.195  1.00  0.00     0.163 HD
BRANCH  23  26
HETATM   26  C8  UNL     1      15.452  21.255  18.020  1.00  0.00     0.183 C
BRANCH  26  27
HETATM   27  N3  UNL     1      14.997  20.878  16.687  1.00  0.00    -0.323 N
HETATM   28  C9  UNL     1      14.382  21.845  15.831  1.00  0.00     0.362 C
HETATM   29  O3  UNL     1      14.221  23.039  16.209  1.00  0.00    -0.238 OA
ATOM     30  H3  UNL     1      15.118  19.918  16.363  1.00  0.00     0.165 HD
BRANCH  28  31
HETATM   31  O4  UNL     1      13.941  21.512  14.564  1.00  0.00    -0.294 OA
BRANCH  31  32
HETATM   32  C10 UNL     1      12.663  20.935  14.382  1.00  0.00     0.061 C
HETATM   33  C11 UNL     1      12.058  20.392  15.654  1.00  0.00     0.046 C
HETATM   34  C12 UNL     1      11.740  22.044  13.906  1.00  0.00     0.046 C
HETATM   35  C13 UNL     1      12.679  19.859  13.322  1.00  0.00     0.046 C
ENDBRANCH  31  32
ENDBRANCH  28  31
ENDBRANCH  26  27
BRANCH  26  36
HETATM   36  C14 UNL     1      15.310  20.047  18.952  1.00  0.00     0.018 C
HETATM   37  C15 UNL     1      14.931  20.603  20.310  1.00  0.00     0.007 C
HETATM   38  C16 UNL     1      14.833  19.508  21.352  1.00  0.00     0.000 C
HETATM   39  C17 UNL     1      14.620  18.180  20.687  1.00  0.00     0.000 C
HETATM   40  C18 UNL     1      13.556  18.380  19.599  1.00  0.00     0.000 C
HETATM   41  C19 UNL     1      14.291  19.061  18.445  1.00  0.00     0.007 C
ENDBRANCH  26  36
ENDBRANCH  23  26
ENDBRANCH   1  22
BRANCH   1  42
HETATM   42  C20 UNL     1      19.375  23.171  20.077  1.00  0.00    -0.022 C
HETATM   43  C21 UNL     1      18.538  24.001  21.010  1.00  0.00     0.017 C
HETATM   44  C22 UNL     1      19.396  21.741  20.678  1.00  0.00     0.017 C
HETATM   45  C23 UNL     1      20.804  23.651  20.163  1.00  0.00     0.017 C
ENDBRANCH   1  42
TORSDOF 12
ENDMDL