MODEL 2
REMARK VINA RESULT: -7.636249099      1.206      1.477
REMARK  12 active torsions:
REMARK  status: ('A' for Active; 'I' for Inactive)
REMARK    1  A    between atoms: C2_2  and  C3_3
REMARK    2  A    between atoms: C12_12  and  O1_13
REMARK    3  A    between atoms: O1_13  and  C13_14
REMARK    4  A    between atoms: C16_17  and  C17_18
REMARK    5  A    between atoms: C17_18  and  N1_19
REMARK    6  A    between atoms: C18_23  and  O2_24
REMARK    7  A    between atoms: C26_33  and  N2_34
REMARK       I    between atoms: N2_34  and  C27_36
REMARK    8  A    between atoms: C27_36  and  C28_38
REMARK    9  A    between atoms: C28_38  and  N3_39
REMARK   10  A    between atoms: N3_39  and  C30_41
REMARK   11  A    between atoms: C30_41  and  C31_42
REMARK   12  A    between atoms: C31_42  and  O4_43
ROOT
HETATM    1  C3  UNL     1      17.716  22.754  19.212  1.00  0.00     0.025 C
HETATM    2  C4  UNL     1      18.782  23.671  19.575  1.00  0.00    -0.029 C
HETATM    3  C5  UNL     1      20.001  23.018  20.262  1.00  0.00     0.016 C
HETATM    4  C6  UNL     1      18.224  24.579  20.694  1.00  0.00     0.037 C
HETATM    5  C7  UNL     1      17.006  25.285  20.301  1.00  0.00    -0.029 C
HETATM    6  C8  UNL     1      16.451  25.585  19.136  1.00  0.00    -0.025 C
HETATM    7  C9  UNL     1      17.077  25.191  17.805  1.00  0.00     0.021 C
HETATM    8  C10 UNL     1      18.480  25.507  17.872  1.00  0.00     0.001 C
HETATM    9  C11 UNL     1      19.210  25.881  16.583  1.00  0.00     0.037 C
HETATM   10  C12 UNL     1      20.356  26.845  17.013  1.00  0.00     0.122 C
HETATM   11  C19 UNL     1      21.189  26.161  18.023  1.00  0.00     0.032 C
HETATM   12  C20 UNL     1      20.484  25.479  19.173  1.00  0.00     0.008 C
HETATM   13  C21 UNL     1      19.395  24.573  18.571  1.00  0.00    -0.001 C
HETATM   14  C22 UNL     1      16.557  23.897  17.323  1.00  0.00    -0.029 C
HETATM   15  C23 UNL     1      15.106  23.888  17.862  1.00  0.00     0.016 C
HETATM   16  C24 UNL     1      16.409  23.963  15.835  1.00  0.00     0.012 C
HETATM   17  C25 UNL     1      15.328  23.137  15.257  1.00  0.00     0.026 C
HETATM   18  C26 UNL     1      15.384  21.673  15.353  1.00  0.00     0.084 C
HETATM   19  C32 UNL     1      15.731  20.939  16.542  1.00  0.00     0.026 C
HETATM   20  C33 UNL     1      16.289  21.464  17.782  1.00  0.00     0.012 C
HETATM   21  C34 UNL     1      17.254  22.631  17.770  1.00  0.00    -0.029 C
HETATM   22  C35 UNL     1      18.387  22.155  16.925  1.00  0.00     0.016 C
ENDROOT
BRANCH  10  23
HETATM   23  O1  UNL     1      21.059  27.062  15.901  1.00  0.00    -0.378 OA
BRANCH  23  24
HETATM   24  C13 UNL     1      21.824  28.147  15.676  1.00  0.00     0.151 C
HETATM   25  C14 UNL     1      21.487  28.889  14.402  1.00  0.00     0.035 C
HETATM   26  C15 UNL     1      22.789  29.300  13.759  1.00  0.00     0.011 C
HETATM   27  C16 UNL     1      23.822  29.076  14.806  1.00  0.00     0.042 C
HETATM   28  C18 UNL     1      23.281  28.037  15.754  1.00  0.00     0.152 C
BRANCH  27  29
HETATM   29  C17 UNL     1      24.299  30.318  15.490  1.00  0.00     0.236 C
BRANCH  29  30
HETATM   30  N1  UNL     1      25.253  30.158  16.520  1.00  0.00    -0.079 N
ATOM     31  H13 UNL     1      25.219  29.200  16.869  1.00  0.00     0.274 HD
ATOM     32  H12 UNL     1      26.191  30.181  16.121  1.00  0.00     0.274 HD
ATOM     33  H11 UNL     1      25.200  30.807  17.304  1.00  0.00     0.274 HD
ENDBRANCH  29  30
ENDBRANCH  27  29
BRANCH  28  34
HETATM   34  O2  UNL     1      23.823  26.823  15.356  1.00  0.00    -0.393 OA
ATOM     35  H2  UNL     1      23.279  26.288  14.788  1.00  0.00     0.210 HD
ENDBRANCH  28  34
ENDBRANCH  23  24
ENDBRANCH  10  23
BRANCH   1  36
HETATM   36  C2  UNL     1      18.027  21.397  19.762  1.00  0.00    -0.031 C
HETATM   37  C1  UNL     1      17.603  20.975  20.943  1.00  0.00     0.007 C
ENDBRANCH   1  36
BRANCH  18  38
HETATM   38  N2  UNL     1      13.992  21.251  15.027  1.00  0.00    -0.355 N
HETATM   39  C27 UNL     1      13.642  20.700  13.773  1.00  0.00     0.246 C
HETATM   40  O3  UNL     1      14.564  20.563  12.913  1.00  0.00    -0.272 OA
ATOM     41  H2  UNL     1      13.266  21.364  15.734  1.00  0.00     0.162 HD
BRANCH  39  42
HETATM   42  C28 UNL     1      12.262  20.308  13.489  1.00  0.00     0.374 C
BRANCH  42  43
HETATM   43  N3  UNL     1      11.500  19.908  14.641  1.00  0.00     0.095 N
HETATM   44  C29 UNL     1      10.670  18.768  14.365  1.00  0.00     0.310 C
BRANCH  43  45
HETATM   45  C30 UNL     1      10.588  21.027  14.929  1.00  0.00     0.298 C
BRANCH  45  46
HETATM   46  C31 UNL     1       9.382  20.540  15.693  1.00  0.00     0.194 C
BRANCH  46  47
HETATM   47  O4  UNL     1       8.589  21.652  15.965  1.00  0.00    -0.399 OA
ATOM     48  H4  UNL     1       8.253  21.549  16.848  1.00  0.00     0.209 HD
ENDBRANCH  46  47
ENDBRANCH  45  46
ENDBRANCH  43  45
ENDBRANCH  42  43
ENDBRANCH  39  42
ENDBRANCH  18  38
TORSDOF 12
ENDMDL