MODEL 2
REMARK VINA RESULT: -9.227032248      1.183      1.440
REMARK  9 active torsions:
REMARK  status: ('A' for Active; 'I' for Inactive)
REMARK    1  A    between atoms: C2_2  and  C3_3
REMARK    2  A    between atoms: C3_3  and  C4_4
REMARK    3  A    between atoms: C4_4  and  C5_5
REMARK    4  A    between atoms: C7_10  and  C8_11
REMARK    5  A    between atoms: C8_11  and  O2_12
REMARK    6  A    between atoms: O2_12  and  C9_13
REMARK    7  A    between atoms: C9_13  and  C10_14
REMARK    8  A    between atoms: C18_29  and  C19_30
REMARK    9  A    between atoms: C19_30  and  C20_31
ROOT
HETATM    1  C5  UNL     1      14.603  21.728  14.542  1.00  0.00     0.176 C
HETATM    2  N1  UNL     1      14.062  20.655  15.340  1.00  0.00    -0.346 N
ATOM      3  H1  UNL     1      13.920  19.769  14.857  1.00  0.00     0.163 HD
HETATM    4  C6  UNL     1      13.708  20.676  16.691  1.00  0.00     0.243 C
HETATM    5  O1  UNL     1      12.540  20.235  16.988  1.00  0.00    -0.271 OA
HETATM    6  C7  UNL     1      14.576  21.168  17.822  1.00  0.00     0.200 C
HETATM    7  N2  UNL     1      15.895  20.589  17.750  1.00  0.00    -0.344 N
ATOM      8  H2  UNL     1      15.928  19.570  17.769  1.00  0.00     0.163 HD
HETATM    9  C14 UNL     1      17.137  21.234  17.657  1.00  0.00     0.240 C
HETATM   10  O3  UNL     1      17.886  20.953  16.645  1.00  0.00    -0.271 OA
HETATM   11  C15 UNL     1      17.727  22.221  18.590  1.00  0.00     0.172 C
HETATM   12  C16 UNL     1      17.430  21.947  20.044  1.00  0.00     0.042 C
HETATM   13  N3  UNL     1      17.375  23.588  18.302  1.00  0.00    -0.348 N
ATOM     14  H3  UNL     1      16.449  23.770  17.916  1.00  0.00     0.163 HD
HETATM   15  C17 UNL     1      18.230  24.695  18.519  1.00  0.00     0.222 C
HETATM   16  O4  UNL     1      17.739  25.761  19.033  1.00  0.00    -0.273 OA
HETATM   17  C18 UNL     1      19.672  24.726  18.194  1.00  0.00     0.078 C
HETATM   18  C23 UNL     1      19.911  25.619  16.966  1.00  0.00     0.018 C
HETATM   19  C24 UNL     1      19.253  24.943  15.781  1.00  0.00    -0.018 C
HETATM   20  C25 UNL     1      20.262  23.906  15.268  1.00  0.00     0.010 C
HETATM   21  C26 UNL     1      18.936  25.863  14.652  1.00  0.00     0.004 C
HETATM   22  C27 UNL     1      17.560  26.437  14.651  1.00  0.00     0.002 C
HETATM   23  C28 UNL     1      16.535  25.567  13.957  1.00  0.00     0.020 C
HETATM   24  C29 UNL     1      15.903  24.578  14.914  1.00  0.00     0.122 C
HETATM   25  N4  UNL     1      14.527  24.298  14.627  1.00  0.00    -0.359 N
ATOM     26  H4  UNL     1      13.937  25.063  14.304  1.00  0.00     0.162 HD
HETATM   27  C30 UNL     1      13.947  23.021  14.767  1.00  0.00     0.240 C
HETATM   28  O5  UNL     1      12.722  22.983  15.128  1.00  0.00    -0.271 OA
ENDROOT
BRANCH   6  29
HETATM   29  C8  UNL     1      13.911  20.695  19.128  1.00  0.00     0.202 C
BRANCH  29  30
HETATM   30  O2  UNL     1      14.680  19.673  19.704  1.00  0.00    -0.384 OA
BRANCH  30  31
HETATM   31  C9  UNL     1      13.884  18.988  20.587  1.00  0.00     0.213 C
BRANCH  31  32
HETATM   32  C10 UNL     1      12.769  18.343  19.801  1.00  0.00     0.006 A
HETATM   33  C11 UNL     1      11.423  18.543  19.939  1.00  0.00     0.017 A
HETATM   34  C12 UNL     1      10.612  17.856  19.125  1.00  0.00     0.008 A
HETATM   35  C13 UNL     1      11.195  17.010  18.221  1.00  0.00     0.050 A
HETATM   36  S1  UNL     1      12.859  17.203  18.539  1.00  0.00    -0.104 SA
ENDBRANCH  31  32
ENDBRANCH  30  31
ENDBRANCH  29  30
ENDBRANCH   6  29
BRANCH   1  37
HETATM   37  C4  UNL     1      14.423  21.387  13.059  1.00  0.00     0.035 C
BRANCH  37  38
HETATM   38  C3  UNL     1      13.145  20.698  12.753  1.00  0.00     0.002 C
BRANCH  38  39
HETATM   39  C2  UNL     1      13.471  19.244  12.472  1.00  0.00    -0.004 C
HETATM   40  C1  UNL     1      12.251  18.370  12.529  1.00  0.00     0.005 C
ENDBRANCH  38  39
ENDBRANCH  37  38
ENDBRANCH   1  37
BRANCH  17  41
HETATM   41  C19 UNL     1      20.407  25.382  19.352  1.00  0.00     0.018 C
BRANCH  41  42
HETATM   42  C20 UNL     1      21.339  26.470  18.942  1.00  0.00    -0.022 C
HETATM   43  C21 UNL     1      22.766  25.986  19.035  1.00  0.00     0.009 C
HETATM   44  C22 UNL     1      21.180  27.599  19.973  1.00  0.00     0.009 C
ENDBRANCH  41  42
ENDBRANCH  17  41
TORSDOF 9
ENDMDL