MODEL 5
REMARK VINA RESULT: -8.613066217      4.132      9.502
REMARK  10 active torsions:
REMARK  status: ('A' for Active; 'I' for Inactive)
REMARK    1  A    between atoms: C2_2  and  C4_4
REMARK    2  A    between atoms: C4_4  and  C5_5
REMARK    3  A    between atoms: C5_5  and  C6_6
REMARK    4  A    between atoms: C10_15  and  C11_16
REMARK    5  A    between atoms: C11_16  and  C12_17
REMARK    6  A    between atoms: C12_17  and  N3_18
REMARK    7  A    between atoms: N3_18  and  C13_20
REMARK    8  A    between atoms: N4_29  and  C21_30
REMARK    9  A    between atoms: C21_30  and  C22_31
REMARK   10  A    between atoms: C27_36  and  O2_37
ROOT
HETATM    1  C6  UNL     1      18.664  24.542  17.169  1.00  0.00     0.134 C
HETATM    2  N1  UNL     1      19.222  24.793  18.530  1.00  0.00    -0.339 N
ATOM      3  H1  UNL     1      20.194  24.942  18.801  1.00  0.00     0.164 HD
HETATM    4  C7  UNL     1      18.058  24.771  19.362  1.00  0.00     0.170 C
HETATM    5  S1  UNL     1      18.125  24.580  21.004  1.00  0.00    -0.041 SA
HETATM    6  N2  UNL     1      16.902  24.934  18.553  1.00  0.00    -0.358 N
ATOM      7  H2  UNL     1      15.929  24.726  18.776  1.00  0.00     0.162 HD
HETATM    8  C8  UNL     1      17.460  25.469  17.334  1.00  0.00     0.134 C
HETATM    9  C9  UNL     1      16.552  25.594  16.205  1.00  0.00     0.044 C
HETATM   10  C10 UNL     1      17.319  25.825  14.927  1.00  0.00     0.085 C
HETATM   11  C20 UNL     1      18.776  25.730  15.036  1.00  0.00     0.230 C
HETATM   12  O1  UNL     1      19.466  26.190  14.055  1.00  0.00    -0.273 OA
HETATM   13  N4  UNL     1      19.470  25.162  16.173  1.00  0.00    -0.301 N
ENDROOT
BRANCH  13  14
HETATM   14  C21 UNL     1      20.829  25.393  16.254  1.00  0.00     0.083 C
BRANCH  14  15
HETATM   15  C22 UNL     1      21.621  26.327  17.026  1.00  0.00     0.029 A
HETATM   16  C23 UNL     1      21.339  27.769  16.447  1.00  0.00     0.025 C
HETATM   17  C24 UNL     1      22.137  27.956  15.204  1.00  0.00     0.018 C
HETATM   18  C25 UNL     1      21.993  29.397  14.752  1.00  0.00     0.010 C
HETATM   19  C28 UNL     1      23.596  27.751  15.525  1.00  0.00     0.154 C
HETATM   20  C26 UNL     1      23.374  29.856  14.345  1.00  0.00     0.035 C
HETATM   21  C27 UNL     1      24.273  29.066  15.266  1.00  0.00     0.147 C
HETATM   22  O3  UNL     1      23.780  27.426  16.869  1.00  0.00    -0.376 OA
HETATM   23  C29 UNL     1      23.074  26.292  17.224  1.00  0.00     0.145 A
HETATM   24  C30 UNL     1      22.051  26.415  18.403  1.00  0.00    -0.005 A
HETATM   25  C31 UNL     1      22.135  25.350  19.439  1.00  0.00     0.019 C
HETATM   26  C32 UNL     1      22.170  27.810  19.083  1.00  0.00     0.019 C
BRANCH  21  27
HETATM   27  O2  UNL     1      24.551  29.774  16.407  1.00  0.00    -0.393 OA
ATOM     28  H2  UNL     1      25.146  30.491  16.224  1.00  0.00     0.210 HD
ENDBRANCH  21  27
ENDBRANCH  14  15
ENDBRANCH  13  14
BRANCH   1  29
HETATM   29  C5  UNL     1      18.362  23.137  17.220  1.00  0.00     0.057 C
BRANCH  29  30
HETATM   30  C4  UNL     1      17.527  22.397  16.307  1.00  0.00     0.008 C
BRANCH  30  31
HETATM   31  C2  UNL     1      16.528  21.556  17.111  1.00  0.00    -0.023 C
HETATM   32  C1  UNL     1      15.168  22.211  17.080  1.00  0.00     0.009 C
HETATM   33  C3  UNL     1      16.937  21.390  18.542  1.00  0.00     0.009 C
ENDBRANCH  30  31
ENDBRANCH  29  30
ENDBRANCH   1  29
BRANCH  10  34
HETATM   34  C11 UNL     1      16.685  25.101  13.756  1.00  0.00     0.058 C
BRANCH  34  35
HETATM   35  C12 UNL     1      15.494  24.263  14.112  1.00  0.00     0.057 C
BRANCH  35  36
HETATM   36  N3  UNL     1      15.434  22.983  13.568  1.00  0.00    -0.398 N
ATOM     37  H3  UNL     1      16.297  22.600  13.184  1.00  0.00     0.159 HD
BRANCH  36  38
HETATM   38  C13 UNL     1      14.305  22.187  13.505  1.00  0.00     0.080 C
HETATM   39  C14 UNL     1      14.278  21.158  12.396  1.00  0.00     0.025 C
HETATM   40  C15 UNL     1      13.084  20.257  12.653  1.00  0.00     0.002 C
HETATM   41  C16 UNL     1      12.941  19.869  14.086  1.00  0.00     0.000 C
HETATM   42  C17 UNL     1      12.346  20.893  14.985  1.00  0.00     0.000 C
HETATM   43  C18 UNL     1      11.929  22.172  14.355  1.00  0.00     0.002 C
HETATM   44  C19 UNL     1      13.005  22.894  13.577  1.00  0.00     0.025 C
ENDBRANCH  36  38
ENDBRANCH  35  36
ENDBRANCH  34  35
ENDBRANCH  10  34
TORSDOF 10
ENDMDL