MODEL 2
REMARK VINA RESULT: -5.897294222      1.126      1.430
REMARK  10 active torsions:
REMARK  status: ('A' for Active; 'I' for Inactive)
REMARK    1  A    between atoms: C2_2  and  C3_3
REMARK    2  A    between atoms: C3_3  and  C5_5
REMARK    3  A    between atoms: C7_10  and  C8_11
REMARK    4  A    between atoms: C8_11  and  C9_12
REMARK    5  A    between atoms: C8_11  and  C14_20
REMARK    6  A    between atoms: C9_12  and  C10_13
REMARK    7  A    between atoms: C17_25  and  O3_26
REMARK    8  A    between atoms: C18_28  and  C19_29
REMARK    9  A    between atoms: C24_36  and  C25_37
REMARK   10  A    between atoms: C28_40  and  C29_41
ROOT
HETATM    1  C5  UNL     1      11.111  15.635  12.013  1.00  0.00     0.169 C
HETATM    2  N1  UNL     1      10.501  16.787  12.633  1.00  0.00    -0.347 N
ATOM      3  H1  UNL     1      10.797  17.682  12.244  1.00  0.00     0.163 HD
HETATM    4  C6  UNL     1       9.588  16.886  13.659  1.00  0.00     0.241 C
HETATM    5  O1  UNL     1       8.502  17.536  13.461  1.00  0.00    -0.271 OA
HETATM    6  C7  UNL     1       9.754  16.279  15.049  1.00  0.00     0.180 C
HETATM    7  N3  UNL     1       8.481  15.655  15.371  1.00  0.00    -0.359 N
ATOM      8  H3  UNL     1       8.138  15.943  16.287  1.00  0.00     0.162 HD
HETATM    9  C17 UNL     1       7.625  14.779  14.757  1.00  0.00     0.136 C
HETATM   10  C18 UNL     1       7.690  13.457  14.115  1.00  0.00     0.163 C
HETATM   11  N4  UNL     1       8.448  13.532  12.928  1.00  0.00    -0.380 N
ATOM     12  H4  UNL     1       9.242  14.171  12.881  1.00  0.00     0.160 HD
HETATM   13  C23 UNL     1       8.127  12.736  11.798  1.00  0.00     0.016 C
HETATM   14  C24 UNL     1       6.832  12.722  11.177  1.00  0.00     0.003 C
HETATM   15  C28 UNL     1       9.380  12.552  10.958  1.00  0.00     0.104 C
HETATM   16  S1  UNL     1      10.027  13.835  10.008  1.00  0.00    -0.079 SA
HETATM   17  C31 UNL     1      10.312  15.401  10.762  1.00  0.00     0.209 C
HETATM   18  O4  UNL     1       9.831  16.388  10.239  1.00  0.00    -0.283 OA
ENDROOT
BRANCH   6  19
HETATM   19  C8  UNL     1       9.953  17.513  16.003  1.00  0.00     0.022 C
BRANCH  19  20
HETATM   20  C9  UNL     1      11.093  18.318  15.365  1.00  0.00     0.021 C
BRANCH  20  21
HETATM   21  C10 UNL     1      10.934  19.793  15.373  1.00  0.00     0.080 C
HETATM   22  C11 UNL     1      11.364  20.301  13.981  1.00  0.00     0.034 C
HETATM   23  C12 UNL     1      12.011  21.652  14.220  1.00  0.00     0.123 C
HETATM   24  N2  UNL     1      12.387  21.640  15.604  1.00  0.00    -0.361 N
HETATM   25  C13 UNL     1      12.120  20.374  16.159  1.00  0.00     0.221 C
ATOM     26  H2  UNL     1      12.786  22.430  16.111  1.00  0.00     0.162 HD
HETATM   27  O2  UNL     1      12.700  19.804  17.092  1.00  0.00    -0.273 OA
ENDBRANCH  20  21
ENDBRANCH  19  20
BRANCH  19  28
HETATM   28  C14 UNL     1      10.433  17.041  17.326  1.00  0.00    -0.016 C
HETATM   29  C15 UNL     1      10.257  17.917  18.530  1.00  0.00     0.010 C
HETATM   30  C16 UNL     1      10.222  15.644  17.776  1.00  0.00     0.010 C
ENDBRANCH  19  28
ENDBRANCH   6  19
BRANCH   9  31
HETATM   31  O3  UNL     1       6.373  15.278  14.750  1.00  0.00    -0.348 OA
ATOM     32  H3  UNL     1       5.745  14.587  14.575  1.00  0.00     0.219 HD
ENDBRANCH   9  31
BRANCH   1  33
HETATM   33  C3  UNL     1      12.561  15.907  11.617  1.00  0.00     0.012 C
HETATM   34  C4  UNL     1      12.941  17.339  11.925  1.00  0.00     0.012 C
BRANCH  33  35
HETATM   35  C2  UNL     1      12.847  15.660  10.178  1.00  0.00     0.002 C
HETATM   36  C1  UNL     1      14.265  15.275   9.894  1.00  0.00     0.005 C
ENDBRANCH  33  35
ENDBRANCH   1  33
BRANCH  10  37
HETATM   37  C19 UNL     1       7.997  12.412  15.124  1.00  0.00    -0.023 C
HETATM   38  C20 UNL     1       7.384  11.119  14.523  1.00  0.00     0.017 C
HETATM   39  C21 UNL     1       9.465  12.025  15.238  1.00  0.00     0.017 C
HETATM   40  C22 UNL     1       7.479  12.565  16.488  1.00  0.00     0.017 C
ENDBRANCH  10  37
BRANCH  15  41
HETATM   41  C29 UNL     1       9.254  11.290  10.097  1.00  0.00     0.017 C
HETATM   42  C30 UNL     1      10.146  11.364   8.905  1.00  0.00     0.006 C
ENDBRANCH  15  41
BRANCH  14  43
HETATM   43  C25 UNL     1       6.059  13.749  10.545  1.00  0.00     0.002 C
HETATM   44  C26 UNL     1       6.161  13.818   9.036  1.00  0.00     0.013 C
HETATM   45  C27 UNL     1       6.068  15.154  11.034  1.00  0.00     0.013 C
ENDBRANCH  14  43
TORSDOF 10
ENDMDL