MODEL 4
REMARK VINA RESULT: -8.506516158      0.898      2.738
REMARK  13 active torsions:
REMARK  status: ('A' for Active; 'I' for Inactive)
REMARK    1  A    between atoms: O1_2  and  C2_3
REMARK    2  A    between atoms: C3_4  and  O2_5
REMARK    3  A    between atoms: C4_7  and  C5_8
REMARK    4  A    between atoms: C5_8  and  O3_9
REMARK    5  A    between atoms: C6_12  and  O5_13
REMARK    6  A    between atoms: O5_13  and  C7_14
REMARK    7  A    between atoms: C13_23  and  C14_24
REMARK    8  A    between atoms: C14_24  and  N2_25
REMARK    9  A    between atoms: N2_25  and  C17_28
REMARK   10  A    between atoms: C17_28  and  C18_29
REMARK   11  A    between atoms: C18_29  and  C19_30
REMARK   12  A    between atoms: C19_30  and  C20_31
REMARK   13  A    between atoms: C32_43  and  O7_44
ROOT
HETATM    1  C7  UNL     1      18.115  24.693  17.267  1.00  0.00     0.146 A
HETATM    2  C8  UNL     1      16.905  24.551  17.915  1.00  0.00     0.066 A
HETATM    3  C9  UNL     1      16.427  23.249  17.656  1.00  0.00    -0.014 A
HETATM    4  C10 UNL     1      17.383  22.683  16.862  1.00  0.00     0.087 A
HETATM    5  N1  UNL     1      18.413  23.554  16.625  1.00  0.00    -0.333 N
ATOM      6  H1  UNL     1      19.246  23.372  16.066  1.00  0.00     0.168 HD
HETATM    7  C11 UNL     1      17.090  21.320  16.420  1.00  0.00     0.177 C
HETATM    8  O6  UNL     1      18.028  20.507  16.410  1.00  0.00    -0.291 OA
HETATM    9  C12 UNL     1      15.685  21.077  16.029  1.00  0.00     0.098 C
HETATM   10  C13 UNL     1      14.639  21.508  17.091  1.00  0.00     0.007 C
HETATM   11  C23 UNL     1      14.412  20.285  17.855  1.00  0.00     0.010 A
HETATM   12  C24 UNL     1      13.539  20.677  19.065  1.00  0.00    -0.001 A
HETATM   13  C25 UNL     1      14.473  21.157  20.098  1.00  0.00     0.007 C
HETATM   14  C26 UNL     1      15.645  21.804  19.403  1.00  0.00     0.015 C
HETATM   15  C27 UNL     1      15.235  22.501  18.093  1.00  0.00    -0.004 C
HETATM   16  C28 UNL     1      14.285  23.569  18.570  1.00  0.00     0.021 C
HETATM   17  C29 UNL     1      13.535  19.359  18.422  1.00  0.00    -0.039 A
HETATM   18  C30 UNL     1      12.203  18.812  17.976  1.00  0.00     0.015 C
HETATM   19  C31 UNL     1      14.133  18.329  19.447  1.00  0.00     0.015 C
ENDROOT
BRANCH   1  20
HETATM   20  O5  UNL     1      18.859  25.862  17.312  1.00  0.00    -0.302 OA
BRANCH  20  21
HETATM   21  C6  UNL     1      20.132  25.903  16.681  1.00  0.00     0.299 C
HETATM   22  O4  UNL     1      20.093  27.126  15.944  1.00  0.00    -0.348 OA
HETATM   23  C4  UNL     1      21.313  27.316  15.326  1.00  0.00     0.179 C
HETATM   24  C3  UNL     1      22.388  27.553  16.340  1.00  0.00     0.180 C
HETATM   25  C2  UNL     1      21.779  27.351  17.733  1.00  0.00     0.185 C
HETATM   26  C32 UNL     1      21.183  25.955  17.739  1.00  0.00     0.205 C
BRANCH  23  27
HETATM   27  C5  UNL     1      21.201  28.535  14.440  1.00  0.00     0.198 C
BRANCH  27  28
HETATM   28  O3  UNL     1      20.014  29.205  14.695  1.00  0.00    -0.398 OA
ATOM     29  H3  UNL     1      19.586  28.837  15.459  1.00  0.00     0.209 HD
ENDBRANCH  27  28
ENDBRANCH  23  27
BRANCH  24  30
HETATM   30  O2  UNL     1      22.890  28.847  16.226  1.00  0.00    -0.390 OA
ATOM     31  H2  UNL     1      22.945  29.250  17.085  1.00  0.00     0.210 HD
ENDBRANCH  24  30
BRANCH  25  32
HETATM   32  O1  UNL     1      22.690  27.564  18.736  1.00  0.00    -0.385 OA
HETATM   33  C1  UNL     1      23.729  26.620  18.562  1.00  0.00     0.202 C
ENDBRANCH  25  32
BRANCH  26  34
HETATM   34  O7  UNL     1      20.677  25.635  19.016  1.00  0.00    -0.388 OA
ATOM     35  H7  UNL     1      19.959  26.212  19.248  1.00  0.00     0.210 HD
ENDBRANCH  26  34
ENDBRANCH  20  21
ENDBRANCH   1  20
BRANCH  10  36
HETATM   36  C14 UNL     1      13.613  22.235  16.342  1.00  0.00     0.247 C
BRANCH  36  37
HETATM   37  N2  UNL     1      13.635  22.731  15.052  1.00  0.00    -0.074 N
HETATM   38  C15 UNL     1      14.869  23.090  14.405  1.00  0.00     0.272 C
HETATM   39  C16 UNL     1      12.834  23.998  14.930  1.00  0.00     0.272 C
BRANCH  37  40
HETATM   40  C17 UNL     1      12.966  21.831  14.137  1.00  0.00     0.236 C
BRANCH  40  41
HETATM   41  C18 UNL     1      11.617  21.367  14.537  1.00  0.00     0.028 C
BRANCH  41  42
HETATM   42  C19 UNL     1      11.425  19.868  14.231  1.00  0.00     0.005 C
BRANCH  42  43
HETATM   43  C20 UNL     1      10.047  19.460  14.703  1.00  0.00    -0.023 C
HETATM   44  C21 UNL     1       9.519  20.367  15.767  1.00  0.00     0.009 C
HETATM   45  C22 UNL     1      10.009  18.014  15.073  1.00  0.00     0.009 C
ENDBRANCH  42  43
ENDBRANCH  41  42
ENDBRANCH  40  41
ENDBRANCH  37  40
ENDBRANCH  36  37
ENDBRANCH  10  36
TORSDOF 13
ENDMDL