MODEL 2
REMARK VINA RESULT: -8.060236863     12.898     18.417
REMARK  9 active torsions:
REMARK  status: ('A' for Active; 'I' for Inactive)
REMARK    1  A    between atoms: C2_2  and  C4_4
REMARK    2  A    between atoms: C4_4  and  C5_5
REMARK    3  A    between atoms: C7_7  and  N1_8
REMARK    4  A    between atoms: C7_7  and  C27_36
REMARK       I    between atoms: N1_8  and  C8_10
REMARK    5  A    between atoms: C8_10  and  C9_12
REMARK    6  A    between atoms: C9_12  and  N2_13
REMARK       I    between atoms: N2_13  and  C10_15
REMARK    7  A    between atoms: C10_15  and  C11_17
REMARK       I    between atoms: C27_36  and  N4_38
REMARK    8  A    between atoms: N4_38  and  S1_40
REMARK    9  A    between atoms: S1_40  and  C28_43
ROOT
HETATM    1  C9  UNL     1       9.672  16.423  12.874  1.00  0.00     0.114 C
HETATM    2  C16 UNL     1      10.748  16.594  11.903  1.00  0.00     0.041 C
HETATM    3  C17 UNL     1      11.991  15.817  11.924  1.00  0.00     0.003 C
HETATM    4  C18 UNL     1      12.443  15.352  10.541  1.00  0.00     0.000 C
HETATM    5  C19 UNL     1      12.139  16.398   9.491  1.00  0.00     0.000 C
HETATM    6  C20 UNL     1      11.242  15.861   8.405  1.00  0.00     0.000 C
HETATM    7  C21 UNL     1      10.287  16.841   7.811  1.00  0.00     0.000 C
HETATM    8  C22 UNL     1       8.831  16.386   7.989  1.00  0.00     0.000 C
HETATM    9  C23 UNL     1       8.059  17.259   8.934  1.00  0.00     0.000 C
HETATM   10  C24 UNL     1       7.229  16.489   9.940  1.00  0.00     0.000 C
HETATM   11  C25 UNL     1       8.078  15.778  10.984  1.00  0.00     0.003 C
HETATM   12  C26 UNL     1       8.329  16.598  12.189  1.00  0.00     0.041 C
ENDROOT
BRANCH   1  13
HETATM   13  C8  UNL     1       9.734  17.599  13.810  1.00  0.00     0.247 C
HETATM   14  N1  UNL     1      10.916  18.318  14.048  1.00  0.00    -0.340 N
ATOM     15  H1  UNL     1      11.756  18.028  13.548  1.00  0.00     0.163 HD
HETATM   16  O1  UNL     1       8.694  17.936  14.387  1.00  0.00    -0.271 OA
BRANCH  14  17
HETATM   17  C7  UNL     1      11.027  19.441  14.950  1.00  0.00     0.119 A
HETATM   18  C5  UNL     1      12.033  20.503  14.683  1.00  0.00     0.026 A
HETATM   19  C6  UNL     1      10.561  20.797  14.558  1.00  0.00     0.049 A
BRANCH  18  20
HETATM   20  C4  UNL     1      12.897  20.589  13.499  1.00  0.00     0.011 C
BRANCH  20  21
HETATM   21  C2  UNL     1      14.073  21.498  13.619  1.00  0.00    -0.022 C
HETATM   22  C1  UNL     1      14.708  21.647  12.217  1.00  0.00     0.009 C
HETATM   23  C3  UNL     1      13.771  22.911  14.044  1.00  0.00     0.009 C
ENDBRANCH  20  21
ENDBRANCH  18  20
BRANCH  17  24
HETATM   24  C27 UNL     1      10.893  19.095  16.378  1.00  0.00     0.259 C
HETATM   25  O3  UNL     1      10.130  19.824  17.081  1.00  0.00    -0.270 OA
HETATM   26  N4  UNL     1      11.533  18.032  17.045  1.00  0.00    -0.252 N
ATOM     27  H4  UNL     1      12.146  17.425  16.502  1.00  0.00     0.181 HD
BRANCH  26  28
HETATM   28  S1  UNL     1      11.343  17.700  18.707  1.00  0.00     0.237 S
HETATM   29  O4  UNL     1      10.459  18.704  19.388  1.00  0.00    -0.205 OA
HETATM   30  O5  UNL     1      10.634  16.356  18.816  1.00  0.00    -0.205 OA
BRANCH  28  31
HETATM   31  C28 UNL     1      12.846  17.567  19.607  1.00  0.00     0.130 A
HETATM   32  C29 UNL     1      13.666  18.726  19.982  1.00  0.00     0.023 A
HETATM   33  C30 UNL     1      14.136  17.926  18.832  1.00  0.00     0.023 A
ENDBRANCH  28  31
ENDBRANCH  26  28
ENDBRANCH  17  24
ENDBRANCH  14  17
ENDBRANCH   1  13
BRANCH   1  34
HETATM   34  N2  UNL     1       9.577  15.260  13.663  1.00  0.00    -0.341 N
HETATM   35  C10 UNL     1      10.012  14.876  14.910  1.00  0.00     0.249 C
HETATM   36  O2  UNL     1      10.655  15.614  15.666  1.00  0.00    -0.271 OA
ATOM     37  H2  UNL     1       9.057  14.519  13.194  1.00  0.00     0.163 HD
BRANCH  35  38
HETATM   38  C11 UNL     1       9.710  13.496  15.414  1.00  0.00     0.277 C
HETATM   39  C12 UNL     1       9.230  12.582  14.309  1.00  0.00     0.043 C
HETATM   40  C13 UNL     1       9.256  11.171  14.891  1.00  0.00     0.004 C
HETATM   41  C14 UNL     1       8.420  11.139  16.164  1.00  0.00     0.027 C
HETATM   42  C15 UNL     1       7.780  12.505  16.383  1.00  0.00     0.233 C
HETATM   43  N3  UNL     1       8.782  13.501  16.484  1.00  0.00    -0.062 N
ATOM     44  H32 UNL     1       9.267  13.430  17.378  1.00  0.00     0.278 HD
ATOM     45  H31 UNL     1       8.360  14.423  16.588  1.00  0.00     0.278 HD
ENDBRANCH  35  38
ENDBRANCH   1  34
TORSDOF 9
ENDMDL