MODEL 5
REMARK VINA RESULT: -9.617285563      1.389      1.843
REMARK  9 active torsions:
REMARK  status: ('A' for Active; 'I' for Inactive)
REMARK    1  A    between atoms: C6_8  and  C7_9
REMARK    2  A    between atoms: C9_11  and  C10_12
REMARK    3  A    between atoms: C12_19  and  C13_20
REMARK    4  A    between atoms: C13_20  and  S1_21
REMARK    5  A    between atoms: S1_21  and  N3_24
REMARK    6  A    between atoms: N3_24  and  C14_26
REMARK    7  A    between atoms: C17_29  and  N4_30
REMARK    8  A    between atoms: N4_30  and  C18_33
REMARK    9  A    between atoms: C18_33  and  C19_34
ROOT
HETATM    1  C13 UNL     1      14.741  20.945  16.175  1.00  0.00     0.179 C
ENDROOT
BRANCH   1   2
HETATM    2  C12 UNL     1      13.711  21.924  15.751  1.00  0.00     0.024 C
HETATM    3  C2  UNL     1      13.667  23.267  16.244  1.00  0.00    -0.011 C
HETATM    4  C1  UNL     1      14.345  23.853  17.438  1.00  0.00     0.064 C
HETATM    5  N1  UNL     1      12.872  24.104  15.610  1.00  0.00    -0.396 N
HETATM    6  C3  UNL     1      12.147  23.742  14.428  1.00  0.00     0.124 C
ATOM      7  H1  UNL     1      12.768  25.051  15.975  1.00  0.00     0.159 HD
HETATM    8  C4  UNL     1      12.782  22.578  13.685  1.00  0.00     0.013 C
HETATM    9  C5  UNL     1      11.948  21.337  14.128  1.00  0.00     0.013 C
HETATM   10  C28 UNL     1      14.107  22.180  14.257  1.00  0.00    -0.028 C
HETATM   11  C6  UNL     1      12.419  21.176  15.507  1.00  0.00     0.015 C
HETATM   12  C29 UNL     1      14.665  20.991  13.571  1.00  0.00     0.016 C
HETATM   13  C30 UNL     1      15.113  23.278  14.132  1.00  0.00     0.016 C
BRANCH  11  14
HETATM   14  C7  UNL     1      11.521  20.900  16.631  1.00  0.00     0.085 C
HETATM   15  C8  UNL     1      12.152  20.100  17.782  1.00  0.00     0.050 C
HETATM   16  C9  UNL     1      11.933  18.617  17.584  1.00  0.00     0.186 C
HETATM   17  N2  UNL     1      11.078  18.644  16.392  1.00  0.00    -0.346 N
HETATM   18  C11 UNL     1      10.459  19.887  16.254  1.00  0.00     0.223 C
ATOM     19  H2  UNL     1      10.954  17.860  15.750  1.00  0.00     0.163 HD
HETATM   20  O3  UNL     1       9.249  20.063  15.874  1.00  0.00    -0.273 OA
BRANCH  16  21
HETATM   21  C10 UNL     1      10.960  18.207  18.676  1.00  0.00     0.196 C
HETATM   22  O1  UNL     1      10.893  18.770  19.782  1.00  0.00    -0.646 OA
HETATM   23  O2  UNL     1      10.091  17.110  18.357  1.00  0.00    -0.646 OA
ENDBRANCH  16  21
ENDBRANCH  11  14
ENDBRANCH   1   2
BRANCH   1  24
HETATM   24  S1  UNL     1      16.080  21.301  17.150  1.00  0.00     0.228 S
HETATM   25  O4  UNL     1      15.701  21.418  18.639  1.00  0.00    -0.206 OA
HETATM   26  O5  UNL     1      17.282  20.438  17.151  1.00  0.00    -0.206 OA
BRANCH  24  27
HETATM   27  N3  UNL     1      16.645  22.900  16.834  1.00  0.00    -0.315 N
ATOM     28  H3  UNL     1      16.037  23.716  16.899  1.00  0.00     0.172 HD
BRANCH  27  29
HETATM   29  C14 UNL     1      18.028  23.003  16.474  1.00  0.00     0.093 C
HETATM   30  C15 UNL     1      18.299  24.089  15.436  1.00  0.00     0.028 C
HETATM   31  C16 UNL     1      19.462  24.889  15.949  1.00  0.00     0.036 C
HETATM   32  C17 UNL     1      19.008  25.568  17.222  1.00  0.00     0.193 C
HETATM   33  C24 UNL     1      18.752  24.571  18.286  1.00  0.00    -0.018 C
HETATM   34  C25 UNL     1      17.447  24.945  18.963  1.00  0.00     0.017 C
HETATM   35  C26 UNL     1      19.860  24.714  19.314  1.00  0.00     0.017 C
HETATM   36  C27 UNL     1      18.781  23.147  17.754  1.00  0.00     0.036 C
BRANCH  32  37
HETATM   37  N4  UNL     1      19.801  26.701  17.567  1.00  0.00    -0.070 N
ATOM     38  H42 UNL     1      19.240  27.540  17.713  1.00  0.00     0.277 HD
ATOM     39  H41 UNL     1      20.195  26.630  18.505  1.00  0.00     0.277 HD
BRANCH  37  40
HETATM   40  C18 UNL     1      20.819  26.885  16.550  1.00  0.00     0.237 C
BRANCH  40  41
HETATM   41  C19 UNL     1      20.721  28.222  15.894  1.00  0.00     0.011 C
HETATM   42  C20 UNL     1      22.050  28.782  15.521  1.00  0.00     0.006 C
HETATM   43  C21 UNL     1      22.114  28.665  13.994  1.00  0.00     0.000 C
HETATM   44  C22 UNL     1      20.674  28.805  13.590  1.00  0.00     0.000 C
HETATM   45  C23 UNL     1      19.834  28.202  14.671  1.00  0.00     0.006 C
ENDBRANCH  40  41
ENDBRANCH  37  40
ENDBRANCH  32  37
ENDBRANCH  27  29
ENDBRANCH  24  27
ENDBRANCH   1  24
TORSDOF 9
ENDMDL