MODEL 5
REMARK VINA RESULT: -6.222181393      5.740     10.240
REMARK  9 active torsions:
REMARK  status: ('A' for Active; 'I' for Inactive)
REMARK    1  A    between atoms: N1_4  and  C3_5
REMARK    2  A    between atoms: C3_5  and  C4_6
REMARK    3  A    between atoms: C4_6  and  C5_7
REMARK    4  A    between atoms: C5_7  and  C6_8
REMARK    5  A    between atoms: C6_8  and  C7_9
REMARK    6  A    between atoms: C7_9  and  S1_10
REMARK    7  A    between atoms: C9_16  and  C10_17
REMARK    8  A    between atoms: C29_38  and  C30_39
REMARK    9  A    between atoms: C30_39  and  O6_40
ROOT
HETATM    1  O1  UNL     1      11.143  14.194  14.064  1.00  0.00    -0.272 OA
HETATM    2  C1  UNL     1       9.915  14.297  13.809  1.00  0.00     0.235 C
HETATM    3  C2  UNL     1       9.565  15.004  12.532  1.00  0.00     0.228 C
HETATM    4  N1  UNL     1      10.101  16.352  12.482  1.00  0.00    -0.342 N
HETATM    5  C8  UNL     1      11.075  16.706  11.558  1.00  0.00     0.243 C
HETATM    6  O5  UNL     1      11.529  17.903  11.604  1.00  0.00    -0.271 OA
HETATM    7  C9  UNL     1      11.686  15.876  10.490  1.00  0.00     0.178 C
HETATM    8  N2  UNL     1      11.140  16.216   9.181  1.00  0.00    -0.376 N
ATOM      9  H2  UNL     1      11.824  16.590   8.523  1.00  0.00     0.160 HD
HETATM   10  C15 UNL     1       9.820  16.116   8.660  1.00  0.00     0.029 A
HETATM   11  C16 UNL     1       9.514  17.311   7.958  1.00  0.00     0.029 A
HETATM   12  C17 UNL     1       8.322  17.552   7.332  1.00  0.00     0.003 A
HETATM   13  C18 UNL     1       7.412  16.536   7.425  1.00  0.00     0.007 A
HETATM   14  C19 UNL     1       7.651  15.319   8.108  1.00  0.00    -0.056 A
HETATM   15  C20 UNL     1       8.862  15.125   8.720  1.00  0.00     0.036 A
HETATM   16  C21 UNL     1       6.456  14.435   8.024  1.00  0.00     0.038 C
HETATM   17  C22 UNL     1       5.711  14.213   9.318  1.00  0.00     0.005 C
HETATM   18  C23 UNL     1       4.845  15.365   9.718  1.00  0.00     0.000 C
HETATM   19  C24 UNL     1       4.191  15.009  11.039  1.00  0.00     0.000 C
HETATM   20  C25 UNL     1       5.054  15.459  12.196  1.00  0.00     0.000 C
HETATM   21  C26 UNL     1       4.886  14.538  13.388  1.00  0.00     0.000 C
HETATM   22  C27 UNL     1       5.912  14.850  14.452  1.00  0.00     0.002 C
HETATM   23  C28 UNL     1       6.528  13.613  15.044  1.00  0.00     0.027 C
HETATM   24  C29 UNL     1       7.687  13.172  14.198  1.00  0.00     0.108 C
HETATM   25  N3  UNL     1       8.922  13.774  14.678  1.00  0.00    -0.353 N
ATOM     26  H3  UNL     1       9.081  13.822  15.685  1.00  0.00     0.163 HD
ENDROOT
BRANCH   4  27
HETATM   27  C3  UNL     1       9.581  17.295  13.422  1.00  0.00     0.126 C
BRANCH  27  28
HETATM   28  C4  UNL     1      10.483  17.832  14.449  1.00  0.00     0.020 C
BRANCH  28  29
HETATM   29  C5  UNL     1      10.474  19.338  14.634  1.00  0.00     0.002 C
BRANCH  29  30
HETATM   30  C6  UNL     1      10.164  19.551  16.096  1.00  0.00     0.018 C
BRANCH  30  31
HETATM   31  C7  UNL     1      10.226  18.360  16.966  1.00  0.00     0.165 C
BRANCH  31  32
HETATM   32  S1  UNL     1      11.263  18.542  18.382  1.00  0.00     0.101 S
HETATM   33  O2  UNL     1      10.461  18.592  19.646  1.00  0.00    -0.595 OA
HETATM   34  O3  UNL     1      12.076  19.807  18.288  1.00  0.00    -0.595 OA
HETATM   35  O4  UNL     1      12.336  17.227  18.407  1.00  0.00    -0.595 OA
ENDBRANCH  31  32
ENDBRANCH  30  31
ENDBRANCH  29  30
ENDBRANCH  28  29
ENDBRANCH  27  28
ENDBRANCH   4  27
BRANCH   7  36
HETATM   36  C10 UNL     1      13.178  16.113  10.536  1.00  0.00     0.017 C
HETATM   37  C11 UNL     1      13.855  15.369  11.625  1.00  0.00     0.007 C
HETATM   38  C12 UNL     1      15.276  15.197  11.069  1.00  0.00     0.000 C
HETATM   39  C13 UNL     1      14.984  14.763   9.645  1.00  0.00     0.000 C
HETATM   40  C14 UNL     1      13.853  15.715   9.247  1.00  0.00     0.007 C
ENDBRANCH   7  36
BRANCH  24  41
HETATM   41  C30 UNL     1       7.789  11.650  14.365  1.00  0.00     0.189 C
BRANCH  41  42
HETATM   42  O6  UNL     1       8.358  11.313  15.568  1.00  0.00    -0.399 OA
ATOM     43  H6  UNL     1       9.131  10.774  15.448  1.00  0.00     0.209 HD
ENDBRANCH  41  42
ENDBRANCH  24  41
TORSDOF 9
ENDMDL