MODEL 4
REMARK VINA RESULT: -10.879708539      1.711      5.674
REMARK  13 active torsions:
REMARK  status: ('A' for Active; 'I' for Inactive)
REMARK    1  A    between atoms: C5_8  and  C6_9
REMARK    2  A    between atoms: C6_9  and  C7_10
REMARK    3  A    between atoms: C6_9  and  N2_22
REMARK    4  A    between atoms: C7_10  and  C8_11
REMARK    5  A    between atoms: C8_11  and  C9_12
REMARK    6  A    between atoms: N2_22  and  C19_24
REMARK    7  A    between atoms: C19_24  and  O1_25
REMARK    8  A    between atoms: C19_24  and  C20_27
REMARK    9  A    between atoms: C20_27  and  N3_28
REMARK   10  A    between atoms: C20_27  and  C28_42
REMARK       I    between atoms: N3_28  and  C21_30
REMARK   11  A    between atoms: C21_30  and  O3_32
REMARK   12  A    between atoms: O3_32  and  C22_33
REMARK   13  A    between atoms: C26_38  and  C27_39
ROOT
HETATM    1  C19 UNL     1      14.971  23.800  17.149  1.00  0.00     0.139 C
ENDROOT
BRANCH   1   2
HETATM    2  N2  UNL     1      15.669  24.500  18.138  1.00  0.00    -0.346 N
ATOM      3  H2  UNL     1      15.133  25.052  18.807  1.00  0.00     0.167 HD
BRANCH   2   4
HETATM    4  C6  UNL     1      17.127  24.484  18.264  1.00  0.00    -0.005 C
BRANCH   4   5
HETATM    5  C5  UNL     1      17.714  24.270  19.560  1.00  0.00     0.062 C
HETATM    6  C2  UNL     1      19.092  24.872  19.795  1.00  0.00     0.018 C
HETATM    7  C1  UNL     1      20.224  23.966  19.384  1.00  0.00     0.012 C
HETATM    8  C3  UNL     1      19.044  24.623  21.338  1.00  0.00     0.237 C
HETATM    9  N1  UNL     1      18.820  23.184  21.311  1.00  0.00    -0.074 N
HETATM   10  C4  UNL     1      17.866  22.959  20.207  1.00  0.00     0.243 C
ATOM     11  H12 UNL     1      19.676  22.635  21.232  1.00  0.00     0.277 HD
ATOM     12  H11 UNL     1      18.513  22.799  22.204  1.00  0.00     0.277 HD
ENDBRANCH   4   5
BRANCH   4  13
HETATM   13  C7  UNL     1      17.719  25.505  17.328  1.00  0.00     0.054 C
BRANCH  13  14
HETATM   14  C8  UNL     1      18.405  25.035  16.116  1.00  0.00     0.015 C
BRANCH  14  15
HETATM   15  C9  UNL     1      19.521  25.945  15.651  1.00  0.00    -0.039 C
HETATM   16  C10 UNL     1      20.031  26.744  16.848  1.00  0.00     0.014 C
HETATM   17  C11 UNL     1      21.113  27.692  16.454  1.00  0.00    -0.013 C
HETATM   18  C12 UNL     1      22.241  26.929  15.822  1.00  0.00     0.009 C
HETATM   19  C16 UNL     1      20.566  28.706  15.474  1.00  0.00     0.009 C
HETATM   20  C13 UNL     1      21.692  26.226  14.581  1.00  0.00    -0.013 C
HETATM   21  C14 UNL     1      21.141  27.227  13.621  1.00  0.00     0.009 C
HETATM   22  C18 UNL     1      20.678  25.220  15.066  1.00  0.00     0.014 C
HETATM   23  C15 UNL     1      20.008  27.980  14.295  1.00  0.00    -0.013 C
HETATM   24  C17 UNL     1      18.962  26.948  14.671  1.00  0.00     0.014 C
ENDBRANCH  14  15
ENDBRANCH  13  14
ENDBRANCH   4  13
ENDBRANCH   2   4
ENDBRANCH   1   2
BRANCH   1  25
HETATM   25  O1  UNL     1      13.708  24.102  17.096  1.00  0.00    -0.348 OA
ATOM     26  H1  UNL     1      13.547  25.022  16.923  1.00  0.00     0.219 HD
ENDBRANCH   1  25
BRANCH   1  27
HETATM   27  C20 UNL     1      15.367  22.802  16.177  1.00  0.00     0.165 C
BRANCH  27  28
HETATM   28  N3  UNL     1      14.814  21.478  16.492  1.00  0.00    -0.324 N
HETATM   29  C21 UNL     1      15.547  20.603  17.299  1.00  0.00     0.361 C
HETATM   30  O2  UNL     1      16.686  20.876  17.778  1.00  0.00    -0.238 OA
ATOM     31  H3  UNL     1      13.904  21.199  16.125  1.00  0.00     0.165 HD
BRANCH  29  32
HETATM   32  O3  UNL     1      15.036  19.353  17.620  1.00  0.00    -0.296 OA
BRANCH  32  33
HETATM   33  C22 UNL     1      13.753  19.138  18.182  1.00  0.00     0.166 C
HETATM   34  C23 UNL     1      13.604  19.873  19.505  1.00  0.00     0.068 C
HETATM   35  C24 UNL     1      13.649  18.652  20.418  1.00  0.00     0.141 C
HETATM   36  O4  UNL     1      14.695  17.919  19.806  1.00  0.00    -0.376 OA
HETATM   37  C26 UNL     1      12.714  17.648  19.801  1.00  0.00     0.147 C
HETATM   38  C25 UNL     1      13.774  17.720  18.759  1.00  0.00     0.168 C
BRANCH  37  39
HETATM   39  C27 UNL     1      11.367  18.109  19.479  1.00  0.00     0.182 C
HETATM   40  O5  UNL     1      10.664  18.706  20.327  1.00  0.00    -0.648 OA
HETATM   41  O6  UNL     1      10.859  17.886  18.223  1.00  0.00    -0.648 OA
ENDBRANCH  37  39
ENDBRANCH  32  33
ENDBRANCH  29  32
ENDBRANCH  27  28
BRANCH  27  42
HETATM   42  C28 UNL     1      14.977  23.151  14.742  1.00  0.00     0.016 C
HETATM   43  C29 UNL     1      15.606  24.388  14.231  1.00  0.00     0.007 C
HETATM   44  C30 UNL     1      16.138  24.237  12.823  1.00  0.00     0.000 C
HETATM   45  C31 UNL     1      15.006  23.704  11.976  1.00  0.00     0.000 C
HETATM   46  C32 UNL     1      14.703  22.308  12.403  1.00  0.00     0.000 C
HETATM   47  C33 UNL     1      15.019  21.978  13.823  1.00  0.00     0.007 C
ENDBRANCH  27  42
ENDBRANCH   1  27
TORSDOF 13
ENDMDL