MODEL 5
REMARK VINA RESULT: -8.283553573      2.260      3.806
REMARK  12 active torsions:
REMARK  status: ('A' for Active; 'I' for Inactive)
REMARK    1  A    between atoms: C7_9  and  N2_10
REMARK    2  A    between atoms: N2_10  and  C8_12
REMARK    3  A    between atoms: C8_12  and  C9_14
REMARK    4  A    between atoms: C11_17  and  N3_18
REMARK       I    between atoms: N3_18  and  C12_20
REMARK    5  A    between atoms: C12_20  and  C13_22
REMARK       I    between atoms: C13_22  and  N4_24
REMARK    6  A    between atoms: N4_24  and  C14_26
REMARK    7  A    between atoms: C14_26  and  C15_27
REMARK    8  A    between atoms: C15_27  and  N5_28
REMARK    9  A    between atoms: N6_31  and  C18_32
REMARK   10  A    between atoms: C18_32  and  C19_33
REMARK   11  A    between atoms: C19_33  and  C20_34
REMARK   12  A    between atoms: C20_34  and  O3_35
ROOT
HETATM    1  C9  UNL     1       5.401  -4.832  16.861  1.00  0.00     0.093 A
HETATM    2  C10 UNL     1       5.158  -3.575  16.362  1.00  0.00     0.070 A
HETATM    3  S2  UNL     1       3.571  -2.981  15.811  1.00  0.00    -0.048 SA
HETATM    4  C11 UNL     1       6.346  -2.818  16.348  1.00  0.00     0.071 A
HETATM    5  C25 UNL     1       7.289  -3.682  16.857  1.00  0.00     0.121 A
HETATM    6  N7  UNL     1       6.702  -4.880  17.157  1.00  0.00    -0.355 N
HETATM    7  C26 UNL     1       7.424  -5.988  17.706  1.00  0.00     0.156 C
ENDROOT
BRANCH   4   8
HETATM    8  N3  UNL     1       6.446  -1.478  15.896  1.00  0.00    -0.316 N
HETATM    9  C12 UNL     1       6.518  -1.162  14.538  1.00  0.00     0.314 C
HETATM   10  O1  UNL     1       6.502  -2.012  13.629  1.00  0.00    -0.262 OA
ATOM     11  H3  UNL     1       6.466  -0.724  16.582  1.00  0.00     0.169 HD
BRANCH   9  12
HETATM   12  C13 UNL     1       6.621   0.272  14.166  1.00  0.00     0.309 C
HETATM   13  O2  UNL     1       5.904   1.135  14.764  1.00  0.00    -0.262 OA
HETATM   14  N4  UNL     1       7.525   0.649  13.142  1.00  0.00    -0.351 N
ATOM     15  H4  UNL     1       8.102  -0.041  12.661  1.00  0.00     0.162 HD
BRANCH  14  16
HETATM   16  C14 UNL     1       7.596   2.079  12.803  1.00  0.00     0.151 C
BRANCH  16  17
HETATM   17  C15 UNL     1       7.239   2.299  11.365  1.00  0.00     0.257 C
BRANCH  17  18
HETATM   18  N5  UNL     1       5.893   2.696  11.112  1.00  0.00    -0.061 N
HETATM   19  C16 UNL     1       4.875   1.754  11.443  1.00  0.00     0.265 C
HETATM   20  C17 UNL     1       3.602   2.164  10.678  1.00  0.00     0.265 C
HETATM   21  N6  UNL     1       3.582   3.600  10.478  1.00  0.00    -0.062 N
HETATM   22  C21 UNL     1       4.558   3.948   9.491  1.00  0.00     0.265 C
HETATM   23  C23 UNL     1       4.108   4.191  11.740  1.00  0.00     0.265 C
HETATM   24  C22 UNL     1       5.756   3.010   9.685  1.00  0.00     0.265 C
HETATM   25  C24 UNL     1       5.595   3.940  11.819  1.00  0.00     0.265 C
BRANCH  21  26
HETATM   26  C18 UNL     1       2.278   4.120  10.308  1.00  0.00     0.239 C
BRANCH  26  27
HETATM   27  C19 UNL     1       1.177   3.226   9.914  1.00  0.00     0.054 C
BRANCH  27  28
HETATM   28  C20 UNL     1       0.183   2.903  10.992  1.00  0.00     0.165 C
BRANCH  28  29
HETATM   29  O3  UNL     1       0.546   3.488  12.210  1.00  0.00    -0.401 OA
ATOM     30  H3  UNL     1       0.693   2.829  12.879  1.00  0.00     0.209 HD
ENDBRANCH  28  29
ENDBRANCH  27  28
ENDBRANCH  26  27
ENDBRANCH  21  26
ENDBRANCH  17  18
ENDBRANCH  16  17
ENDBRANCH  14  16
ENDBRANCH   9  12
ENDBRANCH   4   8
BRANCH   1  31
HETATM   31  C8  UNL     1       4.394  -5.901  17.026  1.00  0.00     0.144 C
HETATM   32  S1  UNL     1       3.530  -6.011  18.391  1.00  0.00    -0.057 SA
BRANCH  31  33
HETATM   33  N2  UNL     1       4.197  -6.803  15.978  1.00  0.00    -0.179 N
ATOM     34  H2  UNL     1       3.840  -6.453  15.089  1.00  0.00     0.185 HD
BRANCH  33  35
HETATM   35  C7  UNL     1       4.445  -8.041  16.094  1.00  0.00     0.684 A
HETATM   36  N1  UNL     1       3.858  -9.043  15.437  1.00  0.00    -0.189 N
HETATM   37  C6  UNL     1       4.394 -10.236  15.827  1.00  0.00     0.082 A
ATOM     38  H1  UNL     1       3.117  -8.933  14.745  1.00  0.00     0.184 HD
HETATM   39  C4  UNL     1       4.154 -11.545  15.468  1.00  0.00    -0.032 A
HETATM   40  C27 UNL     1       5.348  -9.915  16.766  1.00  0.00     0.077 A
HETATM   41  C3  UNL     1       4.890 -12.559  16.066  1.00  0.00     0.015 A
HETATM   42  C5  UNL     1       3.112 -11.834  14.450  1.00  0.00     0.050 C
HETATM   43  C2  UNL     1       5.853 -12.284  17.009  1.00  0.00    -0.059 A
HETATM   44  C1  UNL     1       6.639 -13.393  17.644  1.00  0.00     0.048 C
HETATM   45  C28 UNL     1       6.054 -10.961  17.333  1.00  0.00     0.039 A
HETATM   46  N8  UNL     1       5.360  -8.582  16.910  1.00  0.00    -0.189 N
ATOM     47  H8  UNL     1       5.969  -8.063  17.541  1.00  0.00     0.184 HD
ENDBRANCH  33  35
ENDBRANCH  31  33
ENDBRANCH   1  31
TORSDOF 12
ENDMDL