MODEL 3
REMARK VINA RESULT: -9.784963322      0.969      2.039
REMARK  13 active torsions:
REMARK  status: ('A' for Active; 'I' for Inactive)
REMARK    1  A    between atoms: C2_2  and  N1_4
REMARK    2  A    between atoms: N1_4  and  C4_6
REMARK    3  A    between atoms: C8_10  and  C9_11
REMARK       I    between atoms: C9_11  and  N2_13
REMARK    4  A    between atoms: N2_13  and  C10_15
REMARK    5  A    between atoms: C10_15  and  C11_16
REMARK    6  A    between atoms: N3_20  and  C15_21
REMARK    7  A    between atoms: C15_21  and  O2_22
REMARK    8  A    between atoms: C15_21  and  C16_24
REMARK    9  A    between atoms: C16_24  and  C17_25
REMARK       I    between atoms: C17_25  and  N4_27
REMARK   10  A    between atoms: N4_27  and  C18_29
REMARK   11  A    between atoms: C18_29  and  C19_30
REMARK       I    between atoms: C19_30  and  N5_32
REMARK   12  A    between atoms: N5_32  and  C20_34
REMARK   13  A    between atoms: C31_45  and  O5_46
ROOT
HETATM    1  C11 UNL     1       2.675   0.627  13.881  1.00  0.00     0.073 C
HETATM    2  C12 UNL     1       1.641  -0.419  14.101  1.00  0.00     0.016 C
HETATM    3  C13 UNL     1       0.400   0.066  13.318  1.00  0.00     0.021 C
HETATM    4  C14 UNL     1       0.791  -0.111  11.828  1.00  0.00     0.127 C
HETATM    5  N3  UNL     1       1.804   0.844  11.554  1.00  0.00    -0.337 N
HETATM    6  C31 UNL     1       2.989   0.732  12.425  1.00  0.00     0.230 C
ENDROOT
BRANCH   5   7
HETATM    7  C15 UNL     1       1.984   1.779  10.535  1.00  0.00     0.134 C
BRANCH   7   8
HETATM    8  O2  UNL     1       1.402   1.367   9.350  1.00  0.00    -0.348 OA
ATOM      9  H2  UNL     1       1.151   2.104   8.806  1.00  0.00     0.219 HD
ENDBRANCH   7   8
BRANCH   7  10
HETATM   10  C16 UNL     1       2.582   3.058  10.322  1.00  0.00     0.105 A
HETATM   11  C29 UNL     1       1.839   4.034   9.395  1.00  0.00     0.029 A
HETATM   12  C30 UNL     1       1.588   4.147  10.832  1.00  0.00     0.029 A
BRANCH  10  13
HETATM   13  C17 UNL     1       4.024   3.455  10.505  1.00  0.00     0.235 C
HETATM   14  O3  UNL     1       4.414   4.566  10.773  1.00  0.00    -0.272 OA
HETATM   15  N4  UNL     1       4.984   2.421  10.353  1.00  0.00    -0.342 N
ATOM     16  H4  UNL     1       4.592   1.511  10.108  1.00  0.00     0.163 HD
BRANCH  15  17
HETATM   17  C18 UNL     1       6.401   2.435  10.486  1.00  0.00     0.114 C
HETATM   18  C24 UNL     1       6.855   3.286  11.669  1.00  0.00     0.041 C
HETATM   19  C25 UNL     1       7.608   2.505  12.707  1.00  0.00     0.003 C
HETATM   20  C26 UNL     1       8.862   1.848  12.181  1.00  0.00     0.000 C
HETATM   21  C27 UNL     1       8.623   1.509  10.743  1.00  0.00     0.003 C
HETATM   22  C28 UNL     1       7.126   1.149  10.574  1.00  0.00     0.041 C
BRANCH  17  23
HETATM   23  C19 UNL     1       6.829   3.157   9.188  1.00  0.00     0.246 C
HETATM   24  O4  UNL     1       7.255   4.303   9.308  1.00  0.00    -0.271 OA
HETATM   25  N5  UNL     1       6.654   2.412   8.013  1.00  0.00    -0.351 N
ATOM     26  H5  UNL     1       6.295   1.466   8.136  1.00  0.00     0.163 HD
BRANCH  25  27
HETATM   27  C20 UNL     1       6.915   2.808   6.667  1.00  0.00     0.022 C
HETATM   28  C21 UNL     1       5.792   3.659   6.090  1.00  0.00     0.037 C
HETATM   29  C22 UNL     1       8.231   3.470   6.516  1.00  0.00     0.037 C
HETATM   30  C23 UNL     1       6.873   1.517   5.815  1.00  0.00     0.037 C
ENDBRANCH  25  27
ENDBRANCH  17  23
ENDBRANCH  15  17
ENDBRANCH  10  13
ENDBRANCH   7  10
ENDBRANCH   5   7
BRANCH   6  31
HETATM   31  O5  UNL     1       3.610  -0.458  11.986  1.00  0.00    -0.376 OA
ATOM     32  H5  UNL     1       2.972  -1.007  11.545  1.00  0.00     0.212 HD
ENDBRANCH   6  31
BRANCH   1  33
HETATM   33  C10 UNL     1       4.021   0.397  14.494  1.00  0.00     0.073 C
BRANCH  33  34
HETATM   34  N2  UNL     1       4.447  -0.853  14.947  1.00  0.00    -0.340 N
HETATM   35  C9  UNL     1       5.615  -1.378  14.291  1.00  0.00     0.225 C
HETATM   36  O1  UNL     1       6.161  -0.667  13.378  1.00  0.00    -0.273 OA
ATOM     37  H2  UNL     1       3.965  -1.358  15.691  1.00  0.00     0.167 HD
BRANCH  35  38
HETATM   38  C8  UNL     1       6.239  -2.685  14.584  1.00  0.00     0.080 C
HETATM   39  C7  UNL     1       7.542  -2.354  15.278  1.00  0.00     0.014 C
HETATM   40  C6  UNL     1       7.778  -3.232  16.487  1.00  0.00     0.003 C
HETATM   41  C5  UNL     1       7.379  -4.621  16.049  1.00  0.00     0.024 C
HETATM   42  C4  UNL     1       5.811  -4.596  16.213  1.00  0.00     0.077 C
HETATM   43  C32 UNL     1       5.260  -3.459  15.475  1.00  0.00     0.038 C
BRANCH  42  44
HETATM   44  N1  UNL     1       5.341  -5.907  16.115  1.00  0.00    -0.414 N
ATOM     45  H1  UNL     1       5.889  -6.586  15.588  1.00  0.00     0.153 HD
BRANCH  44  46
HETATM   46  C2  UNL     1       4.147  -6.326  16.714  1.00  0.00     0.068 C
HETATM   47  C1  UNL     1       3.003  -6.356  15.729  1.00  0.00     0.031 C
HETATM   48  C3  UNL     1       3.704  -5.651  17.981  1.00  0.00     0.031 C
ENDBRANCH  44  46
ENDBRANCH  42  44
ENDBRANCH  35  38
ENDBRANCH  33  34
ENDBRANCH   1  33
TORSDOF 13
ENDMDL