MODEL 1
REMARK VINA RESULT: -10.194199851      0.000      0.000
REMARK  9 active torsions:
REMARK  status: ('A' for Active; 'I' for Inactive)
REMARK    1  A    between atoms: C1_4  and  N2_5
REMARK    2  A    between atoms: C1_4  and  C29_45
REMARK    3  A    between atoms: N2_5  and  C2_7
REMARK    4  A    between atoms: C2_7  and  C3_8
REMARK    5  A    between atoms: C3_8  and  C4_9
REMARK    6  A    between atoms: C4_9  and  C5_10
REMARK       I    between atoms: N4_17  and  C9_18
REMARK    7  A    between atoms: C9_18  and  C10_20
REMARK    8  A    between atoms: C17_27  and  S1_28
REMARK    9  A    between atoms: S1_28  and  N5_29
ROOT
HETATM    1  C5  UNL     1       4.414  -6.180  17.613  1.00  0.00     0.314 C
HETATM    2  C6  UNL     1       5.661  -5.604  18.188  1.00  0.00     0.251 C
HETATM    3  O1  UNL     1       5.912  -5.932  19.406  1.00  0.00    -0.271 OA
HETATM    4  N3  UNL     1       6.586  -4.748  17.552  1.00  0.00    -0.351 N
ATOM      5  H3  UNL     1       7.547  -4.819  17.887  1.00  0.00     0.163 HD
HETATM    6  C7  UNL     1       6.380  -3.825  16.536  1.00  0.00     0.127 C
HETATM    7  C8  UNL     1       6.647  -4.142  15.115  1.00  0.00     0.153 C
HETATM    8  N4  UNL     1       5.665  -3.074  14.858  1.00  0.00    -0.341 N
HETATM    9  C9  UNL     1       5.555  -2.069  13.902  1.00  0.00     0.225 C
HETATM   10  O2  UNL     1       6.514  -2.039  13.032  1.00  0.00    -0.273 OA
HETATM   11  C24 UNL     1       4.992  -3.595  16.026  1.00  0.00     0.145 C
HETATM   12  C25 UNL     1       4.143  -4.719  15.701  1.00  0.00     0.248 C
HETATM   13  C26 UNL     1       2.739  -4.488  16.290  1.00  0.00     0.040 C
HETATM   14  C27 UNL     1       2.119  -5.885  16.182  1.00  0.00     0.032 C
HETATM   15  C28 UNL     1       3.244  -6.720  15.615  1.00  0.00     0.274 C
HETATM   16  N8  UNL     1       4.398  -6.032  16.179  1.00  0.00     0.108 N
ENDROOT
BRANCH   9  17
HETATM   17  C10 UNL     1       4.528  -1.048  13.726  1.00  0.00     0.086 C
HETATM   18  C11 UNL     1       3.382  -1.583  12.897  1.00  0.00     0.049 C
HETATM   19  C12 UNL     1       2.071  -0.871  13.158  1.00  0.00    -0.075 C
HETATM   20  C13 UNL     1       2.163   0.013  14.347  1.00  0.00     0.004 C
HETATM   21  C22 UNL     1       1.329  -0.396  11.978  1.00  0.00     0.016 C
HETATM   22  C14 UNL     1       3.074   1.118  14.428  1.00  0.00     0.009 C
HETATM   23  C15 UNL     1       4.155   1.412  13.458  1.00  0.00    -0.039 C
HETATM   24  C16 UNL     1       5.021   0.209  13.079  1.00  0.00     0.054 C
HETATM   25  C17 UNL     1       3.809   2.303  12.321  1.00  0.00     0.024 C
HETATM   26  C19 UNL     1       2.434   2.500  11.867  1.00  0.00    -0.001 C
HETATM   27  C20 UNL     1       1.605   1.552  11.168  1.00  0.00     0.011 C
HETATM   28  C21 UNL     1       0.578   0.886  12.101  1.00  0.00     0.017 C
HETATM   29  C23 UNL     1       2.042   0.189  10.816  1.00  0.00     0.017 C
BRANCH  25  30
HETATM   30  S1  UNL     1       4.941   2.060  10.886  1.00  0.00    -0.013 SA
BRANCH  30  31
HETATM   31  N5  UNL     1       6.486   2.833  11.201  1.00  0.00    -0.302 N
HETATM   32  C18 UNL     1       6.904   3.746  10.407  1.00  0.00     0.207 C
HETATM   33  N6  UNL     1       8.141   4.423  10.587  1.00  0.00    -0.066 NA
HETATM   34  N7  UNL     1       6.108   4.110   9.294  1.00  0.00    -0.066 NA
ATOM     35  H5  UNL     1       7.046   2.557  12.008  1.00  0.00     0.176 HD
ENDBRANCH  30  31
ENDBRANCH  25  30
ENDBRANCH   9  17
BRANCH   1  36
HETATM   36  C4  UNL     1       4.479  -7.666  17.951  1.00  0.00     0.047 C
BRANCH  36  37
HETATM   37  C3  UNL     1       5.570  -8.330  17.150  1.00  0.00     0.022 C
BRANCH  37  38
HETATM   38  C2  UNL     1       6.424  -9.247  17.966  1.00  0.00     0.121 C
BRANCH  38  39
HETATM   39  N2  UNL     1       7.393  -8.597  18.773  1.00  0.00    -0.380 N
ATOM     40  H2  UNL     1       7.160  -8.342  19.733  1.00  0.00     0.160 HD
BRANCH  39  41
HETATM   41  C1  UNL     1       8.677  -8.299  18.264  1.00  0.00     0.074 C
HETATM   42  N1  UNL     1       9.500  -9.280  18.040  1.00  0.00    -0.389 N
ATOM     43  H12 UNL     1       9.178 -10.227  18.242  1.00  0.00     0.157 HD
ATOM     44  H11 UNL     1      10.427  -9.065  17.673  1.00  0.00     0.157 HD
BRANCH  41  45
HETATM   45  C29 UNL     1       9.145  -6.924  17.970  1.00  0.00     0.052 A
HETATM   46  C30 UNL     1       9.183  -6.622  16.470  1.00  0.00     0.013 A
HETATM   47  C31 UNL     1      10.425  -6.669  17.287  1.00  0.00     0.013 A
ENDBRANCH  41  45
ENDBRANCH  39  41
ENDBRANCH  38  39
ENDBRANCH  37  38
ENDBRANCH  36  37
ENDBRANCH   1  36
TORSDOF 9
ENDMDL