MODEL 1
REMARK VINA RESULT: -9.474877155      0.000      0.000
REMARK  10 active torsions:
REMARK  status: ('A' for Active; 'I' for Inactive)
REMARK    1  A    between atoms: C2_2  and  N1_3
REMARK       I    between atoms: C3_5  and  N3_7
REMARK    2  A    between atoms: C7_11  and  C8_12
REMARK    3  A    between atoms: C8_12  and  N4_13
REMARK    4  A    between atoms: C8_12  and  C31_46
REMARK       I    between atoms: N4_13  and  C9_15
REMARK    5  A    between atoms: C9_15  and  C10_17
REMARK    6  A    between atoms: C10_17  and  C11_18
REMARK    7  A    between atoms: C10_17  and  N5_22
REMARK    8  A    between atoms: C11_18  and  C12_19
REMARK       I    between atoms: N5_22  and  C15_24
REMARK    9  A    between atoms: C15_24  and  C16_26
REMARK   10  A    between atoms: C16_26  and  N6_27
ROOT
HETATM    1  C10 UNL     1       7.138  -5.661  16.991  1.00  0.00     0.177 C
ENDROOT
BRANCH   1   2
HETATM    2  C9  UNL     1       6.299  -6.615  17.735  1.00  0.00     0.241 C
HETATM    3  N4  UNL     1       5.610  -7.733  17.235  1.00  0.00    -0.346 N
ATOM      4  H4  UNL     1       5.653  -7.949  16.239  1.00  0.00     0.163 HD
HETATM    5  O1  UNL     1       6.214  -6.354  19.004  1.00  0.00    -0.271 OA
BRANCH   3   6
HETATM    6  C8  UNL     1       4.825  -8.598  18.138  1.00  0.00     0.179 C
BRANCH   6   7
HETATM    7  C7  UNL     1       5.153 -10.050  17.806  1.00  0.00     0.035 C
HETATM    8  C6  UNL     1       5.765 -10.136  16.423  1.00  0.00     0.010 C
HETATM    9  C5  UNL     1       5.858 -11.577  16.003  1.00  0.00     0.020 C
HETATM   10  C4  UNL     1       6.229 -12.447  17.167  1.00  0.00     0.125 C
HETATM   11  N3  UNL     1       6.918 -11.651  18.151  1.00  0.00    -0.355 N
HETATM   12  C3  UNL     1       8.263 -11.843  18.523  1.00  0.00     0.186 C
HETATM   13  C32 UNL     1       6.137 -10.577  18.801  1.00  0.00     0.132 C
HETATM   14  N1  UNL     1       9.257 -11.760  17.707  1.00  0.00    -0.365 N
HETATM   15  N2  UNL     1       8.549 -12.155  19.895  1.00  0.00    -0.064 NA
ATOM     16  H1  UNL     1       9.074 -11.540  16.729  1.00  0.00     0.162 HD
BRANCH  14  17
HETATM   17  C2  UNL     1      10.626 -11.969  18.135  1.00  0.00     0.118 C
HETATM   18  C1  UNL     1      11.031 -13.411  17.946  1.00  0.00     0.026 C
ENDBRANCH  14  17
ENDBRANCH   6   7
BRANCH   6  19
HETATM   19  C31 UNL     1       3.395  -8.339  17.992  1.00  0.00     0.254 C
HETATM   20  N7  UNL     1       2.858  -7.380  17.094  1.00  0.00    -0.060 NA
HETATM   21  O4  UNL     1       2.510  -8.969  18.672  1.00  0.00    -0.275 OA
ENDBRANCH   6  19
ENDBRANCH   3   6
ENDBRANCH   1   2
BRANCH   1  22
HETATM   22  C11 UNL     1       8.095  -4.885  17.831  1.00  0.00     0.038 C
BRANCH  22  23
HETATM   23  C12 UNL     1       9.521  -5.245  17.790  1.00  0.00    -0.020 C
HETATM   24  C13 UNL     1       9.724  -6.442  16.871  1.00  0.00     0.009 C
HETATM   25  C14 UNL     1      10.235  -4.078  17.059  1.00  0.00     0.009 C
ENDBRANCH  22  23
ENDBRANCH   1  22
BRANCH   1  26
HETATM   26  N5  UNL     1       6.313  -4.670  16.288  1.00  0.00    -0.344 N
HETATM   27  C15 UNL     1       6.726  -4.043  15.102  1.00  0.00     0.282 C
HETATM   28  O2  UNL     1       7.855  -4.338  14.606  1.00  0.00    -0.268 OA
ATOM     29  H5  UNL     1       5.402  -4.428  16.677  1.00  0.00     0.163 HD
BRANCH  27  30
HETATM   30  C16 UNL     1       5.901  -3.034  14.387  1.00  0.00     0.306 C
HETATM   31  C17 UNL     1       6.139  -1.636  14.900  1.00  0.00     0.086 C
HETATM   32  C18 UNL     1       4.800  -1.221  15.395  1.00  0.00     0.025 C
HETATM   33  C19 UNL     1       4.479   0.230  15.208  1.00  0.00     0.009 C
HETATM   34  C29 UNL     1       3.859  -2.154  14.748  1.00  0.00     0.065 C
HETATM   35  C20 UNL     1       4.011   0.611  13.852  1.00  0.00     0.010 C
HETATM   36  C21 UNL     1       2.979  -0.302  13.248  1.00  0.00    -0.038 C
HETATM   37  C22 UNL     1       1.634  -0.019  13.823  1.00  0.00     0.010 C
HETATM   38  C27 UNL     1       3.071  -0.082  11.748  1.00  0.00     0.010 C
HETATM   39  C28 UNL     1       3.271  -1.769  13.452  1.00  0.00     0.047 C
HETATM   40  C23 UNL     1       0.733   0.857  13.011  1.00  0.00     0.001 C
HETATM   41  C24 UNL     1       0.450   0.351  11.631  1.00  0.00     0.000 C
HETATM   42  C25 UNL     1       1.302   1.163  10.670  1.00  0.00     0.000 C
HETATM   43  C26 UNL     1       2.680   1.293  11.302  1.00  0.00     0.001 C
HETATM   44  C30 UNL     1       2.798  -2.571  15.778  1.00  0.00     0.046 C
HETATM   45  O3  UNL     1       4.588  -3.333  14.535  1.00  0.00    -0.336 OA
BRANCH  30  46
HETATM   46  N6  UNL     1       6.250  -3.113  12.963  1.00  0.00    -0.037 N
ATOM     47  H63 UNL     1       7.025  -3.750  12.777  1.00  0.00     0.278 HD
ATOM     48  H62 UNL     1       5.545  -3.597  12.407  1.00  0.00     0.278 HD
ATOM     49  H61 UNL     1       6.428  -2.162  12.641  1.00  0.00     0.278 HD
ENDBRANCH  30  46
ENDBRANCH  27  30
ENDBRANCH   1  26
TORSDOF 10
ENDMDL