MODEL 3
REMARK VINA RESULT: -10.783390055      1.928      2.779
REMARK  10 active torsions:
REMARK  status: ('A' for Active; 'I' for Inactive)
REMARK    1  A    between atoms: C8_8  and  C9_9
REMARK       I    between atoms: C9_9  and  N1_11
REMARK    2  A    between atoms: N1_11  and  N2_13
REMARK    3  A    between atoms: N2_13  and  C10_14
REMARK    4  A    between atoms: N2_13  and  C19_29
REMARK    5  A    between atoms: C10_14  and  C11_15
REMARK    6  A    between atoms: C11_15  and  C12_16
REMARK    7  A    between atoms: C12_16  and  N3_17
REMARK       I    between atoms: N4_21  and  C16_22
REMARK    8  A    between atoms: C19_29  and  C20_30
REMARK       I    between atoms: C20_30  and  N7_32
REMARK    9  A    between atoms: N7_32  and  C21_34
REMARK   10  A    between atoms: C28_41  and  O3_42
ROOT
HETATM    1  N2  UNL     1       5.774  -1.223  15.319  1.00  0.00    -0.220 NA
ENDROOT
BRANCH   1   2
HETATM    2  N1  UNL     1       6.037  -0.763  14.050  1.00  0.00    -0.285 N
HETATM    3  C9  UNL     1       6.396   0.587  13.856  1.00  0.00     0.266 C
HETATM    4  O1  UNL     1       6.471   1.342  14.867  1.00  0.00    -0.266 OA
ATOM      5  H1  UNL     1       5.972  -1.395  13.253  1.00  0.00     0.184 HD
BRANCH   3   6
HETATM    6  C8  UNL     1       6.685   1.171  12.534  1.00  0.00     0.033 A
HETATM    7  C7  UNL     1       5.859   2.119  11.966  1.00  0.00     0.024 A
HETATM    8  C6  UNL     1       6.175   2.661  10.703  1.00  0.00    -0.050 A
HETATM    9  C5  UNL     1       5.444   3.673   9.902  1.00  0.00     0.040 A
HETATM   10  C33 UNL     1       7.302   2.227  10.072  1.00  0.00    -0.044 A
HETATM   11  C4  UNL     1       6.263   3.792   8.656  1.00  0.00     0.018 A
HETATM   12  C2  UNL     1       7.448   2.910   8.776  1.00  0.00    -0.020 A
HETATM   13  C1  UNL     1       8.760   3.666   8.683  1.00  0.00     0.020 C
HETATM   14  C3  UNL     1       7.420   1.810   7.709  1.00  0.00     0.020 C
HETATM   15  C32 UNL     1       8.142   1.267  10.642  1.00  0.00     0.009 A
HETATM   16  C31 UNL     1       7.824   0.748  11.870  1.00  0.00     0.017 A
ENDBRANCH   3   6
ENDBRANCH   1   2
BRANCH   1  17
HETATM   17  C10 UNL     1       6.592  -2.269  15.810  1.00  0.00     0.116 C
BRANCH  17  18
HETATM   18  C11 UNL     1       7.952  -2.256  15.116  1.00  0.00     0.046 C
BRANCH  18  19
HETATM   19  C12 UNL     1       9.003  -2.787  16.044  1.00  0.00     0.273 C
BRANCH  19  20
HETATM   20  N3  UNL     1       9.723  -3.926  15.583  1.00  0.00     0.090 N
HETATM   21  C13 UNL     1      10.640  -4.457  16.539  1.00  0.00     0.274 C
HETATM   22  C14 UNL     1      10.151  -4.589  17.939  1.00  0.00     0.050 C
HETATM   23  C15 UNL     1       9.547  -5.966  18.088  1.00  0.00     0.127 C
HETATM   24  N4  UNL     1       8.538  -6.092  17.019  1.00  0.00    -0.354 N
HETATM   25  C16 UNL     1       7.214  -6.051  17.487  1.00  0.00     0.184 C
HETATM   26  C17 UNL     1       8.860  -6.246  15.632  1.00  0.00     0.155 C
HETATM   27  N5  UNL     1       6.215  -6.289  16.780  1.00  0.00    -0.374 N
HETATM   28  N6  UNL     1       6.971  -5.724  18.871  1.00  0.00    -0.064 NA
ATOM     29  H52 UNL     1       6.386  -6.520  15.801  1.00  0.00     0.158 HD
ATOM     30  H51 UNL     1       5.254  -6.259  17.119  1.00  0.00     0.158 HD
HETATM   31  C18 UNL     1       8.926  -4.916  14.932  1.00  0.00     0.292 C
ENDBRANCH  19  20
ENDBRANCH  18  19
ENDBRANCH  17  18
ENDBRANCH   1  17
BRANCH   1  32
HETATM   32  C19 UNL     1       4.378  -1.467  15.511  1.00  0.00     0.216 C
BRANCH  32  33
HETATM   33  C20 UNL     1       3.675  -1.580  14.208  1.00  0.00     0.232 C
HETATM   34  O2  UNL     1       3.747  -2.565  13.457  1.00  0.00    -0.272 OA
HETATM   35  N7  UNL     1       2.855  -0.469  13.793  1.00  0.00    -0.355 N
ATOM     36  H7  UNL     1       2.766   0.359  14.382  1.00  0.00     0.162 HD
BRANCH  35  37
HETATM   37  C21 UNL     1       2.170  -0.545  12.547  1.00  0.00     0.092 C
HETATM   38  C22 UNL     1       2.661   0.418  11.518  1.00  0.00     0.012 C
HETATM   39  C23 UNL     1       1.892   0.189  10.235  1.00  0.00     0.011 C
HETATM   40  C30 UNL     1       2.408   1.852  11.953  1.00  0.00     0.044 C
HETATM   41  C24 UNL     1       0.405   0.320  10.481  1.00  0.00    -0.011 C
HETATM   42  C25 UNL     1      -0.029  -0.661  11.521  1.00  0.00     0.011 C
HETATM   43  C29 UNL     1       0.134   1.751  10.899  1.00  0.00     0.042 C
HETATM   44  C26 UNL     1       0.674  -0.306  12.826  1.00  0.00     0.012 C
HETATM   45  C27 UNL     1       0.424   1.115  13.241  1.00  0.00     0.044 C
HETATM   46  C28 UNL     1       0.936   2.045  12.151  1.00  0.00     0.059 C
BRANCH  46  47
HETATM   47  O3  UNL     1       0.677   3.352  12.581  1.00  0.00    -0.390 OA
ATOM     48  H3  UNL     1       0.605   3.321  13.528  1.00  0.00     0.210 HD
ENDBRANCH  46  47
ENDBRANCH  35  37
ENDBRANCH  32  33
ENDBRANCH   1  32
TORSDOF 10
ENDMDL