MODEL 5
REMARK VINA RESULT: -8.499534124      4.917     13.408
REMARK  12 active torsions:
REMARK  status: ('A' for Active; 'I' for Inactive)
REMARK    1  A    between atoms: C2_2  and  C4_4
REMARK    2  A    between atoms: C4_4  and  N1_5
REMARK    3  A    between atoms: C4_4  and  C29_45
REMARK       I    between atoms: N1_5  and  C5_7
REMARK       I    between atoms: C5_7  and  N2_9
REMARK    4  A    between atoms: C8_12  and  C9_13
REMARK    5  A    between atoms: C9_13  and  S1_14
REMARK    6  A    between atoms: S1_14  and  N3_17
REMARK    7  A    between atoms: N3_17  and  C10_19
REMARK    8  A    between atoms: N4_24  and  C15_25
REMARK    9  A    between atoms: C15_25  and  O4_26
REMARK   10  A    between atoms: C15_25  and  C16_28
REMARK   11  A    between atoms: C16_28  and  N5_29
REMARK   12  A    between atoms: C16_28  and  C17_33
ROOT
HETATM    1  C10 UNL     1       6.472   4.442   8.388  1.00  0.00     0.121 C
HETATM    2  C11 UNL     1       7.013   4.432   6.982  1.00  0.00     0.026 C
HETATM    3  C12 UNL     1       6.296   5.560   6.264  1.00  0.00     0.006 C
HETATM    4  C13 UNL     1       7.093   6.825   6.481  1.00  0.00     0.012 C
HETATM    5  C14 UNL     1       4.938   5.753   6.884  1.00  0.00     0.130 C
HETATM    6  N4  UNL     1       4.363   4.438   7.275  1.00  0.00    -0.356 N
HETATM    7  C23 UNL     1       5.330   3.546   7.846  1.00  0.00     0.118 C
HETATM    8  C24 UNL     1       6.344   3.082   6.798  1.00  0.00    -0.019 C
HETATM    9  C25 UNL     1       7.181   1.924   7.231  1.00  0.00     0.017 C
HETATM   10  C26 UNL     1       5.738   2.836   5.442  1.00  0.00     0.017 C
ENDROOT
BRANCH   1  11
HETATM   11  N3  UNL     1       7.293   3.781   9.392  1.00  0.00    -0.312 N
ATOM     12  H3  UNL     1       8.237   3.434   9.224  1.00  0.00     0.172 HD
BRANCH  11  13
HETATM   13  S1  UNL     1       6.473   3.659  10.894  1.00  0.00     0.227 S
HETATM   14  O2  UNL     1       5.411   4.735  10.962  1.00  0.00    -0.206 OA
HETATM   15  O3  UNL     1       7.464   4.050  11.991  1.00  0.00    -0.206 OA
BRANCH  13  16
HETATM   16  C9  UNL     1       5.855   2.084  11.290  1.00  0.00     0.167 C
BRANCH  16  17
HETATM   17  C8  UNL     1       5.900   1.640  12.699  1.00  0.00     0.004 C
HETATM   18  C7  UNL     1       4.661   1.092  13.300  1.00  0.00     0.025 C
HETATM   19  C6  UNL     1       5.010   0.363  14.609  1.00  0.00     0.128 C
HETATM   20  N2  UNL     1       5.933  -0.728  14.385  1.00  0.00    -0.334 N
HETATM   21  C5  UNL     1       6.259  -1.647  15.395  1.00  0.00     0.319 C
HETATM   22  C28 UNL     1       6.490  -0.778  13.024  1.00  0.00     0.128 C
HETATM   23  N1  UNL     1       7.154  -2.727  15.243  1.00  0.00    -0.328 N
HETATM   24  O1  UNL     1       5.694  -1.476  16.529  1.00  0.00    -0.247 OA
ATOM     25  H1  UNL     1       7.614  -2.881  14.346  1.00  0.00     0.165 HD
HETATM   26  C27 UNL     1       7.052   0.634  12.806  1.00  0.00     0.025 C
BRANCH  23  27
HETATM   27  C4  UNL     1       7.422  -3.613  16.344  1.00  0.00     0.190 C
BRANCH  27  28
HETATM   28  C2  UNL     1       8.780  -4.296  16.181  1.00  0.00     0.011 C
HETATM   29  C1  UNL     1       9.896  -3.305  16.355  1.00  0.00     0.012 C
HETATM   30  C3  UNL     1       8.862  -4.986  14.841  1.00  0.00     0.012 C
ENDBRANCH  27  28
BRANCH  27  31
HETATM   31  C29 UNL     1       6.416  -4.696  16.457  1.00  0.00     0.197 C
HETATM   32  O5  UNL     1       6.552  -5.506  17.409  1.00  0.00    -0.646 OA
HETATM   33  O6  UNL     1       5.374  -4.839  15.586  1.00  0.00    -0.646 OA
ENDBRANCH  27  31
ENDBRANCH  23  27
ENDBRANCH  16  17
ENDBRANCH  13  16
ENDBRANCH  11  13
ENDBRANCH   1  11
BRANCH   6  34
HETATM   34  C15 UNL     1       2.990   4.232   7.047  1.00  0.00     0.145 C
BRANCH  34  35
HETATM   35  O4  UNL     1       2.712   3.811   5.847  1.00  0.00    -0.348 OA
ATOM     36  H4  UNL     1       2.139   3.054   5.828  1.00  0.00     0.219 HD
ENDBRANCH  34  35
BRANCH  34  37
HETATM   37  C16 UNL     1       1.865   4.422   7.961  1.00  0.00     0.261 C
BRANCH  37  38
HETATM   38  N5  UNL     1       1.742   5.737   8.544  1.00  0.00    -0.067 N
ATOM     39  H53 UNL     1       2.502   5.895   9.206  1.00  0.00     0.275 HD
ATOM     40  H52 UNL     1       1.957   6.448   7.845  1.00  0.00     0.275 HD
ATOM     41  H51 UNL     1       0.848   5.946   8.987  1.00  0.00     0.275 HD
ENDBRANCH  37  38
BRANCH  37  42
HETATM   42  C17 UNL     1       1.925   3.458   9.138  1.00  0.00     0.024 C
HETATM   43  C18 UNL     1       1.888   4.250  10.439  1.00  0.00     0.007 C
HETATM   44  C19 UNL     1       2.301   3.311  11.546  1.00  0.00     0.000 C
HETATM   45  C20 UNL     1       1.268   2.192  11.628  1.00  0.00     0.000 C
HETATM   46  C21 UNL     1       1.148   1.469  10.326  1.00  0.00     0.000 C
HETATM   47  C22 UNL     1       0.850   2.433   9.165  1.00  0.00     0.007 C
ENDBRANCH  37  42
ENDBRANCH  34  37
ENDBRANCH   6  34
TORSDOF 12
ENDMDL