MODEL 5
REMARK VINA RESULT: -8.068135420      1.969      2.260
REMARK  13 active torsions:
REMARK  status: ('A' for Active; 'I' for Inactive)
REMARK    1  A    between atoms: C1_4  and  N2_5
REMARK    2  A    between atoms: C1_4  and  C10_15
REMARK    3  A    between atoms: N2_5  and  C2_7
REMARK    4  A    between atoms: C2_7  and  C3_8
REMARK    5  A    between atoms: C3_8  and  C4_9
REMARK    6  A    between atoms: C19_25  and  O2_26
REMARK    7  A    between atoms: C20_30  and  C21_31
REMARK    8  A    between atoms: C21_31  and  C22_32
REMARK    9  A    between atoms: C22_32  and  C23_33
REMARK   10  A    between atoms: C23_33  and  C24_34
REMARK   11  A    between atoms: C24_34  and  C25_35
REMARK   12  A    between atoms: C25_35  and  C26_36
REMARK   13  A    between atoms: C32_46  and  O5_47
ROOT
HETATM    1  C10 UNL     1       4.133   1.974  11.731  1.00  0.00     0.093 A
HETATM    2  C11 UNL     1       2.946   1.492  10.851  1.00  0.00     0.047 A
HETATM    3  C12 UNL     1       2.912   1.752  12.348  1.00  0.00     0.026 A
HETATM    4  C13 UNL     1       2.277   0.725  13.106  1.00  0.00     0.034 C
HETATM    5  C14 UNL     1       2.269  -0.716  12.831  1.00  0.00     0.168 C
HETATM    6  O1  UNL     1       2.936  -1.550  13.708  1.00  0.00    -0.391 OA
HETATM    7  C15 UNL     1       2.451  -1.755  14.947  1.00  0.00     0.167 C
HETATM    8  C16 UNL     1       2.782  -3.027  15.622  1.00  0.00     0.027 C
HETATM    9  C17 UNL     1       3.830  -2.995  16.702  1.00  0.00     0.010 C
HETATM   10  C18 UNL     1       4.796  -4.153  16.640  1.00  0.00     0.083 C
HETATM   11  C19 UNL     1       6.176  -3.905  17.073  1.00  0.00     0.111 C
HETATM   12  N3  UNL     1       7.203  -3.136  16.604  1.00  0.00    -0.361 N
ATOM     13  H3  UNL     1       7.690  -2.602  17.324  1.00  0.00     0.162 HD
HETATM   14  C20 UNL     1       7.733  -2.939  15.239  1.00  0.00     0.175 C
HETATM   15  C27 UNL     1       6.751  -2.142  14.449  1.00  0.00     0.243 C
HETATM   16  O4  UNL     1       5.942  -2.969  13.872  1.00  0.00    -0.271 OA
HETATM   17  N5  UNL     1       6.578  -0.771  14.256  1.00  0.00    -0.338 N
HETATM   18  C28 UNL     1       5.786   0.220  14.959  1.00  0.00     0.127 C
HETATM   19  C29 UNL     1       6.946   1.185  15.328  1.00  0.00     0.022 C
HETATM   20  C30 UNL     1       7.587   1.294  13.962  1.00  0.00     0.035 C
HETATM   21  C31 UNL     1       7.124   0.122  13.223  1.00  0.00     0.161 C
HETATM   22  C32 UNL     1       6.098   0.286  12.174  1.00  0.00     0.136 C
HETATM   23  N6  UNL     1       5.267   1.147  11.563  1.00  0.00    -0.356 N
ATOM     24  H6  UNL     1       5.577   1.242  10.597  1.00  0.00     0.162 HD
ENDROOT
BRANCH   1  25
HETATM   25  C1  UNL     1       4.507   3.391  11.372  1.00  0.00     0.100 C
HETATM   26  N1  UNL     1       4.206   4.316  12.205  1.00  0.00    -0.387 N
ATOM     27  H12 UNL     1       4.459   5.274  11.963  1.00  0.00     0.157 HD
ATOM     28  H11 UNL     1       3.733   4.060  13.071  1.00  0.00     0.157 HD
BRANCH  25  29
HETATM   29  N2  UNL     1       5.158   3.744  10.179  1.00  0.00    -0.378 N
ATOM     30  H2  UNL     1       6.160   3.554  10.142  1.00  0.00     0.160 HD
BRANCH  29  31
HETATM   31  C2  UNL     1       4.591   4.334   9.018  1.00  0.00     0.121 C
BRANCH  31  32
HETATM   32  C3  UNL     1       3.088   4.355   8.967  1.00  0.00     0.024 C
BRANCH  32  33
HETATM   33  C4  UNL     1       2.571   5.025   7.713  1.00  0.00    -0.013 C
HETATM   34  C5  UNL     1       3.668   4.995   6.677  1.00  0.00     0.005 C
HETATM   35  C6  UNL     1       3.406   3.991   5.575  1.00  0.00     0.000 C
HETATM   36  C7  UNL     1       2.169   4.344   4.783  1.00  0.00     0.000 C
HETATM   37  C8  UNL     1       1.110   4.821   5.757  1.00  0.00     0.000 C
HETATM   38  C9  UNL     1       1.390   4.252   7.134  1.00  0.00     0.005 C
ENDBRANCH  32  33
ENDBRANCH  31  32
ENDBRANCH  29  31
ENDBRANCH  25  29
ENDBRANCH   1  25
BRANCH  22  39
HETATM   39  O5  UNL     1       5.991  -0.940  11.653  1.00  0.00    -0.348 OA
ATOM     40  H5  UNL     1       5.104  -0.956  11.310  1.00  0.00     0.219 HD
ENDBRANCH  22  39
BRANCH  14  41
HETATM   41  C21 UNL     1       8.074  -4.235  14.566  1.00  0.00     0.035 C
BRANCH  41  42
HETATM   42  C22 UNL     1       9.512  -4.578  14.907  1.00  0.00     0.002 C
BRANCH  42  43
HETATM   43  C23 UNL     1      10.128  -3.551  15.863  1.00  0.00     0.001 C
BRANCH  43  44
HETATM   44  C24 UNL     1      10.534  -4.159  17.158  1.00  0.00     0.009 C
BRANCH  44  45
HETATM   45  C25 UNL     1      10.613  -5.639  17.056  1.00  0.00     0.099 C
BRANCH  45  46
HETATM   46  C26 UNL     1       9.568  -6.392  17.753  1.00  0.00     0.231 C
HETATM   47  N4  UNL     1       9.203  -7.703  17.259  1.00  0.00    -0.062 NA
HETATM   48  O3  UNL     1       8.977  -5.953  18.752  1.00  0.00    -0.277 OA
ENDBRANCH  45  46
ENDBRANCH  44  45
ENDBRANCH  43  44
ENDBRANCH  42  43
ENDBRANCH  41  42
ENDBRANCH  14  41
BRANCH  11  49
HETATM   49  O2  UNL     1       6.505  -4.566  18.152  1.00  0.00    -0.350 OA
ATOM     50  H2  UNL     1       6.350  -4.079  18.953  1.00  0.00     0.219 HD
ENDBRANCH  11  49
TORSDOF 13
ENDMDL