MODEL 4
REMARK VINA RESULT: -9.796022706      0.679      1.123
REMARK  10 active torsions:
REMARK  status: ('A' for Active; 'I' for Inactive)
REMARK    1  A    between atoms: C7_7  and  N1_8
REMARK       I    between atoms: N1_8  and  C8_10
REMARK    2  A    between atoms: C8_10  and  C9_12
REMARK    3  A    between atoms: C13_16  and  C14_17
REMARK    4  A    between atoms: C14_17  and  N4_25
REMARK    5  A    between atoms: N2_18  and  C15_20
REMARK    6  A    between atoms: C15_20  and  C16_21
REMARK    7  A    between atoms: C16_21  and  N3_22
REMARK    8  A    between atoms: C22_29  and  C23_30
REMARK       I    between atoms: C23_30  and  N5_32
REMARK    9  A    between atoms: N5_32  and  C24_34
REMARK   10  A    between atoms: C24_34  and  C25_35
REMARK       I    between atoms: N6_38  and  C28_39
ROOT
HETATM    1  C14 UNL     1       5.629  -5.168  16.436  1.00  0.00     0.081 C
HETATM    2  N2  UNL     1       5.192  -6.069  17.158  1.00  0.00    -0.378 N
ATOM      3  H2  UNL     1       4.203  -6.149  16.919  1.00  0.00     0.160 HD
ENDROOT
BRANCH   1   4
HETATM    4  C13 UNL     1       4.597  -4.542  15.510  1.00  0.00     0.066 C
HETATM    5  C9  UNL     1       4.215  -3.158  15.967  1.00  0.00     0.089 C
HETATM    6  C10 UNL     1       3.181  -3.406  17.062  1.00  0.00     0.015 C
HETATM    7  C11 UNL     1       2.352  -4.492  16.466  1.00  0.00     0.002 C
HETATM    8  C12 UNL     1       3.268  -5.299  15.620  1.00  0.00     0.013 C
BRANCH   5   9
HETATM    9  C8  UNL     1       3.625  -2.360  14.846  1.00  0.00     0.227 C
HETATM   10  N1  UNL     1       2.931  -1.171  15.047  1.00  0.00    -0.327 N
ATOM     11  H1  UNL     1       2.833  -0.842  16.007  1.00  0.00     0.169 HD
HETATM   12  O1  UNL     1       3.798  -2.838  13.706  1.00  0.00    -0.273 OA
BRANCH  10  13
HETATM   13  C7  UNL     1       2.356  -0.388  14.038  1.00  0.00     0.035 A
HETATM   14  C6  UNL     1       2.972   0.655  13.367  1.00  0.00     0.039 A
HETATM   15  C5  UNL     1       2.343   1.419  12.391  1.00  0.00    -0.029 A
HETATM   16  C4  UNL     1       3.034   2.520  11.703  1.00  0.00     0.043 C
HETATM   17  C33 UNL     1       1.040   1.119  12.079  1.00  0.00     0.034 A
HETATM   18  C3  UNL     1       2.607   2.520  10.254  1.00  0.00     0.029 C
HETATM   19  C2  UNL     1       1.124   2.794  10.193  1.00  0.00     0.078 C
HETATM   20  C1  UNL     1       0.939   4.257  10.568  1.00  0.00     0.032 C
HETATM   21  N9  UNL     1       0.401   1.908  11.080  1.00  0.00    -0.385 N
ATOM     22  H9  UNL     1      -0.612   1.846  10.985  1.00  0.00     0.160 HD
HETATM   23  C32 UNL     1       0.400   0.090  12.726  1.00  0.00     0.032 A
HETATM   24  C31 UNL     1       1.033  -0.655  13.685  1.00  0.00     0.032 A
ENDBRANCH  10  13
ENDBRANCH   5   9
ENDBRANCH   1   4
BRANCH   1  25
HETATM   25  N4  UNL     1       6.975  -4.705  16.439  1.00  0.00    -0.357 N
HETATM   26  C19 UNL     1       7.904  -4.698  17.550  1.00  0.00     0.125 C
HETATM   27  C20 UNL     1       9.308  -4.731  16.944  1.00  0.00     0.022 C
HETATM   28  C21 UNL     1       9.083  -4.767  15.470  1.00  0.00     0.037 C
HETATM   29  C22 UNL     1       7.703  -4.150  15.343  1.00  0.00     0.177 C
BRANCH  29  30
HETATM   30  C23 UNL     1       7.752  -2.673  15.298  1.00  0.00     0.240 C
HETATM   31  O2  UNL     1       8.651  -2.058  15.955  1.00  0.00    -0.271 OA
HETATM   32  N5  UNL     1       6.851  -1.878  14.560  1.00  0.00    -0.359 N
ATOM     33  H5  UNL     1       6.126  -2.369  14.035  1.00  0.00     0.162 HD
BRANCH  32  34
HETATM   34  C24 UNL     1       6.855  -0.438  14.474  1.00  0.00     0.127 C
BRANCH  34  35
HETATM   35  C25 UNL     1       7.787   0.117  13.430  1.00  0.00     0.006 C
HETATM   36  C26 UNL     1       7.256  -0.058  12.035  1.00  0.00     0.026 C
HETATM   37  C27 UNL     1       6.346   1.020  11.562  1.00  0.00     0.126 C
HETATM   38  N6  UNL     1       6.682   2.327  12.052  1.00  0.00    -0.356 N
HETATM   39  C28 UNL     1       6.777   3.449  11.208  1.00  0.00     0.183 C
HETATM   40  C29 UNL     1       6.925   2.471  13.464  1.00  0.00     0.126 C
HETATM   41  N7  UNL     1       6.022   3.576  10.149  1.00  0.00    -0.374 N
HETATM   42  N8  UNL     1       7.701   4.505  11.462  1.00  0.00    -0.064 NA
ATOM     43  H72 UNL     1       5.361   2.821   9.967  1.00  0.00     0.158 HD
ATOM     44  H71 UNL     1       6.092   4.389   9.537  1.00  0.00     0.158 HD
HETATM   45  C30 UNL     1       8.079   1.549  13.785  1.00  0.00     0.026 C
ENDBRANCH  34  35
ENDBRANCH  32  34
ENDBRANCH  29  30
ENDBRANCH   1  25
BRANCH   2  46
HETATM   46  C15 UNL     1       5.405  -7.007  18.120  1.00  0.00     0.140 C
BRANCH  46  47
HETATM   47  C16 UNL     1       5.283  -8.398  17.488  1.00  0.00     0.135 C
BRANCH  47  48
HETATM   48  N3  UNL     1       4.005  -8.638  16.930  1.00  0.00    -0.419 N
HETATM   49  C17 UNL     1       3.963  -9.347  15.699  1.00  0.00     0.142 C
HETATM   50  C18 UNL     1       2.925  -8.850  17.827  1.00  0.00     0.142 C
ENDBRANCH  47  48
ENDBRANCH  46  47
ENDBRANCH   2  46
TORSDOF 10
ENDMDL