MODEL 1
REMARK VINA RESULT: -10.356388627      0.000      0.000
REMARK  9 active torsions:
REMARK  status: ('A' for Active; 'I' for Inactive)
REMARK       I    between atoms: N1_2  and  C2_4
REMARK       I    between atoms: C2_4  and  N2_6
REMARK    1  A    between atoms: C6_10  and  C7_11
REMARK       I    between atoms: C7_11  and  N3_13
REMARK    2  A    between atoms: N3_13  and  C8_15
REMARK       I    between atoms: N4_25  and  C17_26
REMARK       I    between atoms: C17_26  and  N5_28
REMARK    3  A    between atoms: N5_28  and  C18_30
REMARK    4  A    between atoms: C18_30  and  C19_31
REMARK    5  A    between atoms: C19_31  and  C20_32
REMARK    6  A    between atoms: C20_32  and  C21_33
REMARK    7  A    between atoms: C21_33  and  C22_34
REMARK    8  A    between atoms: C22_34  and  N6_35
REMARK       I    between atoms: N6_35  and  C23_37
REMARK    9  A    between atoms: C23_37  and  C24_39
ROOT
HETATM    1  C8  UNL     1       6.424   1.532  12.490  1.00  0.00     0.035 A
HETATM    2  C9  UNL     1       7.332   1.418  13.566  1.00  0.00     0.032 A
HETATM    3  C10 UNL     1       7.196   0.398  14.461  1.00  0.00     0.033 A
HETATM    4  C11 UNL     1       6.203  -0.551  14.375  1.00  0.00     0.052 A
HETATM    5  C12 UNL     1       5.308  -0.456  13.333  1.00  0.00     0.039 A
HETATM    6  C13 UNL     1       5.438   0.590  12.406  1.00  0.00     0.047 A
HETATM    7  C14 UNL     1       4.247  -1.451  13.252  1.00  0.00     0.163 C
HETATM    8  O3  UNL     1       3.500  -1.402  12.230  1.00  0.00    -0.292 OA
HETATM    9  C15 UNL     1       4.052  -2.468  14.311  1.00  0.00     0.104 C
HETATM   10  C16 UNL     1       4.657  -1.992  15.591  1.00  0.00     0.142 C
HETATM   11  N4  UNL     1       6.041  -1.607  15.280  1.00  0.00    -0.299 N
HETATM   12  C17 UNL     1       7.150  -2.280  15.807  1.00  0.00     0.322 C
HETATM   13  O4  UNL     1       6.865  -3.038  16.815  1.00  0.00    -0.247 OA
HETATM   14  N5  UNL     1       8.485  -2.245  15.397  1.00  0.00    -0.343 N
ATOM     15  H5  UNL     1       8.712  -1.653  14.600  1.00  0.00     0.164 HD
ENDROOT
BRANCH  14  16
HETATM   16  C18 UNL     1       9.579  -2.983  16.013  1.00  0.00     0.124 C
BRANCH  16  17
HETATM   17  C19 UNL     1      10.002  -4.101  15.139  1.00  0.00     0.020 C
BRANCH  17  18
HETATM   18  C20 UNL     1       9.838  -5.462  15.878  1.00  0.00     0.007 C
BRANCH  18  19
HETATM   19  C21 UNL     1       9.881  -5.236  17.343  1.00  0.00     0.044 C
BRANCH  19  20
HETATM   20  C22 UNL     1       8.801  -5.740  18.202  1.00  0.00     0.064 C
BRANCH  20  21
HETATM   21  N6  UNL     1       7.533  -6.053  17.687  1.00  0.00    -0.340 N
HETATM   22  C23 UNL     1       6.275  -6.127  18.293  1.00  0.00     0.231 C
HETATM   23  O5  UNL     1       6.128  -5.914  19.512  1.00  0.00    -0.272 OA
ATOM     24  H6  UNL     1       7.529  -6.264  16.689  1.00  0.00     0.167 HD
BRANCH  22  25
HETATM   25  C24 UNL     1       5.028  -6.460  17.548  1.00  0.00     0.060 C
HETATM   26  C25 UNL     1       4.966  -7.929  17.165  1.00  0.00     0.047 C
HETATM   27  C26 UNL     1       3.479  -8.020  16.787  1.00  0.00     0.096 C
HETATM   28  C27 UNL     1       2.865  -7.444  18.068  1.00  0.00     0.032 C
HETATM   29  N8  UNL     1       3.149  -7.162  15.710  1.00  0.00    -0.350 N
HETATM   30  C28 UNL     1       3.782  -6.270  18.364  1.00  0.00     0.008 C
HETATM   31  C29 UNL     1       3.031  -5.009  17.988  1.00  0.00     0.022 C
HETATM   32  C30 UNL     1       2.701  -4.975  16.515  1.00  0.00     0.113 C
HETATM   33  N7  UNL     1       3.558  -5.867  15.778  1.00  0.00    -0.234 NA
HETATM   34  C31 UNL     1       4.908  -5.684  16.257  1.00  0.00     0.133 C
ATOM     35  H8  UNL     1       2.621  -7.505  14.908  1.00  0.00     0.174 HD
ENDBRANCH  22  25
ENDBRANCH  20  21
ENDBRANCH  19  20
ENDBRANCH  18  19
ENDBRANCH  17  18
ENDBRANCH  16  17
ENDBRANCH  14  16
BRANCH   1  36
HETATM   36  N3  UNL     1       6.587   2.606  11.583  1.00  0.00    -0.325 N
HETATM   37  C7  UNL     1       7.311   2.571  10.402  1.00  0.00     0.245 C
HETATM   38  O2  UNL     1       7.948   1.614   9.917  1.00  0.00    -0.271 OA
ATOM     39  H3  UNL     1       6.130   3.486  11.820  1.00  0.00     0.169 HD
BRANCH  37  40
HETATM   40  C6  UNL     1       7.362   3.827   9.568  1.00  0.00     0.181 C
HETATM   41  N2  UNL     1       6.321   3.895   8.593  1.00  0.00    -0.321 N
HETATM   42  C2  UNL     1       4.955   4.176   8.839  1.00  0.00     0.318 C
HETATM   43  C3  UNL     1       6.871   3.627   7.260  1.00  0.00     0.129 C
HETATM   44  N1  UNL     1       4.007   4.216   7.785  1.00  0.00    -0.347 N
HETATM   45  O1  UNL     1       4.611   4.391  10.045  1.00  0.00    -0.247 OA
HETATM   46  C1  UNL     1       2.630   4.504   8.069  1.00  0.00     0.151 C
ATOM     47  H1  UNL     1       4.304   4.040   6.825  1.00  0.00     0.163 HD
HETATM   48  C4  UNL     1       8.356   3.843   7.381  1.00  0.00     0.022 C
HETATM   49  C5  UNL     1       8.672   3.843   8.844  1.00  0.00     0.037 C
ENDBRANCH  37  40
ENDBRANCH   1  36
TORSDOF 9
ENDMDL