MODEL 5
REMARK VINA RESULT: -8.566801609      3.505      6.090
REMARK  8 active torsions:
REMARK  status: ('A' for Active; 'I' for Inactive)
REMARK       I    between atoms: N1_2  and  C2_4
REMARK    1  A    between atoms: C2_4  and  C3_6
REMARK    2  A    between atoms: C3_6  and  C4_7
REMARK    3  A    between atoms: C3_6  and  N2_11
REMARK    4  A    between atoms: C3_6  and  C29_45
REMARK       I    between atoms: N2_11  and  C8_13
REMARK       I    between atoms: C8_13  and  N3_15
REMARK       I    between atoms: N4_18  and  C11_19
REMARK    5  A    between atoms: C11_19  and  C12_21
REMARK    6  A    between atoms: C12_21  and  C13_22
REMARK    7  A    between atoms: C12_21  and  N5_29
REMARK    8  A    between atoms: C13_22  and  C14_23
REMARK       I    between atoms: N5_29  and  C20_31
REMARK       I    between atoms: C20_31  and  N6_33
ROOT
HETATM    1  N2  UNL     1       6.735   2.443   9.879  1.00  0.00    -0.314 N
ATOM      2  H2  UNL     1       7.619   2.035  10.186  1.00  0.00     0.166 HD
HETATM    3  C8  UNL     1       5.601   2.066  10.580  1.00  0.00     0.320 C
HETATM    4  O2  UNL     1       4.452   2.478  10.337  1.00  0.00    -0.247 OA
HETATM    5  N3  UNL     1       5.696   1.154  11.662  1.00  0.00    -0.331 N
HETATM    6  C9  UNL     1       4.575   0.789  12.509  1.00  0.00     0.147 C
HETATM    7  C10 UNL     1       5.098   0.630  13.964  1.00  0.00     0.145 C
HETATM    8  N4  UNL     1       6.039  -0.490  13.960  1.00  0.00    -0.347 N
HETATM    9  C11 UNL     1       6.254  -1.223  15.130  1.00  0.00     0.242 C
HETATM   10  O3  UNL     1       5.648  -0.879  16.189  1.00  0.00    -0.271 OA
HETATM   11  C27 UNL     1       6.676  -0.789  12.697  1.00  0.00     0.145 C
HETATM   12  C28 UNL     1       6.956   0.510  11.950  1.00  0.00     0.147 C
ENDROOT
BRANCH   9  13
HETATM   13  C12 UNL     1       7.149  -2.404  15.200  1.00  0.00     0.179 C
BRANCH  13  14
HETATM   14  C13 UNL     1       8.537  -2.239  15.615  1.00  0.00     0.039 C
BRANCH  14  15
HETATM   15  C14 UNL     1       9.528  -3.378  15.593  1.00  0.00    -0.012 C
HETATM   16  C15 UNL     1      10.244  -3.617  16.851  1.00  0.00     0.005 C
HETATM   17  C16 UNL     1      10.439  -5.045  17.214  1.00  0.00     0.000 C
HETATM   18  C17 UNL     1       9.177  -5.838  16.972  1.00  0.00     0.000 C
HETATM   19  C18 UNL     1       9.007  -5.857  15.465  1.00  0.00     0.000 C
HETATM   20  C19 UNL     1       8.899  -4.517  14.870  1.00  0.00     0.005 C
ENDBRANCH  14  15
ENDBRANCH  13  14
BRANCH  13  21
HETATM   21  N5  UNL     1       6.498  -3.341  16.199  1.00  0.00    -0.330 N
HETATM   22  C20 UNL     1       5.309  -4.003  15.916  1.00  0.00     0.321 C
HETATM   23  O4  UNL     1       4.764  -3.796  14.806  1.00  0.00    -0.247 OA
HETATM   24  N6  UNL     1       4.695  -4.891  16.835  1.00  0.00    -0.301 N
HETATM   25  C21 UNL     1       5.429  -5.200  18.068  1.00  0.00     0.361 C
HETATM   26  C24 UNL     1       3.388  -5.438  16.635  1.00  0.00     0.033 C
HETATM   27  N7  UNL     1       5.132  -6.543  18.562  1.00  0.00    -0.059 N
HETATM   28  C22 UNL     1       3.684  -6.612  18.794  1.00  0.00     0.236 C
ATOM     29  H72 UNL     1       5.473  -7.280  17.945  1.00  0.00     0.279 HD
ATOM     30  H71 UNL     1       5.681  -6.796  19.385  1.00  0.00     0.279 HD
HETATM   31  C23 UNL     1       3.069  -6.656  17.430  1.00  0.00     0.058 C
HETATM   32  C25 UNL     1       2.375  -4.329  16.910  1.00  0.00     0.038 C
HETATM   33  C26 UNL     1       3.211  -5.843  15.165  1.00  0.00     0.038 C
ATOM     34  H5  UNL     1       6.946  -3.490  17.104  1.00  0.00     0.165 HD
ENDBRANCH  13  21
ENDBRANCH   9  13
BRANCH   1  35
HETATM   35  C3  UNL     1       6.800   3.395   8.709  1.00  0.00     0.213 C
BRANCH  35  36
HETATM   36  C2  UNL     1       7.268   2.550   7.612  1.00  0.00     0.259 C
HETATM   37  N1  UNL     1       7.821   2.966   6.372  1.00  0.00    -0.363 N
HETATM   38  C1  UNL     1       8.270   2.068   5.329  1.00  0.00     0.149 C
ATOM     39  H1  UNL     1       7.909   3.969   6.204  1.00  0.00     0.162 HD
HETATM   40  O1  UNL     1       7.207   1.284   7.721  1.00  0.00    -0.270 OA
ENDBRANCH  35  36
BRANCH  35  41
HETATM   41  C4  UNL     1       5.441   3.906   8.576  1.00  0.00     0.025 C
HETATM   42  C5  UNL     1       4.743   4.454   7.442  1.00  0.00    -0.088 C
HETATM   43  C6  UNL     1       4.491   3.638   6.217  1.00  0.00     0.042 C
HETATM   44  C7  UNL     1       5.108   5.900   7.054  1.00  0.00     0.042 C
ENDBRANCH  35  41
BRANCH  35  45
HETATM   45  C29 UNL     1       7.815   4.400   9.122  1.00  0.00     0.273 C
HETATM   46  N8  UNL     1       8.485   5.328   8.304  1.00  0.00    -0.059 NA
HETATM   47  O5  UNL     1       8.146   4.469  10.328  1.00  0.00    -0.273 OA
ENDBRANCH  35  45
ENDBRANCH   1  35
TORSDOF 8
ENDMDL