MODEL 1
REMARK VINA RESULT: -8.396610204      0.000      0.000
REMARK  8 active torsions:
REMARK  status: ('A' for Active; 'I' for Inactive)
REMARK    1  A    between atoms: O1_2  and  C2_3
REMARK    2  A    between atoms: C4_5  and  O2_6
REMARK    3  A    between atoms: O2_6  and  C5_7
REMARK    4  A    between atoms: C8_13  and  N1_14
REMARK    5  A    between atoms: C10_19  and  N3_20
REMARK    6  A    between atoms: N3_20  and  C12_22
REMARK    7  A    between atoms: C12_22  and  C13_23
REMARK    8  A    between atoms: C13_23  and  N4_24
ROOT
HETATM    1  N1  UNL     1      17.365 -14.224  22.677  1.00  0.00    -0.187 N
ATOM      2  H1  UNL     1      16.805 -15.051  22.884  1.00  0.00     0.184 HD
HETATM    3  C9  UNL     1      16.718 -13.353  22.029  1.00  0.00     0.712 A
HETATM    4  N2  UNL     1      15.395 -13.536  21.656  1.00  0.00    -0.019 N
ATOM      5  H2  UNL     1      14.843 -14.368  21.866  1.00  0.00     0.203 HD
HETATM    6  C10 UNL     1      14.941 -12.472  20.983  1.00  0.00     0.709 A
HETATM    7  N5  UNL     1      15.958 -11.617  20.923  1.00  0.00    -0.117 N
ATOM      8  H5  UNL     1      15.932 -10.704  20.470  1.00  0.00     0.206 HD
HETATM    9  N6  UNL     1      17.017 -12.136  21.544  1.00  0.00    -0.117 N
ATOM     10  H6  UNL     1      17.922 -11.677  21.638  1.00  0.00     0.206 HD
ENDROOT
BRANCH   1  11
HETATM   11  C8  UNL     1      18.641 -14.321  23.168  1.00  0.00     0.084 A
HETATM   12  C2  UNL     1      19.674 -14.426  22.216  1.00  0.00     0.098 A
HETATM   13  C3  UNL     1      20.944 -14.613  22.653  1.00  0.00     0.077 A
HETATM   14  C4  UNL     1      21.265 -14.701  24.047  1.00  0.00     0.099 A
HETATM   15  C6  UNL     1      20.248 -14.594  24.956  1.00  0.00     0.070 A
HETATM   16 CL1  UNL     1      20.526 -14.700  26.687  1.00  0.00    -0.081 Cl
HETATM   17  C7  UNL     1      18.940 -14.404  24.507  1.00  0.00     0.059 A
BRANCH  12  18
HETATM   18  O1  UNL     1      19.320 -14.320  20.905  1.00  0.00    -0.354 OA
HETATM   19  C1  UNL     1      19.964 -13.509  19.933  1.00  0.00     0.210 C
ENDBRANCH  12  18
BRANCH  14  20
HETATM   20  O2  UNL     1      22.550 -14.888  24.384  1.00  0.00    -0.288 OA
BRANCH  20  21
HETATM   21  C5  UNL     1      23.796 -14.510  24.090  1.00  0.00     0.505 C
HETATM   22  F1  UNL     1      24.709 -15.518  24.447  1.00  0.00    -0.184 F
HETATM   23  F2  UNL     1      24.240 -13.380  24.811  1.00  0.00    -0.184 F
ENDBRANCH  20  21
ENDBRANCH  14  20
ENDBRANCH   1  11
BRANCH   6  24
HETATM   24  N3  UNL     1      13.601 -12.398  20.448  1.00  0.00    -0.216 N
HETATM   25  C11 UNL     1      12.945 -13.650  20.134  1.00  0.00     0.169 C
BRANCH  24  26
HETATM   26  C12 UNL     1      12.997 -11.124  20.323  1.00  0.00     0.185 C
BRANCH  26  27
HETATM   27  C13 UNL     1      11.852 -10.756  21.178  1.00  0.00     0.078 C
BRANCH  27  28
HETATM   28  N4  UNL     1      11.884 -10.905  22.545  1.00  0.00    -0.388 N
HETATM   29  C14 UNL     1      12.669 -10.133  23.399  1.00  0.00     0.148 C
HETATM   30  C15 UNL     1      11.731  -9.544  24.461  1.00  0.00     0.187 C
HETATM   31  O3  UNL     1      10.719 -10.390  24.820  1.00  0.00    -0.388 OA
HETATM   32  C16 UNL     1      10.940 -11.726  24.567  1.00  0.00     0.187 C
HETATM   33  C17 UNL     1      11.230 -12.039  23.115  1.00  0.00     0.148 C
ENDBRANCH  27  28
ENDBRANCH  26  27
ENDBRANCH  24  26
ENDBRANCH   6  24
TORSDOF 8
ENDMDL