MODEL 1
REMARK VINA RESULT: -7.645727117      0.000      0.000
REMARK  10 active torsions:
REMARK  status: ('A' for Active; 'I' for Inactive)
REMARK    1  A    between atoms: O1_2  and  C2_3
REMARK    2  A    between atoms: C2_3  and  C3_4
REMARK    3  A    between atoms: C3_4  and  N1_5
REMARK    4  A    between atoms: C3_4  and  C19_30
REMARK       I    between atoms: N1_5  and  C4_7
REMARK    5  A    between atoms: C4_7  and  C5_9
REMARK    6  A    between atoms: C7_11  and  O3_12
REMARK    7  A    between atoms: C15_20  and  C16_21
REMARK    8  A    between atoms: C16_21  and  C17_26
REMARK    9  A    between atoms: N2_22  and  O4_24
REMARK   10  A    between atoms: C17_26  and  O6_28
ROOT
HETATM    1  C5  UNL     1      15.094 -12.365  21.302  1.00  0.00     0.113 C
HETATM    2  C6  UNL     1      15.639 -12.286  19.922  1.00  0.00     0.021 C
HETATM    3  C7  UNL     1      16.829 -12.818  19.684  1.00  0.00     0.052 C
HETATM    4  C9  UNL     1      17.538 -13.444  20.756  1.00  0.00     0.013 C
HETATM    5  C10 UNL     1      18.399 -12.663  21.716  1.00  0.00     0.021 C
HETATM    6  C11 UNL     1      19.369 -12.633  20.579  1.00  0.00    -0.008 A
HETATM    7  C12 UNL     1      20.034 -13.686  19.860  1.00  0.00     0.011 A
HETATM    8  C13 UNL     1      18.846 -14.108  20.493  1.00  0.00     0.005 A
HETATM    9  C14 UNL     1      16.563 -14.394  21.456  1.00  0.00     0.029 C
HETATM   10  C15 UNL     1      15.272 -13.737  21.840  1.00  0.00     0.061 C
ENDROOT
BRANCH   1  11
HETATM   11  C4  UNL     1      13.736 -11.801  21.395  1.00  0.00     0.226 C
HETATM   12  N1  UNL     1      13.089 -11.751  22.656  1.00  0.00    -0.348 N
ATOM     13  H1  UNL     1      13.572 -12.107  23.480  1.00  0.00     0.163 HD
HETATM   14  O2  UNL     1      13.096 -11.349  20.414  1.00  0.00    -0.273 OA
BRANCH  12  15
HETATM   15  C3  UNL     1      11.759 -11.206  22.793  1.00  0.00     0.173 C
BRANCH  15  16
HETATM   16  C2  UNL     1      11.628 -10.470  24.094  1.00  0.00     0.197 C
BRANCH  16  17
HETATM   17  O1  UNL     1      12.427  -9.323  24.111  1.00  0.00    -0.394 OA
HETATM   18  C1  UNL     1      11.923  -8.375  24.984  1.00  0.00     0.201 C
ENDBRANCH  16  17
ENDBRANCH  15  16
BRANCH  15  19
HETATM   19  C19 UNL     1      10.702 -12.293  22.775  1.00  0.00     0.377 C
HETATM   20  F1  UNL     1      10.376 -12.564  24.086  1.00  0.00    -0.212 F
HETATM   21  F2  UNL     1      11.143 -13.403  22.094  1.00  0.00    -0.212 F
ENDBRANCH  15  19
ENDBRANCH  12  15
ENDBRANCH   1  11
BRANCH  10  22
HETATM   22  C16 UNL     1      14.196 -14.691  21.491  1.00  0.00     0.112 C
HETATM   23  N2  UNL     1      13.527 -15.249  22.425  1.00  0.00    -0.267 N
ATOM     24  H2  UNL     1      13.769 -15.006  23.385  1.00  0.00     0.194 HD
BRANCH  23  25
HETATM   25  O4  UNL     1      12.517 -16.141  22.240  1.00  0.00    -0.290 OA
ATOM     26  H4  UNL     1      11.601 -15.916  22.125  1.00  0.00     0.244 HD
ENDBRANCH  23  25
BRANCH  22  27
HETATM   27  C17 UNL     1      13.898 -14.989  20.102  1.00  0.00     0.307 C
HETATM   28  O5  UNL     1      12.816 -14.601  19.556  1.00  0.00    -0.258 OA
BRANCH  27  29
HETATM   29  O6  UNL     1      14.757 -15.706  19.281  1.00  0.00    -0.322 OA
HETATM   30  C18 UNL     1      14.808 -15.532  17.876  1.00  0.00     0.213 C
ENDBRANCH  27  29
ENDBRANCH  22  27
ENDBRANCH  10  22
BRANCH   3  31
HETATM   31  O3  UNL     1      17.310 -12.731  18.392  1.00  0.00    -0.360 OA
HETATM   32  C8  UNL     1      16.545 -12.301  17.291  1.00  0.00     0.209 C
ENDBRANCH   3  31
TORSDOF 10
ENDMDL