MODEL 5
REMARK VINA RESULT: -7.147349187      2.984      4.484
REMARK  9 active torsions:
REMARK  status: ('A' for Active; 'I' for Inactive)
REMARK    1  A    between atoms: C2_2  and  O1_3
REMARK    2  A    between atoms: O1_3  and  C3_4
REMARK    3  A    between atoms: C3_4  and  C4_5
REMARK    4  A    between atoms: C4_5  and  O2_6
REMARK    5  A    between atoms: C4_5  and  C5_8
REMARK    6  A    between atoms: C6_11  and  N1_12
REMARK    7  A    between atoms: C7_13  and  C8_14
REMARK    8  A    between atoms: C8_14  and  C9_15
REMARK    9  A    between atoms: C9_15  and  C10_16
ROOT
HETATM    1  N1  UNL     1      17.287 -14.130  20.614  1.00  0.00    -0.274 N
HETATM    2  C7  UNL     1      18.228 -14.516  21.486  1.00  0.00     0.045 A
HETATM    3  C14 UNL     1      19.535 -14.008  21.347  1.00  0.00     0.135 A
HETATM    4  C15 UNL     1      20.576 -14.371  22.276  1.00  0.00     0.107 C
HETATM    5  N2  UNL     1      21.428 -14.636  23.025  1.00  0.00    -0.191 NA
HETATM    6  C16 UNL     1      19.770 -13.136  20.309  1.00  0.00     0.272 A
HETATM    7  O4  UNL     1      20.955 -12.681  20.187  1.00  0.00    -0.266 OA
HETATM    8  N3  UNL     1      18.790 -12.780  19.463  1.00  0.00    -0.274 N
ATOM      9  H3  UNL     1      18.996 -12.131  18.704  1.00  0.00     0.173 HD
HETATM   10  C17 UNL     1      17.552 -13.259  19.594  1.00  0.00     0.331 A
HETATM   11  O5  UNL     1      16.614 -12.926  18.797  1.00  0.00    -0.246 OA
ENDROOT
BRANCH   2  12
HETATM   12  C8  UNL     1      18.056 -15.440  22.619  1.00  0.00     0.063 C
BRANCH  12  13
HETATM   13  C9  UNL     1      17.820 -14.771  23.957  1.00  0.00     0.033 C
BRANCH  13  14
HETATM   14  C10 UNL     1      17.654 -15.727  25.081  1.00  0.00    -0.024 C
HETATM   15  C11 UNL     1      18.538 -15.753  26.047  1.00  0.00    -0.091 C
HETATM   16  C12 UNL     1      18.369 -16.725  27.191  1.00  0.00     0.042 C
HETATM   17  C13 UNL     1      19.730 -14.870  26.111  1.00  0.00     0.042 C
ENDBRANCH  13  14
ENDBRANCH  12  13
ENDBRANCH   2  12
BRANCH   1  18
HETATM   18  C6  UNL     1      15.937 -14.607  20.715  1.00  0.00     0.242 C
HETATM   19  O3  UNL     1      15.096 -13.514  20.481  1.00  0.00    -0.319 OA
HETATM   20  C5  UNL     1      13.861 -14.015  20.122  1.00  0.00     0.301 C
HETATM   21  F1  UNL     1      13.142 -13.196  19.294  1.00  0.00    -0.202 F
HETATM   22  C19 UNL     1      14.074 -15.322  19.443  1.00  0.00     0.310 C
HETATM   23  C18 UNL     1      15.499 -15.624  19.740  1.00  0.00     0.139 C
HETATM   24  F2  UNL     1      13.832 -15.210  18.068  1.00  0.00    -0.200 F
HETATM   25  F3  UNL     1      13.190 -16.276  19.928  1.00  0.00    -0.200 F
BRANCH  20  26
HETATM   26  C4  UNL     1      13.075 -14.173  21.430  1.00  0.00     0.215 C
BRANCH  26  27
HETATM   27  C3  UNL     1      13.450 -12.996  22.295  1.00  0.00     0.205 C
BRANCH  27  28
HETATM   28  O1  UNL     1      12.364 -12.594  23.070  1.00  0.00    -0.389 OA
BRANCH  28  29
HETATM   29  C2  UNL     1      12.253 -11.204  23.039  1.00  0.00     0.163 C
HETATM   30  C1  UNL     1      11.880 -10.719  21.646  1.00  0.00     0.033 C
ENDBRANCH  28  29
ENDBRANCH  27  28
ENDBRANCH  26  27
BRANCH  26  31
HETATM   31  O2  UNL     1      11.733 -14.311  21.233  1.00  0.00    -0.387 OA
ATOM     32  H2  UNL     1      11.270 -14.682  21.975  1.00  0.00     0.210 HD
ENDBRANCH  26  31
ENDBRANCH  20  26
ENDBRANCH   1  18
TORSDOF 9
ENDMDL