MODEL 1
REMARK VINA RESULT: -7.067665557      0.000      0.000
REMARK  10 active torsions:
REMARK  status: ('A' for Active; 'I' for Inactive)
REMARK    1  A    between atoms: C2_2  and  N1_3
REMARK    2  A    between atoms: C2_2  and  C10_18
REMARK    3  A    between atoms: N1_3  and  C3_5
REMARK    4  A    between atoms: C3_5  and  C4_7
REMARK    5  A    between atoms: C4_7  and  O1_8
REMARK    6  A    between atoms: O1_8  and  C5_9
REMARK    7  A    between atoms: C5_9  and  C6_11
REMARK    8  A    between atoms: C10_18  and  O5_20
REMARK    9  A    between atoms: O5_20  and  C11_21
REMARK   10  A    between atoms: C11_21  and  C12_22
ROOT
HETATM    1  C3  UNL     1      16.584 -12.488  21.173  1.00  0.00     0.199 C
HETATM    2 CL1  UNL     1      17.430 -12.937  19.650  1.00  0.00    -0.101 Cl
ENDROOT
BRANCH   1   3
HETATM    3  N1  UNL     1      15.595 -11.537  20.834  1.00  0.00    -0.391 N
ATOM      4  H1  UNL     1      15.834 -10.693  20.314  1.00  0.00     0.155 HD
BRANCH   3   5
HETATM    5  C2  UNL     1      14.270 -11.791  21.235  1.00  0.00     0.174 C
HETATM    6  C1  UNL     1      13.554 -10.618  21.851  1.00  0.00     0.042 C
BRANCH   5   7
HETATM    7  C10 UNL     1      13.448 -12.239  20.079  1.00  0.00     0.281 C
HETATM    8  O4  UNL     1      12.480 -13.001  20.276  1.00  0.00    -0.263 OA
BRANCH   7   9
HETATM    9  O5  UNL     1      13.731 -11.832  18.791  1.00  0.00    -0.309 OA
BRANCH   9  10
HETATM   10  C11 UNL     1      14.385 -12.620  17.837  1.00  0.00     0.291 C
BRANCH  10  11
HETATM   11  C12 UNL     1      14.970 -11.832  16.732  1.00  0.00     0.198 C
HETATM   12  O6  UNL     1      14.416 -11.615  15.645  1.00  0.00    -0.646 OA
HETATM   13  O7  UNL     1      16.243 -11.282  16.913  1.00  0.00    -0.646 OA
ENDBRANCH  10  11
ENDBRANCH   9  10
ENDBRANCH   7   9
ENDBRANCH   5   7
ENDBRANCH   3   5
ENDBRANCH   1   3
BRANCH   1  14
HETATM   14  C4  UNL     1      16.042 -13.767  21.752  1.00  0.00     0.220 C
BRANCH  14  15
HETATM   15  O1  UNL     1      16.920 -14.189  22.800  1.00  0.00    -0.313 OA
BRANCH  15  16
HETATM   16  C5  UNL     1      18.058 -14.916  22.610  1.00  0.00     0.317 C
HETATM   17  O2  UNL     1      18.112 -15.733  21.679  1.00  0.00    -0.257 OA
BRANCH  16  18
HETATM   18  C6  UNL     1      19.190 -14.712  23.516  1.00  0.00     0.153 A
HETATM   19  C7  UNL     1      20.525 -14.753  23.161  1.00  0.00     0.071 A
HETATM   20  C8  UNL     1      21.240 -14.510  24.304  1.00  0.00     0.078 A
HETATM   21 CL2  UNL     1      22.986 -14.449  24.415  1.00  0.00    -0.081 Cl
HETATM   22  C9  UNL     1      20.329 -14.329  25.315  1.00  0.00     0.144 A
HETATM   23 BR1  UNL     1      20.809 -13.959  27.130  1.00  0.00    -0.021 Br
HETATM   24  O3  UNL     1      19.155 -14.459  24.790  1.00  0.00    -0.295 OA
ENDBRANCH  16  18
ENDBRANCH  15  16
ENDBRANCH  14  15
ENDBRANCH   1  14
TORSDOF 10
ENDMDL