MODEL 5
REMARK VINA RESULT: -6.739230493      2.219      3.092
REMARK  10 active torsions:
REMARK  status: ('A' for Active; 'I' for Inactive)
REMARK    1  A    between atoms: O1_2  and  C2_3
REMARK    2  A    between atoms: C5_7  and  N1_8
REMARK    3  A    between atoms: C7_13  and  C8_14
REMARK    4  A    between atoms: C8_14  and  O4_15
REMARK    5  A    between atoms: C8_14  and  N2_17
REMARK    6  A    between atoms: C14_23  and  C15_24
REMARK    7  A    between atoms: C14_23  and  O6_27
REMARK    8  A    between atoms: C15_24  and  O5_25
REMARK    9  A    between atoms: O6_27  and  C16_28
REMARK   10  A    between atoms: C16_28  and  C17_29
ROOT
HETATM    1  C8  UNL     1      14.813 -13.947  21.192  1.00  0.00     0.398 C
ENDROOT
BRANCH   1   2
HETATM    2  C7  UNL     1      16.203 -13.761  20.799  1.00  0.00     0.075 A
HETATM    3  C2  UNL     1      16.513 -12.970  19.714  1.00  0.00     0.083 A
HETATM    4  C3  UNL     1      17.823 -12.767  19.305  1.00  0.00     0.064 A
HETATM    5  C4  UNL     1      18.865 -13.358  19.983  1.00  0.00     0.072 A
HETATM    6 CL1  UNL     1      20.543 -13.121  19.491  1.00  0.00    -0.082 Cl
HETATM    7  C5  UNL     1      18.575 -14.153  21.072  1.00  0.00     0.163 A
HETATM    8  C6  UNL     1      17.248 -14.348  21.473  1.00  0.00     0.164 A
HETATM    9  F1  UNL     1      17.007 -15.146  22.560  1.00  0.00    -0.203 F
BRANCH   3  10
HETATM   10  O1  UNL     1      15.499 -12.368  19.018  1.00  0.00    -0.355 OA
HETATM   11  C1  UNL     1      15.050 -12.716  17.743  1.00  0.00     0.210 C
ENDBRANCH   3  10
BRANCH   7  12
HETATM   12  N1  UNL     1      19.653 -14.752  21.756  1.00  0.00    -0.111 N
HETATM   13  O2  UNL     1      20.065 -14.244  22.804  1.00  0.00    -0.532 OA
HETATM   14  O3  UNL     1      20.244 -15.882  21.275  1.00  0.00    -0.532 OA
ENDBRANCH   7  12
ENDBRANCH   1   2
BRANCH   1  15
HETATM   15  O4  UNL     1      14.642 -13.616  22.561  1.00  0.00    -0.364 OA
ATOM     16  H4  UNL     1      13.720 -13.629  22.789  1.00  0.00     0.212 HD
ENDBRANCH   1  15
BRANCH   1  17
HETATM   17  N2  UNL     1      14.309 -15.268  21.043  1.00  0.00     0.131 N
HETATM   18  C9  UNL     1      12.958 -15.387  21.503  1.00  0.00     0.230 C
HETATM   19  C10 UNL     1      12.127 -14.865  20.324  1.00  0.00     0.038 C
HETATM   20  C18 UNL     1      12.575 -16.822  21.714  1.00  0.00     0.076 C
HETATM   21  C11 UNL     1      12.891 -15.428  19.152  1.00  0.00     0.038 C
HETATM   22  C12 UNL     1      14.253 -15.809  19.734  1.00  0.00     0.230 C
HETATM   23  C13 UNL     1      14.227 -17.325  19.872  1.00  0.00     0.076 C
HETATM   24  C14 UNL     1      13.478 -17.806  21.051  1.00  0.00     0.086 C
BRANCH  24  25
HETATM   25  C15 UNL     1      14.500 -18.254  22.108  1.00  0.00     0.202 C
BRANCH  25  26
HETATM   26  O5  UNL     1      14.091 -17.855  23.376  1.00  0.00    -0.398 OA
ATOM     27  H5  UNL     1      13.174 -18.061  23.507  1.00  0.00     0.209 HD
ENDBRANCH  25  26
ENDBRANCH  24  25
BRANCH  24  28
HETATM   28  O6  UNL     1      12.682 -18.891  20.666  1.00  0.00    -0.376 OA
BRANCH  28  29
HETATM   29  C16 UNL     1      11.338 -18.633  20.715  1.00  0.00     0.200 C
BRANCH  29  30
HETATM   30  C17 UNL     1      10.813 -18.679  19.293  1.00  0.00     0.248 C
HETATM   31  F2  UNL     1      10.043 -17.565  18.997  1.00  0.00    -0.253 F
ENDBRANCH  29  30
ENDBRANCH  28  29
ENDBRANCH  24  28
ENDBRANCH   1  17
TORSDOF 10
ENDMDL