MODEL 2
REMARK VINA RESULT: -6.708870403      1.359      1.545
REMARK  9 active torsions:
REMARK  status: ('A' for Active; 'I' for Inactive)
REMARK    1  A    between atoms: C2_2  and  C3_4
REMARK    2  A    between atoms: C4_5  and  C5_6
REMARK    3  A    between atoms: C12_16  and  O2_17
REMARK    4  A    between atoms: O2_17  and  C13_18
REMARK    5  A    between atoms: N3_20  and  C15_21
REMARK    6  A    between atoms: C15_21  and  C17_23
REMARK    7  A    between atoms: C17_23  and  O3_24
REMARK    8  A    between atoms: C19_27  and  O4_28
REMARK    9  A    between atoms: O4_28  and  C20_29
ROOT
HETATM    1  C3  UNL     1      17.950 -16.457  22.972  1.00  0.00     0.024 A
HETATM    2  C4  UNL     1      18.944 -15.523  23.282  1.00  0.00     0.009 A
HETATM    3  C10 UNL     1      18.845 -14.230  22.784  1.00  0.00     0.044 A
HETATM    4  C11 UNL     1      17.765 -13.825  21.968  1.00  0.00     0.083 A
HETATM    5  N2  UNL     1      17.606 -12.479  21.569  1.00  0.00    -0.099 NA
HETATM    6  C12 UNL     1      16.810 -14.744  21.666  1.00  0.00     0.127 A
HETATM    7  C19 UNL     1      16.945 -16.022  22.172  1.00  0.00     0.120 A
ENDROOT
BRANCH   6   8
HETATM    8  O2  UNL     1      15.774 -14.432  20.900  1.00  0.00    -0.338 OA
BRANCH   8   9
HETATM    9  C13 UNL     1      14.581 -13.966  20.621  1.00  0.00     0.185 A
HETATM   10  C14 UNL     1      13.788 -13.613  21.875  1.00  0.00     0.307 A
HETATM   11  N3  UNL     1      13.574 -12.257  21.454  1.00  0.00     0.100 N
HETATM   12  C18 UNL     1      14.354 -12.474  20.306  1.00  0.00     0.307 A
BRANCH  11  13
HETATM   13  C15 UNL     1      12.223 -11.854  21.387  1.00  0.00     0.242 C
HETATM   14  C16 UNL     1      11.321 -12.383  22.486  1.00  0.00     0.045 C
BRANCH  13  15
HETATM   15  C17 UNL     1      12.072 -10.328  21.337  1.00  0.00     0.199 C
BRANCH  15  16
HETATM   16  O3  UNL     1      12.311  -9.870  20.029  1.00  0.00    -0.399 OA
ATOM     17  H3  UNL     1      13.185  -9.502  19.973  1.00  0.00     0.209 HD
ENDBRANCH  15  16
ENDBRANCH  13  15
ENDBRANCH  11  13
ENDBRANCH   8   9
ENDBRANCH   6   8
BRANCH   7  18
HETATM   18  O4  UNL     1      15.940 -17.002  21.777  1.00  0.00    -0.286 OA
BRANCH  18  19
HETATM   19  C20 UNL     1      16.195 -17.353  20.383  1.00  0.00     0.505 C
HETATM   20  F2  UNL     1      15.150 -17.203  19.561  1.00  0.00    -0.184 F
HETATM   21  F3  UNL     1      16.760 -18.607  20.168  1.00  0.00    -0.184 F
ENDBRANCH  18  19
ENDBRANCH   7  18
BRANCH   1  22
HETATM   22  C2  UNL     1      18.051 -17.750  23.621  1.00  0.00     0.203 C
HETATM   23  C1  UNL     1      16.901 -17.776  24.727  1.00  0.00     0.050 C
HETATM   24  F1  UNL     1      17.527 -18.820  22.822  1.00  0.00    -0.245 F
ENDBRANCH   1  22
BRANCH   2  25
HETATM   25  C5  UNL     1      20.059 -15.859  24.162  1.00  0.00     0.074 C
HETATM   26  C6  UNL     1      19.598 -15.344  25.563  1.00  0.00     0.181 C
HETATM   27  N1  UNL     1      20.665 -15.105  26.439  1.00  0.00    -0.409 N
HETATM   28  C7  UNL     1      20.867 -13.716  26.772  1.00  0.00     0.143 C
HETATM   29  C8  UNL     1      21.871 -15.806  26.168  1.00  0.00     0.143 C
HETATM   30  C9  UNL     1      22.278 -15.965  24.759  1.00  0.00     0.195 C
HETATM   31  O1  UNL     1      21.317 -15.723  23.829  1.00  0.00    -0.351 OA
ENDBRANCH   2  25
TORSDOF 9
ENDMDL