MODEL 4
REMARK VINA RESULT: -8.848124046      1.399      3.758
REMARK  8 active torsions:
REMARK  status: ('A' for Active; 'I' for Inactive)
REMARK    1  A    between atoms: O1_2  and  C2_3
REMARK    2  A    between atoms: N1_5  and  C4_6
REMARK    3  A    between atoms: C5_9  and  N3_10
REMARK    4  A    between atoms: C8_13  and  C9_14
REMARK    5  A    between atoms: C13_20  and  C14_21
REMARK    6  A    between atoms: C14_21  and  N4_22
REMARK    7  A    between atoms: C16_27  and  N5_28
REMARK    8  A    between atoms: N5_28  and  C17_31
ROOT
HETATM    1  C4  UNL     1      16.584 -13.257  21.445  1.00  0.00     0.113 A
HETATM    2  N2  UNL     1      17.316 -13.732  22.468  1.00  0.00    -0.328 N
ATOM      3  H2  UNL     1      16.851 -13.839  23.370  1.00  0.00     0.169 HD
HETATM    4  C5  UNL     1      18.647 -14.088  22.394  1.00  0.00     0.104 A
HETATM    5  C11 UNL     1      19.208 -13.917  21.166  1.00  0.00     0.049 A
HETATM    6  C12 UNL     1      18.496 -13.437  20.066  1.00  0.00     0.016 A
HETATM    7  C13 UNL     1      17.141 -13.096  20.197  1.00  0.00     0.011 A
ENDROOT
BRANCH   1   8
HETATM    8  N1  UNL     1      15.159 -13.093  21.632  1.00  0.00    -0.362 N
HETATM    9  C3  UNL     1      14.282 -12.002  21.785  1.00  0.00     0.158 C
HETATM   10  C2  UNL     1      12.902 -12.638  21.352  1.00  0.00     0.171 C
HETATM   11  C16 UNL     1      12.965 -13.882  22.107  1.00  0.00     0.234 C
HETATM   12  C15 UNL     1      14.383 -14.366  21.714  1.00  0.00     0.160 C
BRANCH  10  13
HETATM   13  O1  UNL     1      11.925 -11.718  21.592  1.00  0.00    -0.387 OA
HETATM   14  C1  UNL     1      12.216 -11.128  22.846  1.00  0.00     0.202 C
ENDBRANCH  10  13
BRANCH  11  15
HETATM   15  N5  UNL     1      12.047 -14.931  21.997  1.00  0.00    -0.062 N
ATOM     16  H52 UNL     1      11.848 -15.345  22.907  1.00  0.00     0.278 HD
ATOM     17  H51 UNL     1      11.115 -14.584  21.770  1.00  0.00     0.278 HD
BRANCH  15  18
HETATM   18  C17 UNL     1      12.476 -15.921  21.057  1.00  0.00     0.190 C
HETATM   19  C18 UNL     1      12.476 -17.329  21.482  1.00  0.00     0.059 C
HETATM   20  C19 UNL     1      13.081 -18.204  20.382  1.00  0.00     0.169 C
HETATM   21  O2  UNL     1      12.423 -17.966  19.206  1.00  0.00    -0.391 OA
HETATM   22  C20 UNL     1      12.686 -16.671  18.769  1.00  0.00     0.169 C
HETATM   23  C21 UNL     1      11.922 -15.704  19.679  1.00  0.00     0.059 C
ENDBRANCH  15  18
ENDBRANCH  11  15
ENDBRANCH   1   8
BRANCH   7  24
HETATM   24  C14 UNL     1      16.372 -12.498  19.109  1.00  0.00     0.271 C
BRANCH  24  25
HETATM   25  N4  UNL     1      16.991 -12.849  17.798  1.00  0.00    -0.075 N
ATOM     26  H43 UNL     1      17.707 -13.568  17.892  1.00  0.00     0.274 HD
ATOM     27  H42 UNL     1      16.346 -13.359  17.194  1.00  0.00     0.274 HD
ATOM     28  H41 UNL     1      17.351 -12.007  17.348  1.00  0.00     0.274 HD
ENDBRANCH  24  25
ENDBRANCH   7  24
BRANCH   4  29
HETATM   29  N3  UNL     1      19.265 -14.650  23.535  1.00  0.00    -0.367 N
HETATM   30  C6  UNL     1      18.773 -15.808  24.268  1.00  0.00     0.125 C
HETATM   31  C7  UNL     1      18.991 -15.385  25.726  1.00  0.00     0.031 C
HETATM   32  C8  UNL     1      19.902 -14.211  25.681  1.00  0.00     0.070 C
HETATM   33  C10 UNL     1      20.443 -14.287  24.233  1.00  0.00     0.134 C
BRANCH  32  34
HETATM   34  C9  UNL     1      21.042 -14.248  26.676  1.00  0.00     0.358 C
HETATM   35  F1  UNL     1      22.178 -13.919  25.920  1.00  0.00    -0.214 F
HETATM   36  F2  UNL     1      20.792 -13.240  27.599  1.00  0.00    -0.214 F
ENDBRANCH  32  34
ENDBRANCH   4  29
TORSDOF 8
ENDMDL