MODEL 3
REMARK VINA RESULT: -7.950830081      1.384      1.531
REMARK  8 active torsions:
REMARK  status: ('A' for Active; 'I' for Inactive)
REMARK    1  A    between atoms: O1_2  and  C2_3
REMARK    2  A    between atoms: C2_3  and  C3_4
REMARK    3  A    between atoms: C3_4  and  O2_5
REMARK    4  A    between atoms: O2_5  and  C4_6
REMARK    5  A    between atoms: C5_9  and  O3_10
REMARK    6  A    between atoms: O3_10  and  C6_11
REMARK    7  A    between atoms: C6_11  and  C7_12
REMARK    8  A    between atoms: C13_25  and  C14_26
ROOT
HETATM    1  C7  UNL     1      13.764 -11.729  20.874  1.00  0.00     0.408 C
HETATM    2  N2  UNL     1      12.675 -10.959  20.381  1.00  0.00    -0.041 N
ATOM      3  H21 UNL     1      12.093 -11.468  19.716  1.00  0.00     0.279 HD
ATOM      4  H22 UNL     1      12.966 -10.210  19.753  1.00  0.00     0.279 HD
HETATM    5  C8  UNL     1      11.953 -10.491  21.510  1.00  0.00     0.283 C
HETATM    6  C9  UNL     1      12.533 -11.140  22.724  1.00  0.00     0.319 C
HETATM    7  C10 UNL     1      11.463 -11.703  23.580  1.00  0.00     0.094 C
HETATM    8  N3  UNL     1      10.633 -12.137  24.268  1.00  0.00    -0.195 NA
HETATM    9  N4  UNL     1      13.347 -12.219  22.191  1.00  0.00    -0.026 N
ATOM     10  H41 UNL     1      14.117 -12.502  22.796  1.00  0.00     0.281 HD
ATOM     11  H42 UNL     1      12.882 -13.126  22.173  1.00  0.00     0.281 HD
ENDROOT
BRANCH   1  12
HETATM   12  C6  UNL     1      14.032 -12.876  19.915  1.00  0.00     0.240 C
BRANCH  12  13
HETATM   13  O3  UNL     1      15.403 -12.831  19.589  1.00  0.00    -0.332 OA
BRANCH  13  14
HETATM   14  C5  UNL     1      16.374 -13.337  20.440  1.00  0.00     0.144 A
HETATM   15  N1  UNL     1      16.359 -14.608  20.852  1.00  0.00    -0.317 N
HETATM   16  C4  UNL     1      17.293 -15.115  21.677  1.00  0.00     0.150 A
ATOM     17  H1  UNL     1      15.609 -15.219  20.527  1.00  0.00     0.170 HD
HETATM   18  C13 UNL     1      18.335 -14.354  22.157  1.00  0.00    -0.003 A
HETATM   19  C12 UNL     1      18.373 -13.035  21.746  1.00  0.00     0.016 A
HETATM   20  C11 UNL     1      17.393 -12.521  20.887  1.00  0.00     0.057 A
BRANCH  16  21
HETATM   21  O2  UNL     1      17.207 -16.430  22.056  1.00  0.00    -0.333 OA
BRANCH  21  22
HETATM   22  C3  UNL     1      16.501 -17.320  21.215  1.00  0.00     0.203 C
BRANCH  22  23
HETATM   23  C2  UNL     1      15.123 -17.658  21.737  1.00  0.00     0.193 C
BRANCH  23  24
HETATM   24  O1  UNL     1      14.216 -16.839  21.081  1.00  0.00    -0.394 OA
HETATM   25  C1  UNL     1      13.274 -16.274  21.907  1.00  0.00     0.201 C
ENDBRANCH  23  24
ENDBRANCH  22  23
ENDBRANCH  21  22
ENDBRANCH  16  21
BRANCH  18  26
HETATM   26  C14 UNL     1      19.306 -14.975  23.051  1.00  0.00     0.026 C
HETATM   27  C15 UNL     1      20.697 -14.411  22.948  1.00  0.00     0.015 C
HETATM   28  C16 UNL     1      21.579 -15.397  23.696  1.00  0.00     0.083 C
HETATM   29  C17 UNL     1      21.232 -15.336  25.133  1.00  0.00     0.278 C
HETATM   30  F1  UNL     1      22.303 -14.746  25.810  1.00  0.00    -0.203 F
HETATM   31  F2  UNL     1      21.145 -16.650  25.617  1.00  0.00    -0.203 F
HETATM   32  C18 UNL     1      19.953 -14.664  25.487  1.00  0.00     0.165 C
HETATM   33  C19 UNL     1      19.386 -15.184  26.810  1.00  0.00     0.058 C
HETATM   34  F3  UNL     1      20.273 -13.325  25.768  1.00  0.00    -0.237 F
HETATM   35  C20 UNL     1      18.871 -14.675  24.487  1.00  0.00     0.058 C
ENDBRANCH  18  26
ENDBRANCH  13  14
ENDBRANCH  12  13
ENDBRANCH   1  12
TORSDOF 8
ENDMDL