MODEL 4
REMARK VINA RESULT: -8.818378519      1.848      3.541
REMARK  8 active torsions:
REMARK  status: ('A' for Active; 'I' for Inactive)
REMARK    1  A    between atoms: O1_2  and  N1_3
REMARK    2  A    between atoms: C2_5  and  C3_6
REMARK    3  A    between atoms: C2_5  and  C6_11
REMARK       I    between atoms: C3_6  and  N2_8
REMARK    4  A    between atoms: C7_14  and  N4_15
REMARK    5  A    between atoms: N4_15  and  C8_16
REMARK    6  A    between atoms: N4_15  and  C12_20
REMARK    7  A    between atoms: C8_16  and  C9_17
REMARK    8  A    between atoms: C12_20  and  C13_21
ROOT
HETATM    1  C6  UNL     1      14.687 -14.886  21.480  1.00  0.00     0.170 A
HETATM    2  N3  UNL     1      16.053 -14.696  21.529  1.00  0.00    -0.172 N
ATOM      3  H3  UNL     1      16.452 -13.848  21.127  1.00  0.00     0.186 HD
HETATM    4  C7  UNL     1      16.854 -15.588  22.085  1.00  0.00     0.704 A
HETATM    5  N5  UNL     1      16.290 -16.695  22.606  1.00  0.00    -0.022 N
ATOM      6  H5  UNL     1      16.890 -17.396  23.041  1.00  0.00     0.203 HD
HETATM    7  C19 UNL     1      14.973 -16.907  22.574  1.00  0.00     0.692 A
HETATM    8  N6  UNL     1      14.478 -17.986  23.088  1.00  0.00    -0.234 N
ATOM      9  H61 UNL     1      13.472 -18.147  23.064  1.00  0.00     0.174 HD
ATOM     10  H62 UNL     1      15.092 -18.677  23.518  1.00  0.00     0.174 HD
HETATM   11  N7  UNL     1      14.148 -15.976  21.995  1.00  0.00    -0.173 N
ATOM     12  H7  UNL     1      13.139 -16.123  21.963  1.00  0.00     0.186 HD
ENDROOT
BRANCH   4  13
HETATM   13  N4  UNL     1      18.320 -15.435  22.143  1.00  0.00    -0.175 N
BRANCH  13  14
HETATM   14  C8  UNL     1      18.870 -14.790  21.001  1.00  0.00     0.091 C
BRANCH  14  15
HETATM   15  C9  UNL     1      19.471 -13.453  21.061  1.00  0.00     0.017 C
HETATM   16  C10 UNL     1      18.417 -12.337  21.080  1.00  0.00     0.015 C
HETATM   17  C11 UNL     1      20.187 -13.296  19.657  1.00  0.00     0.015 C
ENDBRANCH  14  15
ENDBRANCH  13  14
BRANCH  13  18
HETATM   18  C12 UNL     1      18.964 -15.910  23.290  1.00  0.00     0.092 C
BRANCH  18  19
HETATM   19  C13 UNL     1      19.579 -15.117  24.350  1.00  0.00     0.031 C
HETATM   20  C14 UNL     1      19.477 -16.006  25.660  1.00  0.00     0.013 C
HETATM   21  C15 UNL     1      19.620 -15.079  26.823  1.00  0.00     0.044 C
HETATM   22  C16 UNL     1      20.971 -14.453  26.772  1.00  0.00     0.242 C
HETATM   23  F1  UNL     1      20.817 -13.075  26.987  1.00  0.00    -0.243 F
HETATM   24  C17 UNL     1      21.772 -14.729  25.549  1.00  0.00     0.274 C
HETATM   25  F2  UNL     1      22.722 -13.698  25.470  1.00  0.00    -0.203 F
HETATM   26  F3  UNL     1      22.537 -15.891  25.643  1.00  0.00    -0.203 F
HETATM   27  C18 UNL     1      21.006 -14.712  24.257  1.00  0.00     0.092 C
ENDBRANCH  18  19
ENDBRANCH  13  18
ENDBRANCH   4  13
BRANCH   1  28
HETATM   28  C2  UNL     1      13.854 -13.849  20.852  1.00  0.00     0.167 C
HETATM   29  N1  UNL     1      13.075 -14.224  19.911  1.00  0.00    -0.258 N
ATOM     30  H1  UNL     1      12.496 -13.487  19.508  1.00  0.00     0.194 HD
BRANCH  29  31
HETATM   31  O1  UNL     1      12.905 -15.424  19.382  1.00  0.00    -0.285 OA
HETATM   32  C1  UNL     1      11.618 -16.045  19.486  1.00  0.00     0.237 C
ENDBRANCH  29  31
BRANCH  28  33
HETATM   33  C3  UNL     1      13.842 -12.447  21.247  1.00  0.00     0.275 C
HETATM   34  O2  UNL     1      14.664 -11.595  20.760  1.00  0.00    -0.266 OA
HETATM   35  N2  UNL     1      12.920 -11.965  22.187  1.00  0.00    -0.355 N
HETATM   36  C4  UNL     1      11.929 -12.734  22.842  1.00  0.00     0.152 C
HETATM   37  C5  UNL     1      12.984 -10.530  22.525  1.00  0.00     0.152 C
ENDBRANCH  28  33
ENDBRANCH   1  28
TORSDOF 8
ENDMDL