MODEL 1
REMARK VINA RESULT: -8.342782700      0.000      0.000
REMARK  10 active torsions:
REMARK  status: ('A' for Active; 'I' for Inactive)
REMARK    1  A    between atoms: O1_2  and  C2_3
REMARK    2  A    between atoms: C3_6  and  N2_7
REMARK    3  A    between atoms: C6_10  and  C7_11
REMARK    4  A    between atoms: C7_11  and  O2_12
REMARK    5  A    between atoms: C9_17  and  N4_18
REMARK    6  A    between atoms: C11_20  and  C12_21
REMARK    7  A    between atoms: C12_21  and  N5_22
REMARK    8  A    between atoms: C17_30  and  C18_31
REMARK    9  A    between atoms: C18_31  and  C19_33
REMARK   10  A    between atoms: C19_33  and  C20_34
ROOT
HETATM    1  C2  UNL     1      16.051 -12.580  20.096  1.00  0.00     0.170 A
HETATM    2  N1  UNL     1      14.890 -12.276  20.625  1.00  0.00    -0.170 N
ATOM      3  H1  UNL     1      14.315 -11.588  20.139  1.00  0.00     0.186 HD
HETATM    4  C3  UNL     1      14.401 -12.804  21.760  1.00  0.00     0.683 A
HETATM    5  N3  UNL     1      15.190 -13.703  22.370  1.00  0.00    -0.176 N
ATOM      6  H3  UNL     1      14.860 -14.128  23.236  1.00  0.00     0.186 HD
HETATM    7  C9  UNL     1      16.429 -14.082  21.882  1.00  0.00     0.132 A
HETATM    8  C17 UNL     1      16.872 -13.516  20.724  1.00  0.00     0.071 A
ENDROOT
BRANCH   7   9
HETATM    9  N4  UNL     1      17.189 -14.935  22.747  1.00  0.00    -0.365 N
HETATM   10  C10 UNL     1      17.470 -16.291  22.930  1.00  0.00     0.131 C
HETATM   11  C11 UNL     1      18.903 -16.281  23.491  1.00  0.00     0.038 C
HETATM   12  C13 UNL     1      18.816 -15.188  24.494  1.00  0.00    -0.025 C
HETATM   13  C14 UNL     1      18.251 -15.600  25.839  1.00  0.00     0.017 C
HETATM   14  C15 UNL     1      20.171 -14.474  24.710  1.00  0.00     0.017 C
HETATM   15  C16 UNL     1      17.938 -14.201  23.825  1.00  0.00     0.133 C
BRANCH  11  16
HETATM   16  C12 UNL     1      19.183 -17.631  24.056  1.00  0.00     0.236 C
BRANCH  16  17
HETATM   17  N5  UNL     1      20.578 -18.012  23.946  1.00  0.00    -0.079 N
ATOM     18  H53 UNL     1      20.670 -18.945  23.544  1.00  0.00     0.274 HD
ATOM     19  H52 UNL     1      21.047 -17.470  23.221  1.00  0.00     0.274 HD
ATOM     20  H51 UNL     1      21.078 -17.946  24.833  1.00  0.00     0.274 HD
ENDBRANCH  16  17
ENDBRANCH  11  16
ENDBRANCH   7   9
BRANCH   8  21
HETATM   21  C18 UNL     1      18.199 -13.773  20.176  1.00  0.00     0.216 C
HETATM   22  F1  UNL     1      18.659 -15.050  20.368  1.00  0.00    -0.244 F
BRANCH  21  23
HETATM   23  C19 UNL     1      19.237 -12.781  20.622  1.00  0.00     0.113 C
BRANCH  23  24
HETATM   24  C20 UNL     1      20.540 -13.059  19.922  1.00  0.00     0.356 C
HETATM   25  F2  UNL     1      21.480 -12.062  20.245  1.00  0.00    -0.214 F
HETATM   26  F3  UNL     1      20.375 -12.954  18.527  1.00  0.00    -0.214 F
ENDBRANCH  23  24
ENDBRANCH  21  23
ENDBRANCH   8  21
BRANCH   4  27
HETATM   27  N2  UNL     1      13.157 -12.445  22.321  1.00  0.00    -0.217 N
HETATM   28  C4  UNL     1      12.116 -13.301  22.834  1.00  0.00     0.141 C
HETATM   29  C5  UNL     1      10.866 -12.447  22.732  1.00  0.00     0.029 C
HETATM   30  C6  UNL     1      11.383 -11.046  23.017  1.00  0.00     0.029 C
HETATM   31  C8  UNL     1      12.758 -11.039  22.452  1.00  0.00     0.148 C
BRANCH  30  32
HETATM   32  C7  UNL     1      11.361 -10.842  24.496  1.00  0.00     0.170 C
BRANCH  32  33
HETATM   33  O2  UNL     1      10.450 -11.664  25.120  1.00  0.00    -0.400 OA
ATOM     34  H2  UNL     1       9.590 -11.265  25.179  1.00  0.00     0.209 HD
ENDBRANCH  32  33
ENDBRANCH  30  32
ENDBRANCH   4  27
BRANCH   1  35
HETATM   35  O1  UNL     1      16.551 -12.036  18.921  1.00  0.00    -0.340 OA
HETATM   36  C1  UNL     1      15.906 -12.416  17.725  1.00  0.00     0.211 C
ENDBRANCH   1  35
TORSDOF 10
ENDMDL