MODEL 5
REMARK VINA RESULT: -7.712134703      3.283      4.419
REMARK  10 active torsions:
REMARK  status: ('A' for Active; 'I' for Inactive)
REMARK    1  A    between atoms: C2_2  and  O1_3
REMARK    2  A    between atoms: C2_2  and  C20_32
REMARK    3  A    between atoms: O1_3  and  C3_4
REMARK    4  A    between atoms: C5_6  and  N1_7
REMARK    5  A    between atoms: C9_12  and  C10_13
REMARK    6  A    between atoms: C10_13  and  C11_14
REMARK    7  A    between atoms: C11_14  and  O2_15
REMARK    8  A    between atoms: O2_15  and  C12_16
REMARK    9  A    between atoms: C12_16  and  C13_17
REMARK   10  A    between atoms: C19_26  and  N5_27
ROOT
HETATM    1  N1  UNL     1      15.876 -13.527  21.097  1.00  0.00    -0.365 N
HETATM    2  C6  UNL     1      15.982 -12.196  20.528  1.00  0.00     0.144 C
HETATM    3  C7  UNL     1      17.155 -12.441  19.547  1.00  0.00     0.116 C
HETATM    4  C8  UNL     1      16.583 -13.352  18.524  1.00  0.00     0.066 C
HETATM    5  N2  UNL     1      16.113 -14.063  17.727  1.00  0.00    -0.197 NA
HETATM    6  C9  UNL     1      18.062 -13.143  20.490  1.00  0.00     0.025 C
HETATM    7  C18 UNL     1      17.176 -14.209  21.060  1.00  0.00     0.130 C
ENDROOT
BRANCH   6   8
HETATM    8  C10 UNL     1      19.394 -13.536  20.037  1.00  0.00     0.034 C
BRANCH   8   9
HETATM    9  C11 UNL     1      20.417 -13.918  21.030  1.00  0.00     0.168 C
BRANCH   9  10
HETATM   10  O2  UNL     1      20.349 -15.266  21.311  1.00  0.00    -0.391 OA
BRANCH  10  11
HETATM   11  C12 UNL     1      20.292 -15.610  22.630  1.00  0.00     0.173 C
BRANCH  11  12
HETATM   12  C13 UNL     1      20.732 -14.522  23.576  1.00  0.00     0.039 C
HETATM   13  C14 UNL     1      19.749 -14.422  24.735  1.00  0.00     0.038 C
HETATM   14  C15 UNL     1      20.630 -13.735  25.784  1.00  0.00     0.272 C
HETATM   15  N3  UNL     1      21.881 -14.462  25.657  1.00  0.00     0.084 N
HETATM   16  C16 UNL     1      21.763 -15.654  26.476  1.00  0.00     0.309 C
HETATM   17  C17 UNL     1      22.017 -14.821  24.276  1.00  0.00     0.278 C
ENDBRANCH  11  12
ENDBRANCH  10  11
ENDBRANCH   9  10
ENDBRANCH   8   9
ENDBRANCH   6   8
BRANCH   1  18
HETATM   18  C5  UNL     1      14.693 -14.105  21.623  1.00  0.00     0.123 A
HETATM   19  C4  UNL     1      14.468 -15.465  21.639  1.00  0.00     0.105 A
HETATM   20  C3  UNL     1      13.313 -16.020  22.153  1.00  0.00     0.161 A
HETATM   21  N6  UNL     1      12.390 -15.169  22.651  1.00  0.00    -0.171 N
HETATM   22  C19 UNL     1      12.587 -13.840  22.647  1.00  0.00     0.679 A
ATOM     23  H6  UNL     1      11.524 -15.544  23.039  1.00  0.00     0.186 HD
HETATM   24  N4  UNL     1      13.706 -13.341  22.145  1.00  0.00    -0.177 N
ATOM     25  H4  UNL     1      13.832 -12.329  22.153  1.00  0.00     0.185 HD
BRANCH  20  26
HETATM   26  O1  UNL     1      13.112 -17.411  22.156  1.00  0.00    -0.321 OA
BRANCH  26  27
HETATM   27  C2  UNL     1      12.932 -18.146  20.984  1.00  0.00     0.233 C
HETATM   28  C1  UNL     1      14.090 -19.087  20.707  1.00  0.00     0.049 C
BRANCH  27  29
HETATM   29  C20 UNL     1      11.665 -18.954  20.949  1.00  0.00     0.413 C
HETATM   30  F1  UNL     1      10.540 -18.150  20.943  1.00  0.00    -0.168 F
HETATM   31  F2  UNL     1      11.656 -19.641  19.732  1.00  0.00    -0.168 F
HETATM   32  F3  UNL     1      11.612 -19.909  21.932  1.00  0.00    -0.168 F
ENDBRANCH  27  29
ENDBRANCH  26  27
ENDBRANCH  20  26
BRANCH  22  33
HETATM   33  N5  UNL     1      11.672 -13.078  23.134  1.00  0.00    -0.234 N
ATOM     34  H52 UNL     1      10.960 -13.490  23.736  1.00  0.00     0.174 HD
ATOM     35  H51 UNL     1      11.648 -12.079  22.929  1.00  0.00     0.174 HD
ENDBRANCH  22  33
ENDBRANCH   1  18
TORSDOF 10
ENDMDL