MODEL 5
REMARK VINA RESULT: -6.945705088      2.781      3.993
REMARK  12 active torsions:
REMARK  status: ('A' for Active; 'I' for Inactive)
REMARK    1  A    between atoms: N1_5  and  C5_6
REMARK    2  A    between atoms: C5_6  and  O1_7
REMARK    3  A    between atoms: C5_6  and  C6_9
REMARK    4  A    between atoms: C6_9  and  O2_10
REMARK    5  A    between atoms: C6_9  and  C7_12
REMARK    6  A    between atoms: C6_9  and  C15_24
REMARK    7  A    between atoms: C7_12  and  N2_13
REMARK    8  A    between atoms: N2_13  and  C8_14
REMARK    9  A    between atoms: N2_13  and  C13_19
REMARK   10  A    between atoms: C8_14  and  C9_15
REMARK   11  A    between atoms: C13_19  and  C14_20
REMARK   12  A    between atoms: C15_24  and  N3_25
ROOT
HETATM    1  C6  UNL     1      15.599 -13.022  19.909  1.00  0.00     0.161 C
ENDROOT
BRANCH   1   2
HETATM    2  C5  UNL     1      15.342 -12.619  18.538  1.00  0.00     0.399 C
BRANCH   2   3
HETATM    3  N1  UNL     1      15.597 -13.482  17.439  1.00  0.00     0.130 N
HETATM    4  C4  UNL     1      14.637 -14.468  17.093  1.00  0.00     0.281 C
HETATM    5  C3  UNL     1      15.178 -15.422  16.037  1.00  0.00     0.063 C
HETATM    6  C2  UNL     1      16.055 -14.820  15.044  1.00  0.00    -0.085 C
HETATM    7  C1  UNL     1      16.130 -15.262  13.802  1.00  0.00     0.014 C
HETATM    8  C21 UNL     1      16.896 -13.650  15.476  1.00  0.00     0.074 C
HETATM    9  C18 UNL     1      15.925 -12.746  16.241  1.00  0.00     0.159 C
HETATM   10  C19 UNL     1      14.771 -12.503  15.319  1.00  0.00     0.049 C
HETATM   11  C20 UNL     1      16.626 -11.442  16.443  1.00  0.00     0.049 C
ENDBRANCH   2   3
BRANCH   2  12
HETATM   12  O1  UNL     1      13.914 -12.327  18.513  1.00  0.00    -0.365 OA
ATOM     13  H1  UNL     1      13.787 -11.557  19.053  1.00  0.00     0.212 HD
ENDBRANCH   2  12
ENDBRANCH   1   2
BRANCH   1  14
HETATM   14  O2  UNL     1      15.833 -14.472  19.927  1.00  0.00    -0.378 OA
ATOM     15  H2  UNL     1      15.342 -14.863  19.214  1.00  0.00     0.211 HD
ENDBRANCH   1  14
BRANCH   1  16
HETATM   16  C7  UNL     1      16.840 -12.491  20.576  1.00  0.00     0.107 C
BRANCH  16  17
HETATM   17  N2  UNL     1      18.038 -13.173  20.668  1.00  0.00    -0.362 N
BRANCH  17  18
HETATM   18  C8  UNL     1      18.682 -13.405  21.865  1.00  0.00     0.072 C
BRANCH  18  19
HETATM   19  C9  UNL     1      18.753 -14.758  22.485  1.00  0.00    -0.019 C
HETATM   20  C10 UNL     1      20.235 -14.880  22.953  1.00  0.00     0.020 C
HETATM   21  C11 UNL     1      17.962 -14.823  23.790  1.00  0.00     0.020 C
HETATM   22  C12 UNL     1      18.497 -15.957  21.682  1.00  0.00     0.020 C
ENDBRANCH  18  19
ENDBRANCH  17  18
BRANCH  17  23
HETATM   23  C13 UNL     1      18.826 -12.932  19.474  1.00  0.00     0.244 C
BRANCH  23  24
HETATM   24  C14 UNL     1      20.260 -13.230  19.502  1.00  0.00     0.403 C
HETATM   25  F1  UNL     1      20.605 -14.546  19.676  1.00  0.00    -0.169 F
HETATM   26  F2  UNL     1      21.061 -12.444  20.296  1.00  0.00    -0.169 F
HETATM   27  F3  UNL     1      20.746 -12.946  18.192  1.00  0.00    -0.169 F
ENDBRANCH  23  24
ENDBRANCH  17  23
ENDBRANCH  16  17
ENDBRANCH   1  16
BRANCH   1  28
HETATM   28  C15 UNL     1      14.416 -12.858  20.808  1.00  0.00     0.198 C
BRANCH  28  29
HETATM   29  N3  UNL     1      13.583 -13.972  21.121  1.00  0.00    -0.283 N
HETATM   30  C16 UNL     1      13.072 -14.217  22.350  1.00  0.00     0.201 A
HETATM   31  N4  UNL     1      12.283 -15.287  22.262  1.00  0.00    -0.346 N
HETATM   32  C17 UNL     1      12.285 -15.719  21.011  1.00  0.00     0.198 A
ATOM     33  H4  UNL     1      11.762 -15.705  23.033  1.00  0.00     0.167 HD
HETATM   34  N5  UNL     1      13.086 -14.903  20.330  1.00  0.00    -0.293 N
ATOM     35  H5  UNL     1      13.287 -14.986  19.334  1.00  0.00     0.188 HD
ENDBRANCH  28  29
ENDBRANCH   1  28
TORSDOF 12
ENDMDL