MODEL 4
REMARK VINA RESULT: -6.516425388      2.625      7.310
REMARK  12 active torsions:
REMARK  status: ('A' for Active; 'I' for Inactive)
REMARK    1  A    between atoms: C2_2  and  O1_4
REMARK    2  A    between atoms: O1_4  and  S1_5
REMARK    3  A    between atoms: S1_5  and  C4_8
REMARK    4  A    between atoms: C4_8  and  C5_9
REMARK    5  A    between atoms: C5_9  and  N1_10
REMARK    6  A    between atoms: N1_10  and  C6_12
REMARK    7  A    between atoms: C6_12  and  N2_13
REMARK    8  A    between atoms: C6_12  and  C13_25
REMARK    9  A    between atoms: N2_13  and  C8_15
REMARK   10  A    between atoms: C8_15  and  O4_16
REMARK   11  A    between atoms: C8_15  and  C9_18
REMARK   12  A    between atoms: C11_21  and  O6_22
ROOT
HETATM    1  C6  UNL     1      15.700 -13.601  20.782  1.00  0.00     0.136 C
ENDROOT
BRANCH   1   2
HETATM    2  N1  UNL     1      16.755 -13.143  21.603  1.00  0.00    -0.375 N
ATOM      3  H1  UNL     1      16.638 -13.237  22.612  1.00  0.00     0.160 HD
BRANCH   2   4
HETATM    4  C5  UNL     1      17.928 -12.581  21.155  1.00  0.00     0.138 C
BRANCH   4   5
HETATM    5  C4  UNL     1      18.852 -13.692  20.605  1.00  0.00     0.190 C
BRANCH   5   6
HETATM    6  S1  UNL     1      19.664 -14.500  21.928  1.00  0.00     0.267 S
HETATM    7  O2  UNL     1      19.629 -15.981  21.694  1.00  0.00    -0.199 OA
HETATM    8  O3  UNL     1      21.123 -14.098  21.974  1.00  0.00    -0.199 OA
BRANCH   6   9
HETATM    9  O1  UNL     1      18.914 -14.213  23.395  1.00  0.00    -0.271 OA
BRANCH   9  10
HETATM   10  C2  UNL     1      19.377 -14.978  24.435  1.00  0.00     0.134 C
HETATM   11  C1  UNL     1      20.129 -14.061  25.387  1.00  0.00     0.040 C
HETATM   12  C3  UNL     1      18.278 -15.617  25.262  1.00  0.00     0.040 C
ENDBRANCH   9  10
ENDBRANCH   6   9
ENDBRANCH   5   6
ENDBRANCH   4   5
ENDBRANCH   2   4
ENDBRANCH   1   2
BRANCH   1  13
HETATM   13  N2  UNL     1      14.576 -12.742  20.587  1.00  0.00    -0.318 N
HETATM   14  C7  UNL     1      13.860 -12.903  19.297  1.00  0.00     0.159 C
BRANCH  13  15
HETATM   15  C8  UNL     1      14.034 -11.754  21.416  1.00  0.00     0.151 C
BRANCH  15  16
HETATM   16  O4  UNL     1      14.666 -10.601  21.355  1.00  0.00    -0.345 OA
ATOM     17  H4  UNL     1      14.415 -10.063  20.614  1.00  0.00     0.219 HD
ENDBRANCH  15  16
BRANCH  15  18
HETATM   18  C9  UNL     1      12.915 -11.772  22.319  1.00  0.00     0.022 A
HETATM   19  C10 UNL     1      12.440 -10.585  22.973  1.00  0.00     0.221 A
HETATM   20  O5  UNL     1      11.394 -10.882  23.691  1.00  0.00    -0.326 OA
HETATM   21  C11 UNL     1      11.097 -12.140  23.602  1.00  0.00     0.178 A
HETATM   22  C12 UNL     1      12.043 -12.716  22.742  1.00  0.00     0.077 A
BRANCH  21  23
HETATM   23  O6  UNL     1      10.043 -12.775  24.241  1.00  0.00    -0.341 OA
ATOM     24  H6  UNL     1      10.107 -13.551  24.785  1.00  0.00     0.220 HD
ENDBRANCH  21  23
ENDBRANCH  15  18
ENDBRANCH  13  15
ENDBRANCH   1  13
BRANCH   1  25
HETATM   25  C13 UNL     1      15.234 -15.013  20.936  1.00  0.00     0.246 C
HETATM   26 CL1  UNL     1      13.517 -15.266  21.207  1.00  0.00    -0.075 Cl
HETATM   27 CL2  UNL     1      15.606 -15.817  19.357  1.00  0.00    -0.075 Cl
HETATM   28 CL3  UNL     1      16.225 -15.909  22.127  1.00  0.00    -0.075 Cl
ENDBRANCH   1  25
TORSDOF 12
ENDMDL