MODEL 2
REMARK VINA RESULT: -7.301782990      2.817      8.034
REMARK  7 active torsions:
REMARK  status: ('A' for Active; 'I' for Inactive)
REMARK    1  A    between atoms: O1_2  and  C2_3
REMARK    2  A    between atoms: C2_3  and  C3_4
REMARK    3  A    between atoms: C6_7  and  O2_8
REMARK    4  A    between atoms: C6_7  and  C19_27
REMARK    5  A    between atoms: O2_8  and  C7_9
REMARK    6  A    between atoms: C10_12  and  N1_13
REMARK    7  A    between atoms: C15_21  and  O3_22
ROOT
HETATM    1  C7  UNL     1      17.414 -13.847  21.291  1.00  0.00     0.109 A
HETATM    2  C8  UNL     1      17.226 -14.133  22.646  1.00  0.00     0.042 A
HETATM    3  C9  UNL     1      18.285 -14.445  23.447  1.00  0.00     0.032 A
HETATM    4  C10 UNL     1      19.581 -14.495  22.969  1.00  0.00     0.033 A
HETATM    5  C17 UNL     1      19.746 -14.210  21.631  1.00  0.00     0.074 A
HETATM    6  C18 UNL     1      18.689 -13.890  20.800  1.00  0.00     0.151 A
HETATM    7  F1  UNL     1      19.004 -13.590  19.505  1.00  0.00    -0.203 F
ENDROOT
BRANCH   1   8
HETATM    8  O2  UNL     1      16.343 -13.537  20.516  1.00  0.00    -0.327 OA
BRANCH   8   9
HETATM    9  C6  UNL     1      15.480 -14.251  19.723  1.00  0.00     0.153 C
HETATM   10  C5  UNL     1      15.420 -15.692  20.204  1.00  0.00     0.089 C
HETATM   11  C3  UNL     1      14.368 -15.968  21.211  1.00  0.00     0.147 C
HETATM   12  C4  UNL     1      14.933 -16.978  22.218  1.00  0.00     0.049 C
HETATM   13  N3  UNL     1      13.934 -14.832  21.981  1.00  0.00    -0.056 N
HETATM   14  C21 UNL     1      13.530 -13.704  21.207  1.00  0.00     0.123 C
ATOM     15  H32 UNL     1      13.191 -15.104  22.624  1.00  0.00     0.279 HD
ATOM     16  H31 UNL     1      14.656 -14.563  22.649  1.00  0.00     0.279 HD
HETATM   17  C20 UNL     1      14.097 -13.604  19.851  1.00  0.00     0.086 C
HETATM   18  C22 UNL     1      13.927 -12.453  22.002  1.00  0.00     0.046 C
HETATM   19  C23 UNL     1      12.019 -13.682  21.121  1.00  0.00     0.046 C
BRANCH  11  20
HETATM   20  C2  UNL     1      13.187 -16.697  20.576  1.00  0.00     0.205 C
BRANCH  20  21
HETATM   21  O1  UNL     1      12.325 -17.196  21.548  1.00  0.00    -0.393 OA
HETATM   22  C1  UNL     1      11.269 -17.808  20.876  1.00  0.00     0.201 C
ENDBRANCH  20  21
ENDBRANCH  11  20
BRANCH   9  23
HETATM   23  C19 UNL     1      15.768 -14.240  18.241  1.00  0.00     0.279 C
HETATM   24  F2  UNL     1      16.664 -13.289  17.844  1.00  0.00    -0.174 F
HETATM   25  F3  UNL     1      14.662 -14.375  17.449  1.00  0.00    -0.174 F
ENDBRANCH   9  23
ENDBRANCH   8   9
ENDBRANCH   1   8
BRANCH   4  26
HETATM   26  N1  UNL     1      20.647 -14.819  23.812  1.00  0.00    -0.370 N
HETATM   27  C11 UNL     1      22.050 -14.432  23.595  1.00  0.00     0.159 C
HETATM   28  C12 UNL     1      22.816 -15.141  24.720  1.00  0.00     0.234 C
HETATM   29  N2  UNL     1      22.520 -14.432  25.928  1.00  0.00    -0.065 N
HETATM   30  C15 UNL     1      21.935 -16.382  24.874  1.00  0.00     0.177 C
HETATM   31  C13 UNL     1      21.081 -14.639  26.140  1.00  0.00     0.260 C
ATOM     32  H22 UNL     1      23.099 -14.704  26.722  1.00  0.00     0.277 HD
ATOM     33  H21 UNL     1      22.800 -13.451  25.912  1.00  0.00     0.277 HD
HETATM   34  C14 UNL     1      20.633 -15.565  25.026  1.00  0.00     0.141 C
BRANCH  30  35
HETATM   35  O3  UNL     1      22.107 -17.033  26.051  1.00  0.00    -0.386 OA
HETATM   36  C16 UNL     1      21.647 -18.317  26.126  1.00  0.00     0.202 C
ENDBRANCH  30  35
ENDBRANCH   4  26
TORSDOF 7
ENDMDL