MODEL 1
REMARK VINA RESULT: -8.759113464      0.000      0.000
REMARK  10 active torsions:
REMARK  status: ('A' for Active; 'I' for Inactive)
REMARK    1  A    between atoms: C1_2  and  C2_5
REMARK    2  A    between atoms: C4_7  and  N1_8
REMARK    3  A    between atoms: C7_12  and  O1_13
REMARK    4  A    between atoms: O1_13  and  C8_14
REMARK    5  A    between atoms: C8_14  and  C9_15
REMARK    6  A    between atoms: C12_20  and  O2_21
REMARK    7  A    between atoms: O2_21  and  C13_22
REMARK    8  A    between atoms: C13_22  and  C14_23
REMARK    9  A    between atoms: C17_30  and  N5_31
REMARK   10  A    between atoms: N5_31  and  C18_33
ROOT
HETATM    1  N1  UNL     1      14.912 -12.088  20.977  1.00  0.00    -0.328 N
ATOM      2  H1  UNL     1      14.810 -11.075  21.033  1.00  0.00     0.169 HD
HETATM    3  C5  UNL     1      14.002 -12.673  21.601  1.00  0.00     0.113 A
HETATM    4  C6  UNL     1      13.014 -11.904  22.260  1.00  0.00     0.104 A
HETATM    5  C7  UNL     1      11.995 -12.486  22.959  1.00  0.00     0.148 A
HETATM    6  N2  UNL     1      11.947 -13.819  23.013  1.00  0.00    -0.302 N
ATOM      7  H2  UNL     1      11.196 -14.278  23.530  1.00  0.00     0.171 HD
HETATM    8  C12 UNL     1      12.897 -14.576  22.378  1.00  0.00     0.227 A
HETATM    9  N3  UNL     1      13.897 -14.006  21.692  1.00  0.00    -0.308 N
ATOM     10  H3  UNL     1      14.589 -14.597  21.231  1.00  0.00     0.171 HD
ENDROOT
BRANCH   1  11
HETATM   11  C4  UNL     1      16.013 -12.442  20.237  1.00  0.00     0.124 A
HETATM   12  C3  UNL     1      17.254 -12.740  20.793  1.00  0.00     0.084 A
HETATM   13  C2  UNL     1      18.363 -13.066  20.029  1.00  0.00     0.136 A
HETATM   14  N6  UNL     1      18.220 -13.094  18.692  1.00  0.00    -0.187 N
HETATM   15  C17 UNL     1      17.060 -12.819  18.105  1.00  0.00     0.680 A
ATOM     16  H6  UNL     1      19.024 -13.334  18.112  1.00  0.00     0.184 HD
HETATM   17  N4  UNL     1      15.991 -12.507  18.880  1.00  0.00    -0.177 N
ATOM     18  H4  UNL     1      15.109 -12.307  18.410  1.00  0.00     0.186 HD
BRANCH  13  19
HETATM   19  C1  UNL     1      19.689 -13.381  20.670  1.00  0.00     0.433 C
HETATM   20  F1  UNL     1      19.580 -13.661  22.004  1.00  0.00    -0.165 F
HETATM   21  F2  UNL     1      20.192 -14.502  20.035  1.00  0.00    -0.165 F
HETATM   22  F3  UNL     1      20.524 -12.327  20.402  1.00  0.00    -0.165 F
ENDBRANCH  13  19
BRANCH  15  23
HETATM   23  N5  UNL     1      16.884 -12.825  16.901  1.00  0.00    -0.217 N
ATOM     24  H5  UNL     1      17.610 -13.429  16.514  1.00  0.00     0.178 HD
BRANCH  23  25
HETATM   25  C18 UNL     1      16.151 -12.388  15.832  1.00  0.00     0.147 C
HETATM   26  C19 UNL     1      15.955 -10.889  15.737  1.00  0.00     0.195 C
HETATM   27  O3  UNL     1      14.601 -11.041  15.991  1.00  0.00    -0.387 OA
HETATM   28  C20 UNL     1      14.630 -12.421  15.928  1.00  0.00     0.195 C
ENDBRANCH  23  25
ENDBRANCH  15  23
ENDBRANCH   1  11
BRANCH   5  29
HETATM   29  O1  UNL     1      11.064 -11.677  23.587  1.00  0.00    -0.335 OA
BRANCH  29  30
HETATM   30  C8  UNL     1      11.320 -10.888  24.736  1.00  0.00     0.182 C
BRANCH  30  31
HETATM   31  C9  UNL     1      11.370  -9.444  24.289  1.00  0.00     0.010 A
HETATM   32  C10 UNL     1      11.741  -8.375  25.228  1.00  0.00     0.007 A
HETATM   33  C11 UNL     1      12.724  -8.823  24.136  1.00  0.00     0.007 A
ENDBRANCH  30  31
ENDBRANCH  29  30
ENDBRANCH   5  29
BRANCH   8  34
HETATM   34  O2  UNL     1      12.839 -15.971  22.438  1.00  0.00    -0.321 OA
BRANCH  34  35
HETATM   35  C13 UNL     1      13.619 -16.663  21.459  1.00  0.00     0.183 C
BRANCH  35  36
HETATM   36  C14 UNL     1      12.752 -17.278  20.408  1.00  0.00     0.010 A
HETATM   37  C15 UNL     1      11.393 -17.747  20.817  1.00  0.00     0.007 A
HETATM   38  C16 UNL     1      12.440 -18.765  20.572  1.00  0.00     0.007 A
ENDBRANCH  35  36
ENDBRANCH  34  35
ENDBRANCH   8  34
TORSDOF 10
ENDMDL