MODEL 2
REMARK VINA RESULT: -6.680890240      1.774      2.179
REMARK  9 active torsions:
REMARK  status: ('A' for Active; 'I' for Inactive)
REMARK    1  A    between atoms: O1_2  and  C2_3
REMARK    2  A    between atoms: C6_9  and  S1_10
REMARK    3  A    between atoms: S1_10  and  N1_13
REMARK    4  A    between atoms: N3_16  and  C7_17
REMARK    5  A    between atoms: C7_17  and  C8_18
REMARK    6  A    between atoms: C8_18  and  C9_19
REMARK    7  A    between atoms: C9_19  and  C10_20
REMARK    8  A    between atoms: C10_20  and  N4_21
REMARK    9  A    between atoms: C13_24  and  N5_25
ROOT
HETATM    1  N1  UNL     1      15.580 -14.876  21.695  1.00  0.00     0.015 N
HETATM    2  N2  UNL     1      14.666 -14.210  22.379  1.00  0.00    -0.195 N
ATOM      3  H2  UNL     1      14.329 -14.258  23.340  1.00  0.00     0.211 HD
HETATM    4  N3  UNL     1      14.359 -13.463  21.338  1.00  0.00    -0.106 N
HETATM    5  C13 UNL     1      15.298 -14.145  20.628  1.00  0.00     0.726 A
ENDROOT
BRANCH   1   6
HETATM    6  S1  UNL     1      16.636 -16.157  22.135  1.00  0.00     0.301 S
HETATM    7  O2  UNL     1      15.776 -17.359  22.412  1.00  0.00    -0.198 OA
HETATM    8  O3  UNL     1      17.525 -16.558  20.968  1.00  0.00    -0.198 OA
BRANCH   6   9
HETATM    9  C6  UNL     1      17.661 -15.770  23.481  1.00  0.00     0.128 A
HETATM   10  C5  UNL     1      18.540 -14.679  23.443  1.00  0.00     0.060 A
HETATM   11  C4  UNL     1      19.367 -14.366  24.499  1.00  0.00     0.052 A
HETATM   12 CL2  UNL     1      18.526 -13.729  21.965  1.00  0.00    -0.083 Cl
HETATM   13  C3  UNL     1      19.362 -15.125  25.649  1.00  0.00     0.070 A
HETATM   14  C2  UNL     1      18.510 -16.197  25.706  1.00  0.00     0.113 A
HETATM   15 CL1  UNL     1      20.416 -14.736  27.012  1.00  0.00    -0.081 Cl
HETATM   16  C14 UNL     1      17.670 -16.516  24.636  1.00  0.00     0.094 A
HETATM   17 CL3  UNL     1      16.623 -17.903  24.764  1.00  0.00    -0.080 Cl
BRANCH  14  18
HETATM   18  O1  UNL     1      18.503 -16.970  26.876  1.00  0.00    -0.352 OA
HETATM   19  C1  UNL     1      19.205 -18.169  27.012  1.00  0.00     0.210 C
ENDBRANCH  14  18
ENDBRANCH   6   9
ENDBRANCH   1   6
BRANCH   5  20
HETATM   20  N5  UNL     1      15.711 -14.063  19.393  1.00  0.00    -0.231 N
ATOM     21  H52 UNL     1      16.637 -14.103  18.967  1.00  0.00     0.174 HD
ATOM     22  H51 UNL     1      15.288 -13.939  18.473  1.00  0.00     0.174 HD
ENDBRANCH   5  20
BRANCH   4  23
HETATM   23  C7  UNL     1      13.430 -12.401  21.103  1.00  0.00     0.170 C
BRANCH  23  24
HETATM   24  C8  UNL     1      13.890 -11.059  21.570  1.00  0.00     0.024 C
BRANCH  24  25
HETATM   25  C9  UNL     1      12.954 -10.400  22.557  1.00  0.00     0.032 C
BRANCH  25  26
HETATM   26  C10 UNL     1      11.634 -11.142  22.575  1.00  0.00     0.271 C
BRANCH  26  27
HETATM   27  N4  UNL     1      10.929 -10.885  23.819  1.00  0.00     0.080 N
HETATM   28  C11 UNL     1      11.642  -9.857  24.552  1.00  0.00     0.309 C
HETATM   29  C12 UNL     1      10.967 -12.088  24.637  1.00  0.00     0.309 C
ENDBRANCH  26  27
ENDBRANCH  25  26
ENDBRANCH  24  25
ENDBRANCH  23  24
ENDBRANCH   4  23
TORSDOF 9
ENDMDL