MODEL 5
REMARK VINA RESULT: -6.917065345      1.544      2.641
REMARK  10 active torsions:
REMARK  status: ('A' for Active; 'I' for Inactive)
REMARK    1  A    between atoms: C2_2  and  C3_3
REMARK    2  A    between atoms: C3_3  and  N1_4
REMARK    3  A    between atoms: N1_4  and  C4_5
REMARK    4  A    between atoms: N1_4  and  C6_8
REMARK    5  A    between atoms: C4_5  and  C5_6
REMARK    6  A    between atoms: C6_8  and  C7_13
REMARK    7  A    between atoms: N2_9  and  O1_11
REMARK    8  A    between atoms: N3_15  and  C9_16
REMARK    9  A    between atoms: C12_20  and  N4_21
REMARK   10  A    between atoms: C14_23  and  O2_24
ROOT
HETATM    1  C7  UNL     1      14.202 -14.360  21.957  1.00  0.00     0.120 C
HETATM    2  C8  UNL     1      15.574 -13.647  21.900  1.00  0.00     0.141 C
HETATM    3  N3  UNL     1      16.500 -14.738  21.620  1.00  0.00    -0.374 N
HETATM    4  C18 UNL     1      15.823 -15.550  20.666  1.00  0.00     0.176 C
HETATM    5  C19 UNL     1      14.404 -15.479  21.077  1.00  0.00     0.013 C
HETATM    6  N5  UNL     1      13.530 -16.315  20.693  1.00  0.00    -0.399 N
ATOM      7  H5  UNL     1      13.859 -17.048  20.063  1.00  0.00     0.158 HD
HETATM    8  C20 UNL     1      12.161 -16.358  21.027  1.00  0.00     0.145 C
ENDROOT
BRANCH   3   9
HETATM    9  C9  UNL     1      17.783 -14.956  22.168  1.00  0.00     0.036 A
HETATM   10  C10 UNL     1      17.968 -15.824  23.225  1.00  0.00     0.074 A
HETATM   11  C11 UNL     1      19.213 -16.047  23.752  1.00  0.00     0.150 A
HETATM   12  F1  UNL     1      19.392 -16.912  24.803  1.00  0.00    -0.203 F
HETATM   13  C12 UNL     1      20.322 -15.398  23.229  1.00  0.00     0.134 A
HETATM   14  C16 UNL     1      20.122 -14.540  22.182  1.00  0.00     0.150 A
HETATM   15  F2  UNL     1      21.158 -13.869  21.616  1.00  0.00    -0.203 F
HETATM   16  C17 UNL     1      18.873 -14.310  21.644  1.00  0.00     0.074 A
BRANCH  13  17
HETATM   17  N4  UNL     1      21.623 -15.632  23.770  1.00  0.00    -0.250 N
HETATM   18  C13 UNL     1      22.453 -14.685  24.449  1.00  0.00     0.190 C
HETATM   19  C14 UNL     1      23.719 -15.461  24.804  1.00  0.00     0.164 C
HETATM   20  C15 UNL     1      23.233 -16.890  24.629  1.00  0.00     0.234 C
HETATM   21  O3  UNL     1      22.240 -16.836  23.686  1.00  0.00    -0.275 OA
BRANCH  19  22
HETATM   22  O2  UNL     1      24.715 -15.179  23.897  1.00  0.00    -0.392 OA
ATOM     23  H2  UNL     1      25.531 -15.006  24.353  1.00  0.00     0.210 HD
ENDBRANCH  19  22
ENDBRANCH  13  17
ENDBRANCH   3   9
BRANCH   1  24
HETATM   24  C6  UNL     1      13.215 -13.354  21.677  1.00  0.00     0.114 C
HETATM   25  N2  UNL     1      12.248 -13.250  22.532  1.00  0.00    -0.256 N
ATOM     26  H2  UNL     1      11.537 -12.542  22.351  1.00  0.00     0.195 HD
BRANCH  24  27
HETATM   27  N1  UNL     1      13.121 -12.429  20.592  1.00  0.00    -0.347 N
BRANCH  27  28
HETATM   28  C3  UNL     1      13.262 -13.000  19.273  1.00  0.00     0.129 C
BRANCH  28  29
HETATM   29  C2  UNL     1      14.595 -12.639  18.622  1.00  0.00     0.016 C
HETATM   30  C1  UNL     1      14.856 -13.707  17.565  1.00  0.00     0.006 C
ENDBRANCH  28  29
ENDBRANCH  27  28
BRANCH  27  31
HETATM   31  C4  UNL     1      12.915 -11.043  20.712  1.00  0.00     0.080 C
BRANCH  31  32
HETATM   32  C5  UNL     1      13.630 -10.343  21.819  1.00  0.00     0.159 C
HETATM   33 CL1  UNL     1      12.716  -9.961  23.252  1.00  0.00    -0.125 Cl
ENDBRANCH  31  32
ENDBRANCH  27  31
ENDBRANCH  24  27
BRANCH  25  34
HETATM   34  O1  UNL     1      12.102 -14.010  23.653  1.00  0.00    -0.288 OA
ATOM     35  H1  UNL     1      11.274 -14.294  24.021  1.00  0.00     0.244 HD
ENDBRANCH  25  34
ENDBRANCH   1  24
TORSDOF 10
ENDMDL