MODEL 2
REMARK VINA RESULT: -7.740678319      2.012      3.321
REMARK  11 active torsions:
REMARK  status: ('A' for Active; 'I' for Inactive)
REMARK    1  A    between atoms: C2_2  and  C3_3
REMARK    2  A    between atoms: C3_3  and  O1_4
REMARK    3  A    between atoms: O1_4  and  C4_5
REMARK    4  A    between atoms: C4_5  and  O2_6
REMARK    5  A    between atoms: C4_5  and  C5_8
REMARK    6  A    between atoms: C5_8  and  O3_9
REMARK    7  A    between atoms: C5_8  and  C8_13
REMARK    8  A    between atoms: O3_9  and  C6_10
REMARK    9  A    between atoms: C6_10  and  C7_11
REMARK   10  A    between atoms: C8_13  and  C9_15
REMARK       I    between atoms: C9_15  and  N1_17
REMARK   11  A    between atoms: C18_28  and  O6_29
ROOT
HETATM    1  C9  UNL     1      16.372 -12.510  21.132  1.00  0.00     0.294 C
HETATM    2  O5  UNL     1      16.544 -11.774  20.098  1.00  0.00    -0.264 OA
HETATM    3  N1  UNL     1      17.569 -13.098  21.636  1.00  0.00    -0.315 N
HETATM    4  C10 UNL     1      18.827 -12.801  20.928  1.00  0.00     0.134 C
HETATM    5  C11 UNL     1      19.752 -14.003  20.988  1.00  0.00     0.059 C
HETATM    6  C12 UNL     1      20.038 -14.326  22.421  1.00  0.00    -0.044 A
HETATM    7  C13 UNL     1      21.295 -14.641  22.882  1.00  0.00     0.033 A
HETATM    8  C14 UNL     1      21.509 -14.924  24.218  1.00  0.00     0.056 A
HETATM    9 CL2  UNL     1      23.086 -15.328  24.852  1.00  0.00    -0.083 Cl
HETATM   10  C15 UNL     1      20.451 -14.890  25.089  1.00  0.00     0.056 A
HETATM   11 CL3  UNL     1      20.649 -15.238  26.797  1.00  0.00    -0.083 Cl
HETATM   12  C16 UNL     1      19.204 -14.576  24.620  1.00  0.00     0.037 A
HETATM   13  C17 UNL     1      18.961 -14.285  23.269  1.00  0.00    -0.002 A
HETATM   14  C18 UNL     1      17.610 -13.957  22.791  1.00  0.00     0.258 C
ENDROOT
BRANCH   1  15
HETATM   15  C8  UNL     1      15.057 -12.673  21.667  1.00  0.00     0.250 C
HETATM   16  O4  UNL     1      14.758 -13.711  22.354  1.00  0.00    -0.284 OA
BRANCH  15  17
HETATM   17  C5  UNL     1      13.986 -11.640  21.449  1.00  0.00     0.255 C
BRANCH  17  18
HETATM   18  C4  UNL     1      13.042 -12.073  20.308  1.00  0.00     0.293 C
BRANCH  18  19
HETATM   19  O1  UNL     1      13.524 -11.716  19.082  1.00  0.00    -0.358 OA
BRANCH  19  20
HETATM   20  C3  UNL     1      13.850 -12.904  18.406  1.00  0.00     0.170 C
BRANCH  20  21
HETATM   21  C2  UNL     1      14.682 -12.638  17.185  1.00  0.00     0.022 C
HETATM   22  C1  UNL     1      15.807 -13.650  17.171  1.00  0.00     0.007 C
ENDBRANCH  20  21
ENDBRANCH  19  20
ENDBRANCH  18  19
BRANCH  18  23
HETATM   23  O2  UNL     1      12.790 -13.445  20.405  1.00  0.00    -0.368 OA
ATOM     24  H2  UNL     1      12.843 -13.762  21.299  1.00  0.00     0.212 HD
ENDBRANCH  18  23
ENDBRANCH  17  18
BRANCH  17  25
HETATM   25  O3  UNL     1      13.233 -11.499  22.582  1.00  0.00    -0.372 OA
BRANCH  25  26
HETATM   26  C6  UNL     1      12.222 -10.646  22.690  1.00  0.00     0.184 C
BRANCH  26  27
HETATM   27  C7  UNL     1      11.723 -10.430  24.083  1.00  0.00     0.141 C
HETATM   28 CL1  UNL     1      12.006  -8.870  24.810  1.00  0.00    -0.128 Cl
ENDBRANCH  26  27
ENDBRANCH  25  26
ENDBRANCH  17  25
ENDBRANCH  15  17
ENDBRANCH   1  15
BRANCH  14  29
HETATM   29  O6  UNL     1      17.020 -15.175  22.405  1.00  0.00    -0.372 OA
ATOM     30  H6  UNL     1      17.732 -15.754  22.158  1.00  0.00     0.212 HD
ENDBRANCH  14  29
TORSDOF 11
ENDMDL