MODEL 5
REMARK VINA RESULT: -7.401847596      2.607      4.444
REMARK  13 active torsions:
REMARK  status: ('A' for Active; 'I' for Inactive)
REMARK    1  A    between atoms: C2_2  and  O1_3
REMARK    2  A    between atoms: O1_3  and  C3_4
REMARK    3  A    between atoms: C3_4  and  C4_6
REMARK    4  A    between atoms: C4_6  and  C5_7
REMARK    5  A    between atoms: C4_6  and  C15_26
REMARK    6  A    between atoms: C5_7  and  C6_8
REMARK    7  A    between atoms: C6_8  and  S1_9
REMARK    8  A    between atoms: S1_9  and  C7_10
REMARK    9  A    between atoms: C7_10  and  N2_23
REMARK   10  A    between atoms: N1_11  and  C8_13
REMARK   11  A    between atoms: C11_17  and  O4_18
REMARK   12  A    between atoms: C12_20  and  O5_21
REMARK   13  A    between atoms: C15_26  and  C16_29
ROOT
HETATM    1  S1  UNL     1      16.965 -12.614  21.064  1.00  0.00    -0.094 SA
ENDROOT
BRANCH   1   2
HETATM    2  C6  UNL     1      16.806 -14.251  21.931  1.00  0.00     0.083 C
BRANCH   2   3
HETATM    3  C5  UNL     1      17.919 -14.309  22.892  1.00  0.00     0.031 C
BRANCH   3   4
HETATM    4  C4  UNL     1      18.587 -15.638  23.150  1.00  0.00     0.159 C
BRANCH   4   5
HETATM    5  C3  UNL     1      19.856 -15.494  22.368  1.00  0.00     0.269 C
HETATM    6  O2  UNL     1      20.616 -16.479  22.250  1.00  0.00    -0.265 OA
BRANCH   5   7
HETATM    7  O1  UNL     1      20.193 -14.290  21.776  1.00  0.00    -0.321 OA
BRANCH   7   8
HETATM    8  C2  UNL     1      20.228 -14.219  20.346  1.00  0.00     0.174 C
HETATM    9  C1  UNL     1      20.650 -12.858  19.864  1.00  0.00     0.034 C
ENDBRANCH   7   8
ENDBRANCH   5   7
ENDBRANCH   4   5
BRANCH   4  10
HETATM   10  C15 UNL     1      18.785 -15.844  24.586  1.00  0.00     0.260 C
HETATM   11  F1  UNL     1      17.713 -15.336  25.287  1.00  0.00    -0.205 F
HETATM   12  F2  UNL     1      18.829 -17.208  24.824  1.00  0.00    -0.205 F
BRANCH  10  13
HETATM   13  C16 UNL     1      20.013 -15.310  25.228  1.00  0.00     0.063 A
HETATM   14  C17 UNL     1      20.982 -16.056  26.010  1.00  0.00     0.015 A
HETATM   15  C18 UNL     1      20.122 -14.945  26.673  1.00  0.00    -0.008 A
HETATM   16  C19 UNL     1      20.871 -13.681  27.062  1.00  0.00     0.010 C
ENDBRANCH  10  13
ENDBRANCH   4  10
ENDBRANCH   3   4
ENDBRANCH   2   3
ENDBRANCH   1   2
BRANCH   1  17
HETATM   17  C7  UNL     1      15.639 -12.481  19.898  1.00  0.00     0.139 C
HETATM   18  N1  UNL     1      14.480 -12.133  20.287  1.00  0.00    -0.342 N
ATOM     19  H1  UNL     1      13.756 -12.074  19.570  1.00  0.00     0.164 HD
BRANCH  18  20
HETATM   20  C8  UNL     1      14.086 -11.816  21.623  1.00  0.00     0.254 C
HETATM   21  O3  UNL     1      13.263 -12.783  22.137  1.00  0.00    -0.356 OA
HETATM   22  C9  UNL     1      12.435 -12.230  23.073  1.00  0.00     0.151 C
HETATM   23  C10 UNL     1      11.011 -12.599  22.770  1.00  0.00     0.042 C
HETATM   24  C11 UNL     1      12.570 -10.745  23.035  1.00  0.00     0.179 C
HETATM   25  C12 UNL     1      13.259 -10.533  21.680  1.00  0.00     0.198 C
BRANCH  24  26
HETATM   26  O4  UNL     1      11.377 -10.058  23.075  1.00  0.00    -0.390 OA
ATOM     27  H4  UNL     1      11.246  -9.538  23.859  1.00  0.00     0.210 HD
ENDBRANCH  24  26
BRANCH  25  28
HETATM   28  O5  UNL     1      12.283 -10.542  20.712  1.00  0.00    -0.389 OA
ATOM     29  H5  UNL     1      12.217 -11.400  20.311  1.00  0.00     0.210 HD
ENDBRANCH  25  28
ENDBRANCH  18  20
BRANCH  17  30
HETATM   30  N2  UNL     1      15.862 -12.761  18.534  1.00  0.00    -0.371 N
HETATM   31  C13 UNL     1      17.213 -12.978  18.089  1.00  0.00     0.151 C
HETATM   32  C14 UNL     1      14.735 -12.823  17.616  1.00  0.00     0.151 C
ENDBRANCH  17  30
ENDBRANCH   1  17
TORSDOF 13
ENDMDL