MODEL 5
REMARK VINA RESULT: -7.689660536      3.142      6.423
REMARK  11 active torsions:
REMARK  status: ('A' for Active; 'I' for Inactive)
REMARK    1  A    between atoms: O1_2  and  C2_3
REMARK    2  A    between atoms: C2_3  and  C3_4
REMARK    3  A    between atoms: C3_4  and  N1_5
REMARK    4  A    between atoms: C4_6  and  O2_7
REMARK    5  A    between atoms: N2_12  and  C7_13
REMARK    6  A    between atoms: C13_19  and  C14_20
REMARK    7  A    between atoms: C14_20  and  C15_21
REMARK    8  A    between atoms: C15_21  and  C16_23
REMARK    9  A    between atoms: N3_28  and  C19_29
REMARK   10  A    between atoms: C19_29  and  C20_30
REMARK   11  A    between atoms: C20_30  and  O4_32
ROOT
HETATM    1  C7  UNL     1      16.704 -14.125  20.987  1.00  0.00     0.118 C
HETATM    2  C8  UNL     1      15.869 -13.285  21.940  1.00  0.00     0.064 C
HETATM    3  C9  UNL     1      14.427 -13.622  21.693  1.00  0.00     0.230 C
HETATM    4  C10 UNL     1      14.531 -15.030  21.105  1.00  0.00     0.027 C
HETATM    5  C11 UNL     1      13.379 -15.007  20.153  1.00  0.00     0.043 C
HETATM    6  C12 UNL     1      13.548 -13.616  19.529  1.00  0.00     0.228 C
HETATM    7  C13 UNL     1      14.747 -13.526  18.654  1.00  0.00     0.022 C
HETATM    8  C17 UNL     1      15.585 -14.789  18.843  1.00  0.00     0.014 C
HETATM    9  C18 UNL     1      15.824 -15.072  20.330  1.00  0.00     0.017 C
HETATM   10  N3  UNL     1      13.748 -12.836  20.777  1.00  0.00     0.101 N
ENDROOT
BRANCH   1  11
HETATM   11  N2  UNL     1      17.858 -14.592  21.666  1.00  0.00    -0.248 N
HETATM   12  N1  UNL     1      19.047 -14.016  21.564  1.00  0.00    -0.264 N
HETATM   13  C4  UNL     1      19.956 -14.663  22.317  1.00  0.00     0.162 A
HETATM   14  C5  UNL     1      19.327 -15.715  22.940  1.00  0.00     0.133 A
HETATM   15  C6  UNL     1      18.020 -15.648  22.518  1.00  0.00     0.266 A
HETATM   16  O3  UNL     1      17.052 -16.391  22.808  1.00  0.00    -0.266 OA
BRANCH  12  17
HETATM   17  C3  UNL     1      19.436 -12.829  20.776  1.00  0.00     0.177 C
BRANCH  17  18
HETATM   18  C2  UNL     1      20.236 -13.305  19.590  1.00  0.00     0.189 C
BRANCH  18  19
HETATM   19  O1  UNL     1      19.666 -12.971  18.401  1.00  0.00    -0.394 OA
HETATM   20  C1  UNL     1      20.564 -12.576  17.451  1.00  0.00     0.201 C
ENDBRANCH  18  19
ENDBRANCH  17  18
ENDBRANCH  12  17
BRANCH  13  21
HETATM   21  O2  UNL     1      21.309 -14.387  22.491  1.00  0.00    -0.345 OA
ATOM     22  H2  UNL     1      21.777 -13.571  22.356  1.00  0.00     0.219 HD
ENDBRANCH  13  21
ENDBRANCH   1  11
BRANCH  10  23
HETATM   23  C19 UNL     1      12.511 -12.260  21.145  1.00  0.00     0.304 C
BRANCH  23  24
HETATM   24  C20 UNL     1      12.427 -10.785  21.278  1.00  0.00     0.142 C
HETATM   25  C21 UNL     1      13.281 -10.200  22.327  1.00  0.00     0.041 C
BRANCH  24  26
HETATM   26  O4  UNL     1      12.588 -10.126  20.062  1.00  0.00    -0.394 OA
ATOM     27  H4  UNL     1      11.762  -9.843  19.687  1.00  0.00     0.210 HD
ENDBRANCH  24  26
ENDBRANCH  23  24
ENDBRANCH  10  23
BRANCH   7  28
HETATM   28  C14 UNL     1      14.610 -13.091  17.295  1.00  0.00     0.049 C
BRANCH  28  29
HETATM   29  C15 UNL     1      15.320 -12.115  16.519  1.00  0.00     0.235 C
HETATM   30  F1  UNL     1      15.049 -12.411  15.134  1.00  0.00    -0.244 F
BRANCH  29  31
HETATM   31  C16 UNL     1      16.793 -11.937  16.520  1.00  0.00     0.386 C
HETATM   32  F2  UNL     1      17.577 -12.891  15.993  1.00  0.00    -0.211 F
HETATM   33  F3  UNL     1      17.118 -10.668  15.972  1.00  0.00    -0.211 F
ENDBRANCH  29  31
ENDBRANCH  28  29
ENDBRANCH   7  28
TORSDOF 11
ENDMDL