MODEL 3
REMARK VINA RESULT: -8.362936958      0.958      2.208
REMARK  10 active torsions:
REMARK  status: ('A' for Active; 'I' for Inactive)
REMARK    1  A    between atoms: O1_2  and  C2_3
REMARK    2  A    between atoms: C4_5  and  C5_6
REMARK    3  A    between atoms: C5_6  and  O2_7
REMARK    4  A    between atoms: C6_9  and  O3_10
REMARK    5  A    between atoms: C7_12  and  C8_13
REMARK    6  A    between atoms: C8_13  and  C9_14
REMARK    7  A    between atoms: C9_14  and  C10_15
REMARK    8  A    between atoms: C10_15  and  C11_16
REMARK    9  A    between atoms: C11_16  and  N1_17
REMARK   10  A    between atoms: N2_20  and  C14_21
ROOT
HETATM    1  C10 UNL     1      19.092 -12.805  20.400  1.00  0.00     0.044 C
ENDROOT
BRANCH   1   2
HETATM    2  C9  UNL     1      20.297 -13.660  20.587  1.00  0.00     0.006 C
BRANCH   2   3
HETATM    3  C8  UNL     1      19.850 -15.033  21.111  1.00  0.00     0.010 C
BRANCH   3   4
HETATM    4  C7  UNL     1      20.276 -15.130  22.536  1.00  0.00     0.045 C
HETATM    5  C6  UNL     1      20.177 -16.530  23.079  1.00  0.00     0.138 C
HETATM    6  C4  UNL     1      19.035 -16.071  23.962  1.00  0.00     0.038 C
HETATM    7  C3  UNL     1      19.285 -16.095  25.433  1.00  0.00     0.077 C
HETATM    8  C22 UNL     1      19.270 -14.650  23.569  1.00  0.00     0.144 C
HETATM    9  C2  UNL     1      19.857 -14.734  25.740  1.00  0.00     0.260 C
HETATM   10  O4  UNL     1      19.919 -14.003  24.587  1.00  0.00    -0.355 OA
BRANCH   5  11
HETATM   11  O3  UNL     1      21.344 -16.861  23.775  1.00  0.00    -0.394 OA
ATOM     12  H3  UNL     1      21.221 -17.510  24.458  1.00  0.00     0.210 HD
ENDBRANCH   5  11
BRANCH   6  13
HETATM   13  C5  UNL     1      17.687 -16.637  23.586  1.00  0.00     0.179 C
BRANCH  13  14
HETATM   14  O2  UNL     1      16.973 -16.983  24.732  1.00  0.00    -0.400 OA
ATOM     15  H2  UNL     1      17.560 -17.051  25.476  1.00  0.00     0.209 HD
ENDBRANCH  13  14
ENDBRANCH   6  13
BRANCH   9  16
HETATM   16  O1  UNL     1      21.115 -14.960  26.313  1.00  0.00    -0.366 OA
HETATM   17  C1  UNL     1      22.080 -14.126  25.750  1.00  0.00     0.204 C
ENDBRANCH   9  16
ENDBRANCH   3   4
ENDBRANCH   2   3
ENDBRANCH   1   2
BRANCH   1  18
HETATM   18  C11 UNL     1      18.025 -13.348  19.519  1.00  0.00     0.063 C
BRANCH  18  19
HETATM   19  N1  UNL     1      16.715 -13.394  19.950  1.00  0.00    -0.371 N
HETATM   20  C12 UNL     1      15.638 -13.179  19.085  1.00  0.00     0.083 C
HETATM   21  C13 UNL     1      14.444 -12.579  19.791  1.00  0.00     0.167 C
HETATM   22  N2  UNL     1      14.378 -12.792  21.204  1.00  0.00    -0.369 N
HETATM   23  C20 UNL     1      15.328 -13.634  21.886  1.00  0.00     0.143 C
HETATM   24  C21 UNL     1      16.328 -14.310  20.936  1.00  0.00     0.146 C
BRANCH  22  25
HETATM   25  C14 UNL     1      13.340 -12.170  21.986  1.00  0.00     0.112 A
HETATM   26  C15 UNL     1      13.338 -10.810  22.236  1.00  0.00     0.149 A
HETATM   27  F1  UNL     1      14.293  -9.993  21.746  1.00  0.00    -0.203 F
HETATM   28  C16 UNL     1      12.347 -10.187  23.002  1.00  0.00     0.090 A
HETATM   29  C17 UNL     1      11.326 -10.934  23.536  1.00  0.00     0.161 A
HETATM   30  F2  UNL     1      10.353 -10.367  24.279  1.00  0.00    -0.203 F
HETATM   31  C18 UNL     1      11.318 -12.285  23.294  1.00  0.00     0.195 A
HETATM   32  F3  UNL     1      10.326 -13.048  23.807  1.00  0.00    -0.199 F
HETATM   33  C19 UNL     1      12.304 -12.918  22.530  1.00  0.00     0.187 A
HETATM   34  F4  UNL     1      12.214 -14.251  22.351  1.00  0.00    -0.200 F
ENDBRANCH  22  25
ENDBRANCH  18  19
ENDBRANCH   1  18
TORSDOF 10
ENDMDL