MODEL 3
REMARK VINA RESULT: -6.913587707      2.186      3.191
REMARK  12 active torsions:
REMARK  status: ('A' for Active; 'I' for Inactive)
REMARK    1  A    between atoms: O1_2  and  C2_3
REMARK    2  A    between atoms: N1_7  and  S1_8
REMARK    3  A    between atoms: S1_8  and  C5_11
REMARK    4  A    between atoms: C5_11  and  C6_12
REMARK    5  A    between atoms: C5_11  and  C9_15
REMARK    6  A    between atoms: C9_15  and  C11_17
REMARK    7  A    between atoms: C11_17  and  O4_18
REMARK    8  A    between atoms: O4_18  and  C12_19
REMARK    9  A    between atoms: C16_23  and  C17_24
REMARK   10  A    between atoms: C17_24  and  O5_25
REMARK   11  A    between atoms: C17_24  and  O6_27
REMARK   12  A    between atoms: C17_24  and  C18_29
ROOT
HETATM    1  C2  UNL     1      12.404 -11.491  21.773  1.00  0.00     0.185 C
HETATM    2  C3  UNL     1      13.628 -10.534  21.640  1.00  0.00     0.219 C
HETATM    3  F1  UNL     1      13.636  -9.574  22.582  1.00  0.00    -0.245 F
HETATM    4  C4  UNL     1      14.711 -11.625  21.884  1.00  0.00     0.175 C
HETATM    5  N1  UNL     1      14.333 -12.606  20.972  1.00  0.00    -0.295 N
HETATM    6  C16 UNL     1      12.871 -12.677  20.984  1.00  0.00     0.199 C
ENDROOT
BRANCH   5   7
HETATM    7  S1  UNL     1      15.011 -12.745  19.448  1.00  0.00     0.234 S
HETATM    8  O2  UNL     1      13.960 -12.375  18.390  1.00  0.00    -0.205 OA
HETATM    9  O3  UNL     1      16.029 -11.618  19.312  1.00  0.00    -0.205 OA
BRANCH   7  10
HETATM   10  C5  UNL     1      15.755 -14.297  18.998  1.00  0.00     0.138 C
BRANCH  10  11
HETATM   11  C6  UNL     1      15.566 -14.453  17.510  1.00  0.00    -0.002 C
HETATM   12  C7  UNL     1      15.510 -15.850  16.977  1.00  0.00     0.011 C
HETATM   13  C8  UNL     1      16.506 -13.688  16.630  1.00  0.00     0.011 C
ENDBRANCH  10  11
BRANCH  10  14
HETATM   14  C9  UNL     1      17.048 -14.542  19.599  1.00  0.00     0.026 C
HETATM   15  C10 UNL     1      18.018 -13.347  19.620  1.00  0.00     0.013 C
BRANCH  14  16
HETATM   16  C11 UNL     1      17.113 -15.245  20.935  1.00  0.00     0.174 C
BRANCH  16  17
HETATM   17  O4  UNL     1      17.833 -14.348  21.775  1.00  0.00    -0.381 OA
BRANCH  17  18
HETATM   18  C12 UNL     1      18.689 -15.063  22.609  1.00  0.00     0.050 C
HETATM   19  C13 UNL     1      18.270 -14.977  24.063  1.00  0.00     0.045 C
HETATM   20  C14 UNL     1      20.122 -14.660  22.483  1.00  0.00     0.045 C
HETATM   21  C15 UNL     1      18.576 -16.518  22.205  1.00  0.00     0.045 C
ENDBRANCH  17  18
ENDBRANCH  16  17
ENDBRANCH  14  16
ENDBRANCH  10  14
ENDBRANCH   7  10
ENDBRANCH   5   7
BRANCH   6  22
HETATM   22  C17 UNL     1      12.489 -13.985  21.636  1.00  0.00     0.285 C
BRANCH  22  23
HETATM   23  O5  UNL     1      11.371 -13.946  22.421  1.00  0.00    -0.357 OA
ATOM     24  H5  UNL     1      10.685 -14.560  22.188  1.00  0.00     0.213 HD
ENDBRANCH  22  23
BRANCH  22  25
HETATM   25  O6  UNL     1      13.542 -14.157  22.633  1.00  0.00    -0.357 OA
ATOM     26  H6  UNL     1      13.050 -14.406  23.407  1.00  0.00     0.213 HD
ENDBRANCH  22  25
BRANCH  22  27
HETATM   27  C18 UNL     1      12.608 -15.198  20.809  1.00  0.00     0.446 C
HETATM   28  F2  UNL     1      12.468 -15.102  19.473  1.00  0.00    -0.166 F
HETATM   29  F3  UNL     1      13.834 -15.862  21.022  1.00  0.00    -0.166 F
HETATM   30  F4  UNL     1      11.660 -16.146  21.241  1.00  0.00    -0.166 F
ENDBRANCH  22  27
ENDBRANCH   6  22
BRANCH   1  31
HETATM   31  O1  UNL     1      12.291 -11.812  23.127  1.00  0.00    -0.385 OA
HETATM   32  C1  UNL     1      11.364 -11.072  23.813  1.00  0.00     0.202 C
ENDBRANCH   1  31
TORSDOF 12
ENDMDL