MODEL 3
REMARK VINA RESULT: -6.833314478      4.281      6.844
REMARK  9 active torsions:
REMARK  status: ('A' for Active; 'I' for Inactive)
REMARK    1  A    between atoms: O1_2  and  C2_3
REMARK    2  A    between atoms: C2_3  and  C3_4
REMARK    3  A    between atoms: C4_10  and  C6_12
REMARK       I    between atoms: C6_12  and  N2_14
REMARK    4  A    between atoms: N2_14  and  C7_16
REMARK    5  A    between atoms: C7_16  and  C8_17
REMARK    6  A    between atoms: C7_16  and  C12_21
REMARK    7  A    between atoms: C8_17  and  C9_18
REMARK       I    between atoms: C12_21  and  N3_23
REMARK    8  A    between atoms: C13_25  and  C14_26
REMARK    9  A    between atoms: C14_26  and  N4_27
ROOT
HETATM    1  C6  UNL     1      17.400 -15.185  22.888  1.00  0.00     0.248 C
HETATM    2  O2  UNL     1      17.791 -14.013  22.749  1.00  0.00    -0.271 OA
HETATM    3  N2  UNL     1      16.251 -15.625  22.204  1.00  0.00    -0.346 N
ATOM      4  H2  UNL     1      15.969 -16.597  22.326  1.00  0.00     0.163 HD
ENDROOT
BRANCH   1   5
HETATM    5  C4  UNL     1      18.165 -16.076  23.783  1.00  0.00     0.128 C
HETATM    6  N1  UNL     1      19.469 -16.376  23.327  1.00  0.00    -0.363 N
HETATM    7  C2  UNL     1      20.602 -16.088  24.150  1.00  0.00     0.262 C
ATOM      8  H1  UNL     1      19.601 -16.800  22.409  1.00  0.00     0.158 HD
HETATM    9  C18 UNL     1      20.298 -16.148  25.637  1.00  0.00     0.112 C
HETATM   10  O4  UNL     1      19.199 -15.382  25.875  1.00  0.00    -0.373 OA
HETATM   11  C19 UNL     1      20.201 -17.591  26.065  1.00  0.00     0.051 C
HETATM   12  C20 UNL     1      21.422 -15.563  26.463  1.00  0.00     0.051 C
HETATM   13  C17 UNL     1      18.049 -15.683  25.228  1.00  0.00     0.209 C
HETATM   14  C5  UNL     1      17.389 -17.414  23.688  1.00  0.00     0.051 C
BRANCH   7  15
HETATM   15  O1  UNL     1      21.590 -17.032  23.940  1.00  0.00    -0.356 OA
HETATM   16  C1  UNL     1      21.480 -17.904  22.922  1.00  0.00     0.205 C
ENDBRANCH   7  15
BRANCH   7  17
HETATM   17  C3  UNL     1      21.138 -14.737  23.749  1.00  0.00     0.440 C
HETATM   18  F1  UNL     1      20.444 -13.697  24.373  1.00  0.00    -0.166 F
HETATM   19  F2  UNL     1      22.500 -14.607  23.828  1.00  0.00    -0.166 F
HETATM   20  F3  UNL     1      20.859 -14.490  22.383  1.00  0.00    -0.166 F
ENDBRANCH   7  17
ENDBRANCH   1   5
BRANCH   3  21
HETATM   21  C7  UNL     1      15.448 -14.794  21.345  1.00  0.00     0.177 C
BRANCH  21  22
HETATM   22  C8  UNL     1      15.849 -14.575  19.956  1.00  0.00     0.038 C
BRANCH  22  23
HETATM   23  C9  UNL     1      16.313 -13.215  19.541  1.00  0.00    -0.020 C
HETATM   24  C10 UNL     1      15.983 -12.144  20.540  1.00  0.00     0.009 C
HETATM   25  C11 UNL     1      17.846 -13.186  19.397  1.00  0.00     0.009 C
ENDBRANCH  22  23
ENDBRANCH  21  22
BRANCH  21  26
HETATM   26  C12 UNL     1      14.020 -15.317  21.336  1.00  0.00     0.244 C
HETATM   27  O3  UNL     1      13.731 -16.316  22.003  1.00  0.00    -0.271 OA
HETATM   28  N3  UNL     1      13.071 -14.637  20.561  1.00  0.00    -0.337 N
HETATM   29  C13 UNL     1      12.483 -13.599  21.036  1.00  0.00     0.094 C
ATOM     30  H3  UNL     1      12.847 -14.967  19.622  1.00  0.00     0.167 HD
BRANCH  29  31
HETATM   31  C14 UNL     1      12.794 -13.117  22.382  1.00  0.00     0.315 C
BRANCH  31  32
HETATM   32  N4  UNL     1      12.732 -11.678  22.506  1.00  0.00     0.084 N
HETATM   33  C15 UNL     1      11.675 -11.371  23.450  1.00  0.00     0.309 C
HETATM   34  C16 UNL     1      12.447 -11.038  21.252  1.00  0.00     0.309 C
ENDBRANCH  31  32
ENDBRANCH  29  31
ENDBRANCH  21  26
ENDBRANCH   3  21
TORSDOF 9
ENDMDL