MODEL 1
REMARK VINA RESULT: -7.299066528      0.000      0.000
REMARK  10 active torsions:
REMARK  status: ('A' for Active; 'I' for Inactive)
REMARK    1  A    between atoms: O1_2  and  C2_3
REMARK    2  A    between atoms: C2_3  and  C3_4
REMARK    3  A    between atoms: C3_4  and  C4_5
REMARK    4  A    between atoms: C4_5  and  N1_6
REMARK    5  A    between atoms: N1_6  and  C5_7
REMARK    6  A    between atoms: N1_6  and  C8_10
REMARK    7  A    between atoms: C12_17  and  C13_18
REMARK    8  A    between atoms: C12_17  and  C19_28
REMARK    9  A    between atoms: C13_18  and  C14_19
REMARK   10  A    between atoms: C15_21  and  O4_23
ROOT
HETATM    1  C3  UNL     1      16.604 -14.504  21.085  1.00  0.00     0.162 C
HETATM    2  C11 UNL     1      17.458 -13.278  21.282  1.00  0.00     0.240 C
HETATM    3  O2  UNL     1      17.441 -12.200  20.613  1.00  0.00    -0.272 OA
HETATM    4  N2  UNL     1      18.301 -13.536  22.356  1.00  0.00    -0.337 N
ATOM      5  H2  UNL     1      18.583 -12.864  23.070  1.00  0.00     0.163 HD
HETATM    6  C12 UNL     1      18.710 -14.922  22.285  1.00  0.00     0.201 C
HETATM    7  C20 UNL     1      17.485 -15.581  21.655  1.00  0.00     0.300 C
HETATM    8  F4  UNL     1      16.728 -16.268  22.611  1.00  0.00    -0.201 F
HETATM    9  F5  UNL     1      17.867 -16.510  20.722  1.00  0.00    -0.201 F
ENDROOT
BRANCH   6  10
HETATM   10  C13 UNL     1      18.870 -15.563  23.601  1.00  0.00     0.087 C
BRANCH  10  11
HETATM   11  C14 UNL     1      18.863 -14.785  24.854  1.00  0.00     0.197 C
HETATM   12  O3  UNL     1      19.732 -13.731  24.961  1.00  0.00    -0.342 OA
HETATM   13  C15 UNL     1      20.777 -14.106  25.776  1.00  0.00     0.165 C
HETATM   14  C16 UNL     1      22.023 -14.501  25.065  1.00  0.00     0.079 C
HETATM   15  C17 UNL     1      20.264 -15.168  26.706  1.00  0.00     0.149 C
HETATM   16  C18 UNL     1      19.051 -15.657  26.023  1.00  0.00     0.161 C
HETATM   17  O5  UNL     1      18.324 -16.571  26.311  1.00  0.00    -0.295 OA
BRANCH  13  18
HETATM   18  O4  UNL     1      21.091 -12.977  26.556  1.00  0.00    -0.365 OA
ATOM     19  H4  UNL     1      22.035 -12.877  26.509  1.00  0.00     0.213 HD
ENDBRANCH  13  18
ENDBRANCH  10  11
ENDBRANCH   6  10
BRANCH   6  20
HETATM   20  C19 UNL     1      19.874 -14.960  21.352  1.00  0.00     0.418 C
HETATM   21  F1  UNL     1      20.482 -16.213  21.281  1.00  0.00    -0.168 F
HETATM   22  F2  UNL     1      20.906 -14.186  21.936  1.00  0.00    -0.168 F
HETATM   23  F3  UNL     1      19.653 -14.388  20.138  1.00  0.00    -0.168 F
ENDBRANCH   6  20
BRANCH   1  24
HETATM   24  C2  UNL     1      15.384 -14.221  21.953  1.00  0.00     0.198 C
BRANCH  24  25
HETATM   25  O1  UNL     1      15.097 -12.887  22.001  1.00  0.00    -0.394 OA
HETATM   26  C1  UNL     1      13.728 -12.695  22.007  1.00  0.00     0.201 C
ENDBRANCH  24  25
ENDBRANCH   1  24
BRANCH   1  27
HETATM   27  C4  UNL     1      16.243 -14.733  19.683  1.00  0.00     0.086 C
BRANCH  27  28
HETATM   28  N1  UNL     1      15.003 -14.745  19.105  1.00  0.00    -0.384 N
BRANCH  28  29
HETATM   29  C5  UNL     1      14.124 -15.779  19.024  1.00  0.00     0.075 C
HETATM   30  C6  UNL     1      14.648 -17.141  19.495  1.00  0.00     0.032 C
HETATM   31  C7  UNL     1      12.785 -15.611  19.739  1.00  0.00     0.032 C
ENDBRANCH  28  29
BRANCH  28  32
HETATM   32  C8  UNL     1      14.950 -13.685  18.117  1.00  0.00     0.075 C
HETATM   33  C9  UNL     1      16.214 -13.301  17.457  1.00  0.00     0.032 C
HETATM   34  C10 UNL     1      14.153 -12.503  18.567  1.00  0.00     0.032 C
ENDBRANCH  28  32
ENDBRANCH  27  28
ENDBRANCH   1  27
TORSDOF 10
ENDMDL