MODEL 3
REMARK VINA RESULT: -7.291611209      1.486      1.770
REMARK  12 active torsions:
REMARK  status: ('A' for Active; 'I' for Inactive)
REMARK    1  A    between atoms: C2_2  and  O1_3
REMARK    2  A    between atoms: C2_2  and  C3_5
REMARK    3  A    between atoms: C5_7  and  O2_8
REMARK    4  A    between atoms: O2_8  and  C6_9
REMARK    5  A    between atoms: C6_9  and  C7_10
REMARK    6  A    between atoms: C11_17  and  C12_18
REMARK    7  A    between atoms: N2_21  and  C13_22
REMARK    8  A    between atoms: C13_22  and  O4_23
REMARK    9  A    between atoms: C13_22  and  C14_25
REMARK   10  A    between atoms: C14_25  and  C15_26
REMARK   11  A    between atoms: C15_26  and  C16_27
REMARK   12  A    between atoms: C16_27  and  C17_28
ROOT
HETATM    1  C3  UNL     1      14.187 -14.169  19.959  1.00  0.00     0.117 C
HETATM    2  C4  UNL     1      12.809 -14.723  20.049  1.00  0.00     0.060 C
HETATM    3  C5  UNL     1      12.250 -14.899  21.441  1.00  0.00     0.126 C
HETATM    4  C10 UNL     1      12.451 -13.731  22.352  1.00  0.00     0.066 C
HETATM    5  C11 UNL     1      13.241 -12.678  21.574  1.00  0.00     0.178 C
HETATM    6  N2  UNL     1      14.433 -13.337  21.173  1.00  0.00    -0.345 N
ENDROOT
BRANCH   6   7
HETATM    7  C13 UNL     1      15.699 -13.394  21.726  1.00  0.00     0.114 C
BRANCH   7   8
HETATM    8  O4  UNL     1      15.849 -14.260  22.687  1.00  0.00    -0.349 OA
ATOM      9  H4  UNL     1      15.382 -14.060  23.490  1.00  0.00     0.219 HD
ENDBRANCH   7   8
BRANCH   7  10
HETATM   10  C14 UNL     1      16.937 -12.683  21.467  1.00  0.00     0.084 C
BRANCH  10  11
HETATM   11  C15 UNL     1      17.997 -13.648  20.880  1.00  0.00     0.017 C
BRANCH  11  12
HETATM   12  C16 UNL     1      18.706 -12.937  19.743  1.00  0.00     0.118 C
BRANCH  12  13
HETATM   13  C17 UNL     1      20.150 -13.313  19.669  1.00  0.00     0.387 C
HETATM   14  F2  UNL     1      20.958 -12.442  20.355  1.00  0.00    -0.171 F
HETATM   15  F3  UNL     1      20.357 -14.582  20.226  1.00  0.00    -0.171 F
HETATM   16  F4  UNL     1      20.581 -13.399  18.364  1.00  0.00    -0.171 F
ENDBRANCH  12  13
ENDBRANCH  11  12
ENDBRANCH  10  11
ENDBRANCH   7  10
ENDBRANCH   6   7
BRANCH   1  17
HETATM   17  C2  UNL     1      14.354 -13.417  18.700  1.00  0.00     0.137 C
HETATM   18  C1  UNL     1      15.567 -13.794  17.877  1.00  0.00     0.041 C
BRANCH  17  19
HETATM   19  O1  UNL     1      14.343 -12.049  18.771  1.00  0.00    -0.394 OA
ATOM     20  H1  UNL     1      14.994 -11.808  19.421  1.00  0.00     0.210 HD
ENDBRANCH  17  19
ENDBRANCH   1  17
BRANCH   5  21
HETATM   21  C12 UNL     1      13.243 -11.358  22.119  1.00  0.00     0.254 C
HETATM   22  N1  UNL     1      13.823 -10.242  21.530  1.00  0.00    -0.060 NA
HETATM   23  O3  UNL     1      12.655 -11.190  23.246  1.00  0.00    -0.275 OA
ENDBRANCH   5  21
BRANCH   3  24
HETATM   24  O2  UNL     1      12.708 -16.052  22.047  1.00  0.00    -0.384 OA
BRANCH  24  25
HETATM   25  C6  UNL     1      12.809 -17.173  21.314  1.00  0.00     0.187 C
BRANCH  25  26
HETATM   26  C7  UNL     1      11.711 -18.141  21.185  1.00  0.00     0.117 C
HETATM   27  S1  UNL     1      11.210 -18.024  19.373  1.00  0.00    -0.088 SA
HETATM   28  S2  UNL     1      12.773 -19.376  18.724  1.00  0.00    -0.094 SA
HETATM   29  C8  UNL     1      13.251 -19.882  20.427  1.00  0.00     0.124 C
HETATM   30  C9  UNL     1      12.070 -19.598  21.291  1.00  0.00     0.196 C
HETATM   31  F1  UNL     1      12.303 -19.961  22.555  1.00  0.00    -0.247 F
ENDBRANCH  25  26
ENDBRANCH  24  25
ENDBRANCH   3  24
TORSDOF 12
ENDMDL