MODEL 3
REMARK VINA RESULT: -7.444536637      2.463      3.210
REMARK  10 active torsions:
REMARK  status: ('A' for Active; 'I' for Inactive)
REMARK    1  A    between atoms: O1_2  and  C2_3
REMARK    2  A    between atoms: C6_8  and  N1_9
REMARK    3  A    between atoms: N1_9  and  C7_11
REMARK    4  A    between atoms: C7_11  and  C8_12
REMARK    5  A    between atoms: C8_12  and  C9_13
REMARK    6  A    between atoms: C9_13  and  C10_14
REMARK    7  A    between atoms: C10_14  and  C12_16
REMARK    8  A    between atoms: C14_21  and  N2_22
REMARK    9  A    between atoms: N2_22  and  S1_24
REMARK   10  A    between atoms: S1_24  and  C15_27
ROOT
HETATM    1  C9  UNL     1      17.553 -14.355  21.739  1.00  0.00     0.076 C
HETATM    2  C13 UNL     1      18.520 -14.398  22.898  1.00  0.00     0.066 C
HETATM    3  C14 UNL     1      19.416 -15.566  22.487  1.00  0.00     0.119 C
HETATM    4  C18 UNL     1      18.412 -16.442  21.746  1.00  0.00     0.194 C
HETATM    5  O5  UNL     1      17.401 -15.665  21.290  1.00  0.00    -0.377 OA
ENDROOT
BRANCH   1   6
HETATM    6  C8  UNL     1      16.189 -13.847  22.081  1.00  0.00     0.058 C
BRANCH   6   7
HETATM    7  C7  UNL     1      15.060 -14.800  21.681  1.00  0.00     0.117 C
BRANCH   7   8
HETATM    8  N1  UNL     1      13.810 -14.321  22.217  1.00  0.00    -0.414 N
ATOM      9  H1  UNL     1      13.411 -14.718  23.068  1.00  0.00     0.153 HD
BRANCH   8  10
HETATM   10  C6  UNL     1      13.161 -13.284  21.521  1.00  0.00     0.109 C
HETATM   11  C2  UNL     1      12.954 -12.066  22.372  1.00  0.00     0.167 C
HETATM   12  C3  UNL     1      13.544 -10.834  21.717  1.00  0.00     0.201 C
HETATM   13  O2  UNL     1      13.034 -10.594  20.460  1.00  0.00    -0.388 OA
HETATM   14  C4  UNL     1      13.045 -11.724  19.648  1.00  0.00     0.169 C
HETATM   15  C5  UNL     1      13.860 -12.846  20.256  1.00  0.00     0.053 C
BRANCH  11  16
HETATM   16  O1  UNL     1      11.609 -11.873  22.693  1.00  0.00    -0.387 OA
HETATM   17  C1  UNL     1      11.458 -11.119  23.853  1.00  0.00     0.202 C
ENDBRANCH  11  16
ENDBRANCH   8  10
ENDBRANCH   7   8
ENDBRANCH   6   7
ENDBRANCH   1   6
BRANCH   1  18
HETATM   18  C10 UNL     1      18.174 -13.504  20.662  1.00  0.00     0.124 C
HETATM   19  C11 UNL     1      18.549 -12.151  21.225  1.00  0.00     0.022 C
BRANCH  18  20
HETATM   20  C12 UNL     1      17.455 -13.345  19.392  1.00  0.00     0.393 C
HETATM   21  F1  UNL     1      16.637 -14.355  18.980  1.00  0.00    -0.171 F
HETATM   22  F2  UNL     1      16.652 -12.189  19.495  1.00  0.00    -0.171 F
HETATM   23  F3  UNL     1      18.291 -13.064  18.314  1.00  0.00    -0.171 F
ENDBRANCH  18  20
ENDBRANCH   1  18
BRANCH   3  24
HETATM   24  N2  UNL     1      19.882 -16.311  23.582  1.00  0.00    -0.310 N
ATOM     25  H2  UNL     1      19.353 -17.127  23.893  1.00  0.00     0.172 HD
BRANCH  24  26
HETATM   26  S1  UNL     1      21.284 -15.889  24.387  1.00  0.00     0.264 S
HETATM   27  O3  UNL     1      22.250 -17.050  24.554  1.00  0.00    -0.203 OA
HETATM   28  O4  UNL     1      22.093 -14.839  23.621  1.00  0.00    -0.203 OA
BRANCH  26  29
HETATM   29  C15 UNL     1      20.925 -15.155  25.951  1.00  0.00     0.216 C
HETATM   30  C16 UNL     1      19.609 -15.703  26.514  1.00  0.00     0.071 C
HETATM   31  C17 UNL     1      20.796 -13.651  25.900  1.00  0.00     0.071 C
HETATM   32  F4  UNL     1      21.914 -15.472  26.845  1.00  0.00    -0.225 F
ENDBRANCH  26  29
ENDBRANCH  24  26
ENDBRANCH   3  24
TORSDOF 10
ENDMDL