MODEL 1
REMARK VINA RESULT: -6.906883523      0.000      0.000
REMARK  11 active torsions:
REMARK  status: ('A' for Active; 'I' for Inactive)
REMARK    1  A    between atoms: C2_2  and  N1_3
REMARK       I    between atoms: N1_3  and  C3_5
REMARK    2  A    between atoms: C3_5  and  C4_7
REMARK    3  A    between atoms: C4_7  and  C5_8
REMARK    4  A    between atoms: C4_7  and  N3_22
REMARK    5  A    between atoms: C5_8  and  O2_9
REMARK    6  A    between atoms: O2_9  and  C6_10
REMARK    7  A    between atoms: C6_10  and  C7_11
REMARK    8  A    between atoms: C6_10  and  C12_18
REMARK    9  A    between atoms: C7_11  and  N2_12
REMARK       I    between atoms: N3_22  and  C13_24
REMARK   10  A    between atoms: C13_24  and  O5_26
REMARK   11  A    between atoms: O5_26  and  C14_27
ROOT
HETATM    1  C4  UNL     1      17.995 -14.894  22.200  1.00  0.00     0.202 C
ENDROOT
BRANCH   1   2
HETATM    2  C3  UNL     1      18.851 -15.258  23.351  1.00  0.00     0.243 C
HETATM    3  N1  UNL     1      19.768 -14.326  23.859  1.00  0.00    -0.350 N
ATOM      4  H1  UNL     1      19.825 -13.407  23.419  1.00  0.00     0.163 HD
HETATM    5  O1  UNL     1      18.787 -16.389  23.903  1.00  0.00    -0.271 OA
BRANCH   3   6
HETATM    6  C2  UNL     1      20.634 -14.612  24.978  1.00  0.00     0.029 A
HETATM    7  C1  UNL     1      21.872 -15.425  24.642  1.00  0.00     0.038 C
HETATM    8  C18 UNL     1      19.954 -14.792  26.295  1.00  0.00     0.033 A
HETATM    9  C19 UNL     1      20.830 -13.593  26.044  1.00  0.00     0.033 A
ENDBRANCH   3   6
ENDBRANCH   1   2
BRANCH   1  10
HETATM   10  C5  UNL     1      18.125 -13.455  21.798  1.00  0.00     0.203 C
BRANCH  10  11
HETATM   11  O2  UNL     1      17.055 -12.773  21.523  1.00  0.00    -0.373 OA
BRANCH  11  12
HETATM   12  C6  UNL     1      16.552 -12.337  20.385  1.00  0.00     0.257 C
BRANCH  12  13
HETATM   13  C7  UNL     1      15.006 -12.447  20.354  1.00  0.00     0.313 C
BRANCH  13  14
HETATM   14  N2  UNL     1      14.392 -12.073  21.566  1.00  0.00     0.095 N
HETATM   15  C8  UNL     1      13.677 -10.842  21.566  1.00  0.00     0.298 C
HETATM   16  C9  UNL     1      12.662 -10.838  22.718  1.00  0.00     0.198 C
HETATM   17  O3  UNL     1      11.607 -11.644  22.367  1.00  0.00    -0.388 OA
HETATM   18  C10 UNL     1      12.038 -12.748  21.670  1.00  0.00     0.198 C
HETATM   19  C11 UNL     1      13.477 -13.126  21.964  1.00  0.00     0.298 C
ENDBRANCH  13  14
ENDBRANCH  12  13
BRANCH  12  20
HETATM   20  C12 UNL     1      16.976 -13.047  19.117  1.00  0.00     0.414 C
HETATM   21  F1  UNL     1      16.569 -14.368  19.110  1.00  0.00    -0.168 F
HETATM   22  F2  UNL     1      16.284 -12.436  18.063  1.00  0.00    -0.168 F
HETATM   23  F3  UNL     1      18.299 -12.912  18.810  1.00  0.00    -0.168 F
ENDBRANCH  12  20
ENDBRANCH  11  12
ENDBRANCH  10  11
ENDBRANCH   1  10
BRANCH   1  24
HETATM   24  N3  UNL     1      16.666 -15.369  22.401  1.00  0.00    -0.322 N
HETATM   25  C13 UNL     1      16.098 -16.456  21.682  1.00  0.00     0.362 C
HETATM   26  O4  UNL     1      16.802 -17.029  20.825  1.00  0.00    -0.238 OA
ATOM     27  H3  UNL     1      16.089 -14.901  23.099  1.00  0.00     0.165 HD
BRANCH  25  28
HETATM   28  O5  UNL     1      14.813 -16.887  21.900  1.00  0.00    -0.294 OA
BRANCH  28  29
HETATM   29  C14 UNL     1      13.827 -17.009  20.913  1.00  0.00     0.061 C
HETATM   30  C15 UNL     1      12.490 -16.682  21.584  1.00  0.00     0.046 C
HETATM   31  C16 UNL     1      13.712 -18.416  20.377  1.00  0.00     0.046 C
HETATM   32  C17 UNL     1      13.991 -16.069  19.763  1.00  0.00     0.046 C
ENDBRANCH  28  29
ENDBRANCH  25  28
ENDBRANCH   1  24
TORSDOF 11
ENDMDL