MODEL 4
REMARK VINA RESULT: -7.331899963      3.190      6.939
REMARK  10 active torsions:
REMARK  status: ('A' for Active; 'I' for Inactive)
REMARK    1  A    between atoms: C2_2  and  C4_4
REMARK    2  A    between atoms: C4_4  and  C5_5
REMARK    3  A    between atoms: C4_4  and  O2_8
REMARK    4  A    between atoms: C5_5  and  O1_6
REMARK    5  A    between atoms: O2_8  and  C6_9
REMARK       I    between atoms: C6_9  and  N1_11
REMARK    6  A    between atoms: N1_11  and  C7_13
REMARK    7  A    between atoms: C7_13  and  C8_14
REMARK    8  A    between atoms: C7_13  and  C14_24
REMARK    9  A    between atoms: C8_14  and  C9_15
REMARK   10  A    between atoms: C9_15  and  N2_16
ROOT
HETATM    1  C7  UNL     1      15.409 -14.541  20.975  1.00  0.00     0.120 C
ENDROOT
BRANCH   1   2
HETATM    2  N1  UNL     1      14.789 -13.686  21.966  1.00  0.00    -0.328 N
HETATM    3  C6  UNL     1      13.449 -13.302  21.796  1.00  0.00     0.361 C
HETATM    4  O3  UNL     1      12.788 -13.685  20.801  1.00  0.00    -0.238 OA
ATOM      5  H1  UNL     1      15.319 -13.367  22.777  1.00  0.00     0.165 HD
BRANCH   3   6
HETATM    6  O2  UNL     1      12.738 -12.496  22.657  1.00  0.00    -0.296 OA
BRANCH   6   7
HETATM    7  C4  UNL     1      12.070 -11.367  22.274  1.00  0.00     0.160 C
BRANCH   7   8
HETATM    8  C2  UNL     1      11.293 -10.836  23.486  1.00  0.00     0.009 C
HETATM    9  C1  UNL     1      12.014  -9.727  24.171  1.00  0.00     0.012 C
HETATM   10  C3  UNL     1      10.918 -11.967  24.418  1.00  0.00     0.012 C
ENDBRANCH   7   8
BRANCH   7  11
HETATM   11  C5  UNL     1      12.838 -10.284  21.608  1.00  0.00     0.197 C
BRANCH  11  12
HETATM   12  O1  UNL     1      12.544 -10.075  20.287  1.00  0.00    -0.398 OA
ATOM     13  H1  UNL     1      12.526  -9.167  20.008  1.00  0.00     0.209 HD
ENDBRANCH  11  12
ENDBRANCH   7  11
ENDBRANCH   6   7
ENDBRANCH   3   6
ENDBRANCH   1   2
BRANCH   1  14
HETATM   14  C8  UNL     1      16.515 -15.389  21.628  1.00  0.00     0.060 C
BRANCH  14  15
HETATM   15  C9  UNL     1      17.015 -14.683  22.860  1.00  0.00     0.283 C
BRANCH  15  16
HETATM   16  N2  UNL     1      18.415 -14.492  22.894  1.00  0.00     0.165 N
HETATM   17  C10 UNL     1      19.105 -14.692  21.669  1.00  0.00     0.306 C
HETATM   18  C11 UNL     1      20.546 -14.259  21.842  1.00  0.00     0.198 C
HETATM   19  O4  UNL     1      21.141 -14.755  22.976  1.00  0.00    -0.381 OA
HETATM   20  C12 UNL     1      20.431 -14.366  24.136  1.00  0.00     0.282 C
HETATM   21  C13 UNL     1      19.084 -15.091  24.019  1.00  0.00     0.459 C
HETATM   22  F1  UNL     1      19.423 -16.428  23.771  1.00  0.00    -0.170 F
HETATM   23  F2  UNL     1      18.344 -14.994  25.159  1.00  0.00    -0.170 F
ENDBRANCH  15  16
ENDBRANCH  14  15
ENDBRANCH   1  14
BRANCH   1  24
HETATM   24  C14 UNL     1      15.993 -13.775  19.860  1.00  0.00    -0.018 C
HETATM   25  C15 UNL     1      16.011 -14.153  18.591  1.00  0.00     0.019 C
HETATM   26 BR1  UNL     1      15.327 -15.739  17.781  1.00  0.00    -0.053 Br
HETATM   27  C16 UNL     1      16.709 -13.059  17.817  1.00  0.00     0.214 C
HETATM   28  O5  UNL     1      16.366 -11.951  18.616  1.00  0.00    -0.382 OA
HETATM   29  C17 UNL     1      16.667 -12.456  19.901  1.00  0.00     0.205 C
ENDBRANCH   1  24
TORSDOF 10
ENDMDL