MODEL 4
REMARK VINA RESULT: -7.802102591      1.157      1.703
REMARK  11 active torsions:
REMARK  status: ('A' for Active; 'I' for Inactive)
REMARK    1  A    between atoms: C6_8  and  N2_9
REMARK    2  A    between atoms: N2_9  and  C7_10
REMARK    3  A    between atoms: C7_10  and  C8_11
REMARK    4  A    between atoms: C8_11  and  N3_12
REMARK    5  A    between atoms: C11_15  and  C12_16
REMARK    6  A    between atoms: C11_15  and  C13_19
REMARK    7  A    between atoms: C12_16  and  O1_17
REMARK    8  A    between atoms: C15_21  and  N4_22
REMARK    9  A    between atoms: N4_22  and  C16_24
REMARK   10  A    between atoms: N5_28  and  C20_29
REMARK   11  A    between atoms: C20_29  and  C21_30
ROOT
HETATM    1  N1  UNL     1      18.401 -17.481  24.138  1.00  0.00    -0.196 NA
HETATM    2  C1  UNL     1      18.613 -16.494  24.677  1.00  0.00     0.071 C
HETATM    3  C2  UNL     1      18.886 -15.232  25.339  1.00  0.00     0.155 C
HETATM    4  C3  UNL     1      19.526 -15.470  26.682  1.00  0.00     0.064 C
HETATM    5  C4  UNL     1      20.842 -14.745  26.674  1.00  0.00     0.178 C
HETATM    6  F1  UNL     1      21.825 -15.584  26.209  1.00  0.00    -0.249 F
HETATM    7  C5  UNL     1      20.624 -13.666  25.633  1.00  0.00     0.106 C
HETATM    8  C6  UNL     1      19.904 -14.423  24.567  1.00  0.00     0.081 C
ENDROOT
BRANCH   8   9
HETATM    9  N2  UNL     1      20.062 -14.406  23.401  1.00  0.00    -0.428 NA
BRANCH   9  10
HETATM   10  C7  UNL     1      20.225 -14.382  22.086  1.00  0.00     0.184 C
BRANCH  10  11
HETATM   11  C8  UNL     1      19.196 -15.124  21.249  1.00  0.00     0.331 C
BRANCH  11  12
HETATM   12  N3  UNL     1      17.970 -14.383  21.176  1.00  0.00     0.095 N
HETATM   13  C9  UNL     1      18.140 -13.105  20.511  1.00  0.00     0.273 C
HETATM   14  C10 UNL     1      16.913 -12.931  19.626  1.00  0.00     0.046 C
HETATM   15  C11 UNL     1      15.972 -14.018  19.963  1.00  0.00     0.040 C
HETATM   16  C22 UNL     1      16.942 -15.090  20.496  1.00  0.00     0.286 C
BRANCH  15  17
HETATM   17  C12 UNL     1      15.376 -14.626  18.706  1.00  0.00     0.177 C
BRANCH  17  18
HETATM   18  O1  UNL     1      15.206 -13.700  17.691  1.00  0.00    -0.400 OA
ATOM     19  H1  UNL     1      15.765 -13.869  16.942  1.00  0.00     0.209 HD
ENDBRANCH  17  18
ENDBRANCH  15  17
BRANCH  15  20
HETATM   20  C13 UNL     1      14.927 -13.792  20.973  1.00  0.00     0.237 C
HETATM   21  C14 UNL     1      14.896 -12.478  21.672  1.00  0.00     0.063 C
HETATM   22  C15 UNL     1      13.409 -12.236  21.846  1.00  0.00     0.107 C
HETATM   23  C19 UNL     1      12.904 -12.826  20.538  1.00  0.00     0.298 C
HETATM   24  N5  UNL     1      13.556 -14.098  20.525  1.00  0.00     0.104 N
BRANCH  22  25
HETATM   25  N4  UNL     1      13.029 -10.946  22.163  1.00  0.00    -0.411 N
ATOM     26  H4  UNL     1      13.690 -10.199  21.950  1.00  0.00     0.154 HD
BRANCH  25  27
HETATM   27  C16 UNL     1      11.828 -10.583  22.748  1.00  0.00     0.077 A
HETATM   28  C17 UNL     1      11.359 -11.301  24.003  1.00  0.00     0.027 A
HETATM   29  C18 UNL     1      11.876  -9.895  24.110  1.00  0.00     0.027 A
ENDBRANCH  25  27
ENDBRANCH  22  25
BRANCH  24  30
HETATM   30  C20 UNL     1      12.990 -15.151  21.279  1.00  0.00     0.389 C
BRANCH  30  31
HETATM   31  C21 UNL     1      12.386 -16.254  20.516  1.00  0.00     0.413 C
HETATM   32  F2  UNL     1      13.265 -17.118  19.934  1.00  0.00    -0.169 F
HETATM   33  F3  UNL     1      11.397 -16.939  21.220  1.00  0.00    -0.169 F
HETATM   34  F4  UNL     1      11.682 -15.668  19.438  1.00  0.00    -0.169 F
ENDBRANCH  30  31
ENDBRANCH  24  30
ENDBRANCH  15  20
ENDBRANCH  11  12
ENDBRANCH  10  11
ENDBRANCH   9  10
ENDBRANCH   8   9
TORSDOF 11
ENDMDL