MODEL 5
REMARK VINA RESULT: -6.614058106      1.530      1.970
REMARK  11 active torsions:
REMARK  status: ('A' for Active; 'I' for Inactive)
REMARK    1  A    between atoms: O1_2  and  C2_3
REMARK    2  A    between atoms: C3_4  and  O2_5
REMARK    3  A    between atoms: O2_5  and  C4_6
REMARK    4  A    between atoms: C4_6  and  C5_7
REMARK    5  A    between atoms: C5_7  and  O3_8
REMARK    6  A    between atoms: C6_10  and  C7_11
REMARK    7  A    between atoms: C10_16  and  O6_17
REMARK    8  A    between atoms: C12_22  and  C13_23
REMARK    9  A    between atoms: C14_25  and  O7_26
REMARK   10  A    between atoms: O7_26  and  C15_27
REMARK   11  A    between atoms: C15_27  and  C16_29
ROOT
HETATM    1  C2  UNL     1      15.701 -14.791  20.664  1.00  0.00     0.191 C
HETATM    2  C3  UNL     1      15.825 -16.102  21.499  1.00  0.00     0.168 C
HETATM    3  C6  UNL     1      17.279 -16.442  21.628  1.00  0.00     0.129 C
HETATM    4  C8  UNL     1      17.977 -15.476  22.562  1.00  0.00     0.064 C
HETATM    5  C9  UNL     1      17.041 -14.271  22.744  1.00  0.00     0.059 C
HETATM    6  C10 UNL     1      16.574 -13.795  21.411  1.00  0.00     0.157 C
HETATM    7  C11 UNL     1      17.766 -13.377  20.608  1.00  0.00     0.305 C
HETATM    8  F1  UNL     1      17.654 -13.733  19.263  1.00  0.00    -0.197 F
HETATM    9  F2  UNL     1      17.812 -11.994  20.648  1.00  0.00    -0.197 F
HETATM   10  C12 UNL     1      19.064 -13.926  21.088  1.00  0.00     0.052 C
HETATM   11  C14 UNL     1      19.209 -14.885  21.980  1.00  0.00     0.072 C
ENDROOT
BRANCH  11  12
HETATM   12  O7  UNL     1      20.484 -15.292  22.326  1.00  0.00    -0.282 OA
BRANCH  12  13
HETATM   13  C15 UNL     1      21.191 -14.908  23.432  1.00  0.00     0.273 C
HETATM   14  O8  UNL     1      22.263 -14.317  23.254  1.00  0.00    -0.264 OA
BRANCH  13  15
HETATM   15  C16 UNL     1      20.760 -15.153  24.833  1.00  0.00     0.063 A
HETATM   16  C17 UNL     1      20.339 -13.916  25.600  1.00  0.00     0.027 C
HETATM   17  C18 UNL     1      21.425 -16.247  25.618  1.00  0.00     0.042 A
HETATM   18  C19 UNL     1      19.998 -16.393  25.177  1.00  0.00     0.101 A
HETATM   19 CL1  UNL     1      18.816 -16.345  26.515  1.00  0.00    -0.124 Cl
ENDBRANCH  13  15
ENDBRANCH  12  13
ENDBRANCH  11  12
BRANCH  10  20
HETATM   20  C13 UNL     1      20.315 -13.306  20.505  1.00  0.00     0.265 C
HETATM   21  F3  UNL     1      20.435 -13.662  19.171  1.00  0.00    -0.251 F
ENDBRANCH  10  20
BRANCH   3  22
HETATM   22  C7  UNL     1      17.419 -17.852  22.027  1.00  0.00     0.180 C
HETATM   23  O4  UNL     1      17.318 -18.137  23.265  1.00  0.00    -0.648 OA
HETATM   24  O5  UNL     1      17.650 -18.892  21.168  1.00  0.00    -0.648 OA
ENDBRANCH   3  22
BRANCH   2  25
HETATM   25  O2  UNL     1      15.053 -17.070  20.944  1.00  0.00    -0.380 OA
BRANCH  25  26
HETATM   26  C4  UNL     1      13.997 -17.506  21.712  1.00  0.00     0.194 C
BRANCH  26  27
HETATM   27  C5  UNL     1      13.866 -18.997  21.837  1.00  0.00     0.190 C
BRANCH  27  28
HETATM   28  O3  UNL     1      14.696 -19.594  20.860  1.00  0.00    -0.399 OA
ATOM     29  H3  UNL     1      14.204 -20.289  20.440  1.00  0.00     0.209 HD
ENDBRANCH  27  28
ENDBRANCH  26  27
ENDBRANCH  25  26
ENDBRANCH   2  25
BRANCH   6  30
HETATM   30  O6  UNL     1      15.717 -12.695  21.669  1.00  0.00    -0.380 OA
ATOM     31  H6  UNL     1      16.232 -12.117  22.220  1.00  0.00     0.211 HD
ENDBRANCH   6  30
BRANCH   1  32
HETATM   32  O1  UNL     1      14.368 -14.463  20.660  1.00  0.00    -0.385 OA
HETATM   33  C1  UNL     1      13.863 -14.249  19.378  1.00  0.00     0.202 C
ENDBRANCH   1  32
TORSDOF 11
ENDMDL