MODEL 2
REMARK VINA RESULT: -2.610937732      1.672      2.269
REMARK  8 active torsions:
REMARK  status: ('A' for Active; 'I' for Inactive)
REMARK    1  A    between atoms: O1_2  and  C2_3
REMARK       I    between atoms: C2_3  and  N1_5
REMARK    2  A    between atoms: N2_8  and  C5_9
REMARK    3  A    between atoms: C5_9  and  O3_10
REMARK    4  A    between atoms: C5_9  and  C6_12
REMARK    5  A    between atoms: C6_12  and  N3_13
REMARK    6  A    between atoms: C6_12  and  N4_16
REMARK    7  A    between atoms: N4_16  and  C7_18
REMARK    8  A    between atoms: C7_18  and  C8_19
ROOT
HETATM    1  C6  UNL     1      79.261  24.523  40.721  1.00  0.00     0.146 C
ENDROOT
BRANCH   1   2
HETATM    2  C5  UNL     1      79.141  25.077  39.419  1.00  0.00     0.184 C
BRANCH   2   3
HETATM    3  N2  UNL     1      78.664  26.346  39.078  1.00  0.00    -0.336 N
HETATM    4  C4  UNL     1      77.256  26.633  38.681  1.00  0.00     0.147 C
HETATM    5  C3  UNL     1      77.028  28.045  39.068  1.00  0.00     0.150 C
HETATM    6  N1  UNL     1      78.238  28.429  39.735  1.00  0.00    -0.305 N
HETATM    7  C2  UNL     1      78.523  29.327  40.772  1.00  0.00     0.364 C
HETATM    8  C13 UNL     1      79.287  27.617  39.059  1.00  0.00     0.189 C
HETATM    9  O2  UNL     1      79.708  29.460  41.167  1.00  0.00    -0.238 OA
HETATM   10  C14 UNL     1      79.394  28.232  37.672  1.00  0.00     0.056 C
BRANCH   7  11
HETATM   11  O1  UNL     1      77.528  30.058  41.360  1.00  0.00    -0.309 OA
HETATM   12  C1  UNL     1      76.706  30.982  40.673  1.00  0.00     0.215 C
ENDBRANCH   7  11
ENDBRANCH   2   3
BRANCH   2  13
HETATM   13  O3  UNL     1      79.526  24.288  38.442  1.00  0.00    -0.343 OA
ATOM     14  H3  UNL     1      80.249  23.695  38.613  1.00  0.00     0.219 HD
ENDBRANCH   2  13
ENDBRANCH   1   2
BRANCH   1  15
HETATM   15  N3  UNL     1      79.767  23.309  40.783  1.00  0.00    -0.382 N
ATOM     16  H32 UNL     1      79.185  22.503  41.010  1.00  0.00     0.157 HD
ATOM     17  H31 UNL     1      80.768  23.236  40.600  1.00  0.00     0.157 HD
ENDBRANCH   1  15
BRANCH   1  18
HETATM   18  N4  UNL     1      78.881  25.214  41.881  1.00  0.00    -0.370 N
ATOM     19  H4  UNL     1      79.547  25.265  42.652  1.00  0.00     0.161 HD
BRANCH  18  20
HETATM   20  C7  UNL     1      77.622  25.848  42.043  1.00  0.00     0.166 C
BRANCH  20  21
HETATM   21  C8  UNL     1      77.299  26.353  43.396  1.00  0.00     0.147 C
HETATM   22  F1  UNL     1      77.376  27.757  43.465  1.00  0.00    -0.239 F
HETATM   23  C9  UNL     1      78.474  25.918  44.323  1.00  0.00     0.077 C
HETATM   24  C10 UNL     1      77.866  25.949  45.662  1.00  0.00     0.275 C
HETATM   25  N5  UNL     1      76.452  25.903  45.525  1.00  0.00     0.087 N
HETATM   26  C11 UNL     1      75.809  27.086  46.109  1.00  0.00     0.310 C
HETATM   27  C12 UNL     1      76.116  25.894  44.108  1.00  0.00     0.317 C
ENDBRANCH  20  21
ENDBRANCH  18  20
ENDBRANCH   1  18
TORSDOF 8
ENDMDL