MODEL 4
REMARK VINA RESULT: 1.287228646      2.679      5.404
REMARK  3 active torsions:
REMARK  status: ('A' for Active; 'I' for Inactive)
REMARK    1  A    between atoms: C2_2  and  C3_3
REMARK       I    between atoms: C3_3  and  N1_5
REMARK    2  A    between atoms: N1_5  and  C4_7
REMARK    3  A    between atoms: C10_19  and  N4_20
REMARK       I    between atoms: N4_20  and  C11_22
ROOT
HETATM    1  C4  UNL     1      77.687  26.836  41.013  1.00  0.00     0.106 C
HETATM    2  N2  UNL     1      77.137  27.697  41.763  1.00  0.00    -0.368 N
HETATM    3  C5  UNL     1      77.327  27.721  43.178  1.00  0.00     0.151 C
HETATM    4  C6  UNL     1      76.229  28.788  41.292  1.00  0.00     0.200 C
HETATM    5  C7  UNL     1      77.109  29.856  40.741  1.00  0.00     0.307 C
HETATM    6  F1  UNL     1      78.257  29.908  41.504  1.00  0.00    -0.207 F
HETATM    7  C8  UNL     1      76.468  31.186  40.777  1.00  0.00     0.122 C
HETATM    8  N3  UNL     1      75.971  32.238  40.795  1.00  0.00    -0.193 NA
HETATM    9  S1  UNL     1      77.579  29.562  39.056  1.00  0.00     0.200 S
HETATM   10  O2  UNL     1      76.419  29.814  38.136  1.00  0.00    -0.223 OA
HETATM   11  O3  UNL     1      78.694  30.527  38.734  1.00  0.00    -0.223 OA
HETATM   12  C9  UNL     1      78.202  27.931  38.817  1.00  0.00     0.178 C
HETATM   13  C10 UNL     1      77.442  26.867  39.505  1.00  0.00     0.167 C
ENDROOT
BRANCH   1  14
HETATM   14  N1  UNL     1      78.511  25.854  41.477  1.00  0.00    -0.311 N
HETATM   15  C3  UNL     1      78.642  24.715  42.259  1.00  0.00     0.245 C
HETATM   16  O1  UNL     1      77.868  24.051  42.970  1.00  0.00    -0.268 OA
ATOM     17  H1  UNL     1      79.429  26.034  41.074  1.00  0.00     0.170 HD
BRANCH  15  18
HETATM   18  C2  UNL     1      80.056  24.124  42.267  1.00  0.00     0.064 C
HETATM   19  C1  UNL     1      80.256  22.897  41.855  1.00  0.00     0.017 C
ENDBRANCH  15  18
ENDBRANCH   1  14
BRANCH  13  20
HETATM   20  N4  UNL     1      77.712  25.608  38.887  1.00  0.00    -0.333 N
HETATM   21  C11 UNL     1      79.010  25.180  38.516  1.00  0.00     0.329 C
HETATM   22  N5  UNL     1      79.183  23.916  37.909  1.00  0.00    -0.040 NA
HETATM   23  O4  UNL     1      80.005  25.924  38.727  1.00  0.00    -0.251 OA
ATOM     24  H4  UNL     1      76.927  24.983  38.702  1.00  0.00     0.164 HD
ENDBRANCH  13  20
TORSDOF 3
ENDMDL