MODEL 1
REMARK VINA RESULT: -4.079346938      0.000      0.000
REMARK  7 active torsions:
REMARK  status: ('A' for Active; 'I' for Inactive)
REMARK    1  A    between atoms: C2_2  and  N1_3
REMARK    2  A    between atoms: C2_2  and  C10_21
REMARK    3  A    between atoms: N1_3  and  C3_5
REMARK    4  A    between atoms: C3_5  and  N2_7
REMARK    5  A    between atoms: N2_7  and  N3_9
REMARK    6  A    between atoms: N3_9  and  N4_10
REMARK    7  A    between atoms: N3_9  and  C4_13
REMARK       I    between atoms: C10_21  and  N6_23
ROOT
HETATM    1  N2  UNL     1      78.236  27.448  38.836  1.00  0.00    -0.276 N
ATOM      2  H2  UNL     1      79.059  28.014  38.633  1.00  0.00     0.185 HD
ENDROOT
BRANCH   1   3
HETATM    3  C3  UNL     1      78.364  26.098  39.249  1.00  0.00     0.184 C
HETATM    4  S1  UNL     1      79.258  25.040  38.378  1.00  0.00    -0.040 SA
BRANCH   3   5
HETATM    5  N1  UNL     1      77.721  25.619  40.438  1.00  0.00    -0.353 N
ATOM      6  H1  UNL     1      76.750  25.310  40.389  1.00  0.00     0.162 HD
BRANCH   5   7
HETATM    7  C2  UNL     1      78.418  25.565  41.699  1.00  0.00     0.172 C
HETATM    8  C1  UNL     1      79.323  24.352  41.771  1.00  0.00     0.042 C
BRANCH   7   9
HETATM    9  C10 UNL     1      77.434  25.617  42.795  1.00  0.00     0.241 C
HETATM   10  O1  UNL     1      76.924  24.524  43.184  1.00  0.00    -0.271 OA
HETATM   11  N6  UNL     1      77.024  26.794  43.435  1.00  0.00    -0.359 N
HETATM   12  C11 UNL     1      76.058  26.748  44.509  1.00  0.00     0.152 C
HETATM   13  C12 UNL     1      77.548  28.065  43.032  1.00  0.00     0.152 C
ENDBRANCH   7   9
ENDBRANCH   5   7
ENDBRANCH   3   5
ENDBRANCH   1   3
BRANCH   1  14
HETATM   14  N3  UNL     1      76.951  27.981  38.715  1.00  0.00    -0.112 NA
BRANCH  14  15
HETATM   15  N4  UNL     1      76.738  28.559  37.486  1.00  0.00    -0.344 NA
ATOM     16  H42 UNL     1      76.923  27.887  36.741  1.00  0.00     0.172 HD
ATOM     17  H41 UNL     1      75.785  28.906  37.381  1.00  0.00     0.172 HD
ENDBRANCH  14  15
BRANCH  14  18
HETATM   18  C4  UNL     1      76.756  28.945  39.761  1.00  0.00     0.307 C
HETATM   19  C5  UNL     1      75.567  29.859  39.470  1.00  0.00     0.091 C
HETATM   20  C6  UNL     1      75.797  30.925  40.549  1.00  0.00     0.199 C
HETATM   21  F1  UNL     1      75.508  30.311  41.759  1.00  0.00    -0.248 F
HETATM   22  C7  UNL     1      77.286  31.100  40.468  1.00  0.00     0.275 C
HETATM   23  N5  UNL     1      77.829  29.906  39.857  1.00  0.00    -0.052 N
HETATM   24  C8  UNL     1      78.410  30.259  38.599  1.00  0.00     0.274 C
HETATM   25  C9  UNL     1      78.902  29.424  40.735  1.00  0.00     0.274 C
ENDBRANCH  14  18
ENDBRANCH   1  14
TORSDOF 7
ENDMDL