MODEL 1
REMARK VINA RESULT: -2.910115155      0.000      0.000
REMARK  4 active torsions:
REMARK  status: ('A' for Active; 'I' for Inactive)
REMARK    1  A    between atoms: C1_2  and  C2_4
REMARK    2  A    between atoms: C4_6  and  C5_7
REMARK       I    between atoms: N2_10  and  C6_11
REMARK       I    between atoms: C6_11  and  N3_13
REMARK    3  A    between atoms: N3_13  and  C7_15
REMARK    4  A    between atoms: C11_20  and  C12_21
ROOT
HETATM    1  C2  UNL     1      78.505  24.567  41.270  1.00  0.00     0.109 C
HETATM    2  C3  UNL     1      77.370  24.840  42.195  1.00  0.00     0.052 C
HETATM    3  C4  UNL     1      77.171  26.312  42.193  1.00  0.00     0.191 C
HETATM    4  N2  UNL     1      78.019  26.872  41.167  1.00  0.00    -0.305 N
HETATM    5  C6  UNL     1      77.964  28.253  40.817  1.00  0.00     0.320 C
HETATM    6  O4  UNL     1      78.763  28.674  39.953  1.00  0.00    -0.247 OA
HETATM    7  N3  UNL     1      77.053  29.166  41.397  1.00  0.00    -0.338 N
ATOM      8  H3  UNL     1      76.392  28.839  42.101  1.00  0.00     0.164 HD
HETATM    9  C11 UNL     1      78.858  25.849  40.594  1.00  0.00     0.192 C
ENDROOT
BRANCH   3  10
HETATM   10  C5  UNL     1      77.449  26.931  43.516  1.00  0.00     0.197 C
HETATM   11  O2  UNL     1      78.473  26.630  44.158  1.00  0.00    -0.646 OA
HETATM   12  O3  UNL     1      76.563  27.845  44.039  1.00  0.00    -0.646 OA
ENDBRANCH   3  10
BRANCH   9  13
HETATM   13  C12 UNL     1      78.670  25.734  39.125  1.00  0.00     0.255 C
HETATM   14  N4  UNL     1      79.778  25.798  38.248  1.00  0.00    -0.060 NA
HETATM   15  O5  UNL     1      77.524  25.578  38.665  1.00  0.00    -0.275 OA
ENDBRANCH   9  13
BRANCH   7  16
HETATM   16  C7  UNL     1      77.047  30.573  40.999  1.00  0.00     0.089 C
HETATM   17  C8  UNL     1      75.657  31.149  41.147  1.00  0.00     0.045 C
HETATM   18  C9  UNL     1      75.394  30.629  39.750  1.00  0.00     0.086 C
HETATM   19 CL1  UNL     1      74.348  31.651  38.764  1.00  0.00    -0.125 Cl
HETATM   20  C10 UNL     1      76.879  30.801  39.513  1.00  0.00     0.045 C
ENDBRANCH   7  16
BRANCH   1  21
HETATM   21  C1  UNL     1      79.620  23.964  42.037  1.00  0.00     0.237 C
HETATM   22  N1  UNL     1      80.091  22.662  41.763  1.00  0.00    -0.062 NA
HETATM   23  O1  UNL     1      80.162  24.623  42.952  1.00  0.00    -0.276 OA
ENDBRANCH   1  21
TORSDOF 4
ENDMDL