MODEL 1
REMARK VINA RESULT: -4.857380053      0.000      0.000
REMARK  5 active torsions:
REMARK  status: ('A' for Active; 'I' for Inactive)
REMARK    1  A    between atoms: C2_5  and  N2_6
REMARK    2  A    between atoms: N2_6  and  S1_8
REMARK    3  A    between atoms: S1_8  and  N3_9
REMARK    4  A    between atoms: S1_8  and  N4_13
REMARK    5  A    between atoms: N5_26  and  O3_27
ROOT
HETATM    1  N1  UNL     1      79.292  24.565  39.160  1.00  0.00    -0.382 N
ATOM      2  H11 UNL     1      79.872  23.736  39.032  1.00  0.00     0.157 HD
ATOM      3  H12 UNL     1      79.160  24.949  38.224  1.00  0.00     0.157 HD
HETATM    4  C1  UNL     1      78.811  25.045  40.279  1.00  0.00     0.155 A
HETATM    5  C2  UNL     1      77.979  26.235  40.462  1.00  0.00     0.100 A
HETATM    6  C7  UNL     1      77.743  26.316  41.762  1.00  0.00     0.027 A
HETATM    7  C8  UNL     1      77.028  27.216  42.527  1.00  0.00     0.058 A
HETATM    8  C9  UNL     1      76.914  27.104  43.900  1.00  0.00     0.117 A
HETATM    9  F1  UNL     1      76.211  27.986  44.650  1.00  0.00    -0.206 F
HETATM   10  C10 UNL     1      77.545  26.050  44.507  1.00  0.00     0.044 A
HETATM   11  C11 UNL     1      78.266  25.133  43.793  1.00  0.00     0.036 A
HETATM   12  C12 UNL     1      78.367  25.268  42.403  1.00  0.00     0.077 A
HETATM   13  N5  UNL     1      78.995  24.509  41.583  1.00  0.00    -0.205 N
ENDROOT
BRANCH   5  14
HETATM   14  N2  UNL     1      77.533  27.103  39.425  1.00  0.00    -0.284 N
ATOM     15  H2  UNL     1      76.639  26.940  38.962  1.00  0.00     0.178 HD
BRANCH  14  16
HETATM   16  S1  UNL     1      78.516  28.420  38.969  1.00  0.00     0.176 S
HETATM   17  O1  UNL     1      79.969  28.183  39.286  1.00  0.00    -0.211 OA
BRANCH  16  18
HETATM   18  N3  UNL     1      78.422  28.617  37.431  1.00  0.00    -0.332 N
ATOM     19  H32 UNL     1      77.585  28.443  36.874  1.00  0.00     0.168 HD
ATOM     20  H31 UNL     1      79.322  28.944  37.080  1.00  0.00     0.168 HD
ENDBRANCH  16  18
BRANCH  16  21
HETATM   21  N4  UNL     1      78.065  29.895  39.727  1.00  0.00    -0.207 NA
HETATM   22  C3  UNL     1      77.692  29.748  41.099  1.00  0.00     0.133 C
HETATM   23  C4  UNL     1      76.731  30.866  41.462  1.00  0.00     0.183 C
HETATM   24  O2  UNL     1      75.555  30.796  40.748  1.00  0.00    -0.389 OA
HETATM   25  C5  UNL     1      75.727  30.265  39.473  1.00  0.00     0.183 C
HETATM   26  C6  UNL     1      77.114  30.653  38.943  1.00  0.00     0.133 C
ENDBRANCH  16  21
ENDBRANCH  14  16
ENDBRANCH   5  14
BRANCH  13  27
HETATM   27  O3  UNL     1      79.732  23.367  41.858  1.00  0.00    -0.281 OA
ATOM     28  H3  UNL     1      79.559  22.783  42.587  1.00  0.00     0.245 HD
ENDBRANCH  13  27
TORSDOF 5
ENDMDL