MODEL 3
REMARK VINA RESULT: 1.823777213      1.842      2.320
REMARK  4 active torsions:
REMARK  status: ('A' for Active; 'I' for Inactive)
REMARK       I    between atoms: C1_4  and  N3_6
REMARK       I    between atoms: N4_10  and  C4_11
REMARK    1  A    between atoms: C4_11  and  C5_13
REMARK    2  A    between atoms: C11_19  and  C12_20
REMARK       I    between atoms: C12_20  and  N5_22
REMARK    3  A    between atoms: N5_22  and  N6_23
REMARK    4  A    between atoms: N5_22  and  C13_26
ROOT
HETATM    1  N1  UNL     1      76.577  32.039  40.593  1.00  0.00    -0.374 N
ATOM      2  H11 UNL     1      77.380  32.108  41.218  1.00  0.00     0.158 HD
ATOM      3  H12 UNL     1      76.133  32.856  40.173  1.00  0.00     0.158 HD
HETATM    4  C1  UNL     1      76.125  30.854  40.325  1.00  0.00     0.184 C
HETATM    5  N2  UNL     1      75.006  30.759  39.454  1.00  0.00    -0.064 NA
HETATM    6  N3  UNL     1      76.736  29.731  40.903  1.00  0.00    -0.336 N
HETATM    7  C2  UNL     1      76.340  29.497  42.303  1.00  0.00     0.185 C
HETATM    8  C3  UNL     1      76.956  28.259  42.895  1.00  0.00     0.292 C
HETATM    9  F1  UNL     1      76.188  27.949  44.005  1.00  0.00    -0.225 F
HETATM   10  N4  UNL     1      77.122  27.171  41.983  1.00  0.00    -0.317 N
HETATM   11  C4  UNL     1      77.373  25.869  42.450  1.00  0.00     0.226 C
HETATM   12  O1  UNL     1      77.503  24.916  41.577  1.00  0.00    -0.273 OA
HETATM   13  C10 UNL     1      77.035  27.450  40.557  1.00  0.00     0.164 C
HETATM   14  C11 UNL     1      77.656  28.793  40.361  1.00  0.00     0.199 C
ENDROOT
BRANCH  14  15
HETATM   15  C12 UNL     1      78.174  29.138  39.080  1.00  0.00     0.269 C
HETATM   16  O2  UNL     1      78.186  30.355  38.786  1.00  0.00    -0.269 OA
HETATM   17  N5  UNL     1      78.687  28.265  38.085  1.00  0.00    -0.203 N
BRANCH  17  18
HETATM   18  N6  UNL     1      78.753  26.875  38.237  1.00  0.00    -0.334 N
ATOM     19  H62 UNL     1      79.645  26.525  38.588  1.00  0.00     0.177 HD
ATOM     20  H61 UNL     1      77.979  26.247  38.019  1.00  0.00     0.177 HD
ENDBRANCH  17  18
BRANCH  17  21
HETATM   21  C13 UNL     1      79.173  28.750  36.847  1.00  0.00     0.378 C
HETATM   22  O3  UNL     1      80.316  28.334  36.459  1.00  0.00    -0.281 OA
ENDBRANCH  17  21
ENDBRANCH  14  15
BRANCH  11  23
HETATM   23  C5  UNL     1      77.509  25.453  43.840  1.00  0.00     0.078 C
HETATM   24  C6  UNL     1      78.794  26.046  44.467  1.00  0.00     0.014 C
HETATM   25  C7  UNL     1      78.563  25.838  45.928  1.00  0.00     0.001 C
HETATM   26  C8  UNL     1      77.098  25.616  46.137  1.00  0.00     0.001 C
HETATM   27  C9  UNL     1      76.492  26.033  44.787  1.00  0.00     0.014 C
ENDBRANCH  11  23
TORSDOF 4
ENDMDL