MODEL 2
REMARK VINA RESULT: -2.238467354      1.546      2.928
REMARK  6 active torsions:
REMARK  status: ('A' for Active; 'I' for Inactive)
REMARK    1  A    between atoms: C2_2  and  C3_3
REMARK    2  A    between atoms: C3_3  and  N1_5
REMARK    3  A    between atoms: N1_5  and  C4_6
REMARK    4  A    between atoms: C8_12  and  N4_13
REMARK    5  A    between atoms: C12_17  and  O1_18
REMARK    6  A    between atoms: C13_20  and  O2_21
ROOT
HETATM    1  N1  UNL     1      77.809  28.650  40.033  1.00  0.00     0.002 N
HETATM    2  C11 UNL     1      76.996  27.795  39.158  1.00  0.00     0.281 C
HETATM    3  C12 UNL     1      77.403  28.125  37.730  1.00  0.00     0.175 C
HETATM    4  C13 UNL     1      78.705  28.835  37.823  1.00  0.00     0.179 C
HETATM    5  C14 UNL     1      79.054  28.634  39.283  1.00  0.00     0.226 C
HETATM    6  C15 UNL     1      79.840  27.372  39.362  1.00  0.00     0.044 C
ENDROOT
BRANCH   1   7
HETATM    7  C3  UNL     1      77.282  29.944  39.960  1.00  0.00     0.264 C
HETATM    8  F1  UNL     1      77.973  30.885  39.229  1.00  0.00    -0.183 F
BRANCH   7   9
HETATM    9  C2  UNL     1      75.829  30.183  39.834  1.00  0.00     0.093 C
HETATM   10  C1  UNL     1      75.399  31.494  40.509  1.00  0.00     0.014 C
ENDBRANCH   7   9
ENDBRANCH   1   7
BRANCH   1  11
HETATM   11  C4  UNL     1      77.965  27.983  41.245  1.00  0.00     0.262 C
HETATM   12  C5  UNL     1      77.212  28.514  42.436  1.00  0.00     0.146 C
HETATM   13  N2  UNL     1      77.649  27.566  43.472  1.00  0.00    -0.244 NA
HETATM   14  C6  UNL     1      76.554  26.871  44.144  1.00  0.00     0.124 A
HETATM   15  N3  UNL     1      77.956  26.384  42.858  1.00  0.00    -0.214 NA
HETATM   16  C7  UNL     1      76.968  25.565  43.531  1.00  0.00     0.126 A
HETATM   17  C8  UNL     1      77.737  26.537  41.407  1.00  0.00     0.344 C
BRANCH  17  18
HETATM   18  N4  UNL     1      78.533  25.626  40.684  1.00  0.00     0.101 N
HETATM   19  C9  UNL     1      77.920  25.098  39.465  1.00  0.00     0.311 C
HETATM   20  C10 UNL     1      79.092  24.515  41.386  1.00  0.00     0.311 C
ENDBRANCH  17  18
ENDBRANCH   1  11
BRANCH   3  21
HETATM   21  O1  UNL     1      76.416  28.772  37.011  1.00  0.00    -0.391 OA
ATOM     22  H1  UNL     1      76.428  28.570  36.083  1.00  0.00     0.210 HD
ENDBRANCH   3  21
BRANCH   4  23
HETATM   23  O2  UNL     1      79.699  28.239  37.021  1.00  0.00    -0.391 OA
ATOM     24  H2  UNL     1      80.556  28.261  37.430  1.00  0.00     0.210 HD
ENDBRANCH   4  23
TORSDOF 6
ENDMDL