MODEL 2
REMARK VINA RESULT: -1.074657143      2.013      3.684
REMARK  4 active torsions:
REMARK  status: ('A' for Active; 'I' for Inactive)
REMARK       I    between atoms: C1_2  and  N2_4
REMARK    1  A    between atoms: C5_10  and  C6_11
REMARK       I    between atoms: C6_11  and  N3_13
REMARK    2  A    between atoms: C9_16  and  N4_17
REMARK    3  A    between atoms: N4_17  and  S1_19
REMARK    4  A    between atoms: S1_19  and  N5_20
ROOT
HETATM    1  C6  UNL     1      78.341  25.546  42.342  1.00  0.00     0.248 C
HETATM    2  O2  UNL     1      79.432  25.154  42.836  1.00  0.00    -0.271 OA
HETATM    3  N3  UNL     1      78.236  25.336  40.938  1.00  0.00    -0.348 N
HETATM    4  C7  UNL     1      79.286  24.702  40.132  1.00  0.00     0.128 C
HETATM    5  C8  UNL     1      79.065  25.104  38.719  1.00  0.00     0.047 C
HETATM    6  C9  UNL     1      78.018  26.166  38.795  1.00  0.00     0.114 C
HETATM    7  C10 UNL     1      77.189  25.666  39.995  1.00  0.00     0.151 C
ENDROOT
BRANCH   1   8
HETATM    8  C5  UNL     1      77.243  26.163  43.036  1.00  0.00     0.253 C
HETATM    9  N2  UNL     1      76.908  27.527  42.846  1.00  0.00    -0.317 N
HETATM   10  C1  UNL     1      77.433  28.663  42.235  1.00  0.00     0.331 C
HETATM   11  C2  UNL     1      75.620  27.581  43.557  1.00  0.00     0.134 C
HETATM   12  N1  UNL     1      76.761  29.948  42.255  1.00  0.00    -0.040 NA
HETATM   13  O1  UNL     1      78.515  28.772  41.597  1.00  0.00    -0.251 OA
HETATM   14  C3  UNL     1      76.075  26.974  44.883  1.00  0.00     0.101 C
HETATM   15  C4  UNL     1      77.369  26.203  44.549  1.00  0.00     0.274 C
HETATM   16  F1  UNL     1      78.425  26.992  44.920  1.00  0.00    -0.203 F
HETATM   17  F2  UNL     1      77.277  25.027  45.190  1.00  0.00    -0.203 F
ENDBRANCH   1   8
BRANCH   6  18
HETATM   18  N4  UNL     1      78.615  27.399  39.199  1.00  0.00    -0.297 N
ATOM     19  H4  UNL     1      79.314  27.461  39.939  1.00  0.00     0.174 HD
BRANCH  18  20
HETATM   20  S1  UNL     1      78.055  28.762  38.332  1.00  0.00     0.313 S
HETATM   21  O3  UNL     1      76.656  28.605  37.838  1.00  0.00    -0.183 OA
HETATM   22  O4  UNL     1      78.937  28.911  37.101  1.00  0.00    -0.183 OA
BRANCH  20  23
HETATM   23  N5  UNL     1      78.172  30.223  39.212  1.00  0.00    -0.312 N
ATOM     24  H52 UNL     1      78.046  30.265  40.224  1.00  0.00     0.170 HD
ATOM     25  H51 UNL     1      78.377  31.034  38.628  1.00  0.00     0.170 HD
ENDBRANCH  20  23
ENDBRANCH  18  20
ENDBRANCH   6  18
TORSDOF 4
ENDMDL