MODEL 1
REMARK VINA RESULT: -0.658583682      0.000      0.000
REMARK  5 active torsions:
REMARK  status: ('A' for Active; 'I' for Inactive)
REMARK       I    between atoms: C2_5  and  N4_7
REMARK    1  A    between atoms: N5_10  and  C5_11
REMARK    2  A    between atoms: C5_11  and  O1_12
REMARK    3  A    between atoms: C5_11  and  C6_14
REMARK    4  A    between atoms: C6_14  and  C7_15
REMARK    5  A    between atoms: C11_22  and  C12_23
ROOT
HETATM    1  N1  UNL     1      73.744  29.880  38.292  1.00  0.00    -0.172 NA
HETATM    2  C1  UNL     1      74.537  30.417  38.965  1.00  0.00     0.184 C
HETATM    3  N2  UNL     1      75.421  31.061  39.736  1.00  0.00    -0.267 N
ATOM      4  H2  UNL     1      75.171  32.034  39.915  1.00  0.00     0.180 HD
HETATM    5  C2  UNL     1      76.484  30.715  40.277  1.00  0.00     0.200 C
HETATM    6  N3  UNL     1      77.127  31.789  41.046  1.00  0.00    -0.063 NA
HETATM    7  N4  UNL     1      77.154  29.491  40.282  1.00  0.00    -0.339 N
HETATM    8  C3  UNL     1      78.025  29.209  41.442  1.00  0.00     0.146 C
HETATM    9  C4  UNL     1      77.285  28.159  42.218  1.00  0.00     0.144 C
HETATM   10  N5  UNL     1      77.155  26.990  41.329  1.00  0.00    -0.360 N
HETATM   11  C10 UNL     1      76.922  27.068  39.924  1.00  0.00     0.159 C
HETATM   12  C11 UNL     1      77.111  28.443  39.312  1.00  0.00     0.194 C
ENDROOT
BRANCH  12  13
HETATM   13  C12 UNL     1      78.437  28.453  38.601  1.00  0.00     0.255 C
HETATM   14  N7  UNL     1      79.555  27.653  39.020  1.00  0.00    -0.060 NA
HETATM   15  O3  UNL     1      78.647  29.176  37.575  1.00  0.00    -0.275 OA
ENDBRANCH  12  13
BRANCH  10  16
HETATM   16  C5  UNL     1      77.451  25.748  41.928  1.00  0.00     0.134 C
BRANCH  16  17
HETATM   17  O1  UNL     1      76.480  24.878  42.027  1.00  0.00    -0.348 OA
ATOM     18  H1  UNL     1      76.515  24.261  42.749  1.00  0.00     0.219 HD
ENDBRANCH  16  17
BRANCH  16  19
HETATM   19  C6  UNL     1      78.713  25.253  42.493  1.00  0.00     0.136 A
HETATM   20  C8  UNL     1      79.670  26.273  43.057  1.00  0.00     0.069 A
HETATM   21  C9  UNL     1      78.874  25.382  43.999  1.00  0.00     0.197 A
HETATM   22  F1  UNL     1      77.911  26.046  44.732  1.00  0.00    -0.248 F
BRANCH  19  23
HETATM   23  C7  UNL     1      79.424  24.162  41.790  1.00  0.00     0.251 C
HETATM   24  N6  UNL     1      79.551  24.191  40.395  1.00  0.00    -0.061 NA
HETATM   25  O2  UNL     1      79.930  23.176  42.416  1.00  0.00    -0.275 OA
ENDBRANCH  19  23
ENDBRANCH  16  19
ENDBRANCH  10  16
TORSDOF 5
ENDMDL