MODEL 5
REMARK VINA RESULT: -0.929195279      1.589      3.413
REMARK  6 active torsions:
REMARK  status: ('A' for Active; 'I' for Inactive)
REMARK    1  A    between atoms: N1_1  and  C1_5
REMARK    2  A    between atoms: C1_5  and  C2_6
REMARK       I    between atoms: C2_6  and  N2_8
REMARK    3  A    between atoms: N2_8  and  C3_9
REMARK    4  A    between atoms: C3_9  and  C4_10
REMARK    5  A    between atoms: C4_10  and  N3_11
REMARK    6  A    between atoms: C10_19  and  O3_20
ROOT
HETATM    1  N3  UNL     1      77.755  28.280  41.034  1.00  0.00    -0.048 N
HETATM    2  C5  UNL     1      76.374  28.431  40.929  1.00  0.00     0.248 C
HETATM    3  C6  UNL     1      75.842  29.745  40.470  1.00  0.00     0.068 C
HETATM    4  C7  UNL     1      76.059  30.907  41.394  1.00  0.00     0.177 C
HETATM    5  O2  UNL     1      77.009  31.488  40.560  1.00  0.00    -0.381 OA
HETATM    6  C8  UNL     1      76.687  30.547  39.580  1.00  0.00     0.173 C
HETATM    7  C9  UNL     1      77.840  29.733  39.085  1.00  0.00     0.184 C
HETATM    8  F1  UNL     1      78.646  30.641  38.377  1.00  0.00    -0.235 F
HETATM    9  C10 UNL     1      77.342  28.617  38.227  1.00  0.00     0.168 C
HETATM   10  C11 UNL     1      77.675  27.252  38.776  1.00  0.00     0.049 C
HETATM   11  C12 UNL     1      78.915  26.814  37.964  1.00  0.00     0.010 C
HETATM   12  C13 UNL     1      79.931  27.784  38.574  1.00  0.00     0.009 C
HETATM   13  C14 UNL     1      79.504  28.057  39.970  1.00  0.00     0.052 C
HETATM   14  C15 UNL     1      78.269  27.244  40.147  1.00  0.00     0.204 C
HETATM   15  C16 UNL     1      78.575  29.183  40.236  1.00  0.00     0.242 C
ENDROOT
BRANCH   1  16
HETATM   16  C4  UNL     1      78.311  28.180  42.344  1.00  0.00     0.298 C
BRANCH  16  17
HETATM   17  C3  UNL     1      78.173  26.839  43.064  1.00  0.00     0.187 C
BRANCH  17  18
HETATM   18  N2  UNL     1      77.082  26.945  43.930  1.00  0.00    -0.385 NA
HETATM   19  C2  UNL     1      76.037  27.046  44.760  1.00  0.00     0.316 C
HETATM   20  O1  UNL     1      74.982  27.730  44.666  1.00  0.00    -0.255 OA
BRANCH  19  21
HETATM   21  C1  UNL     1      76.084  26.213  46.055  1.00  0.00     0.348 C
BRANCH  21  22
HETATM   22  N1  UNL     1      77.289  25.450  46.139  1.00  0.00    -0.070 N
ATOM     23  H13 UNL     1      77.518  25.013  45.247  1.00  0.00     0.274 HD
ATOM     24  H12 UNL     1      78.107  26.050  46.233  1.00  0.00     0.274 HD
ATOM     25  H11 UNL     1      77.241  24.762  46.890  1.00  0.00     0.274 HD
ENDBRANCH  21  22
ENDBRANCH  19  21
ENDBRANCH  17  18
ENDBRANCH  16  17
ENDBRANCH   1  16
BRANCH   9  26
HETATM   26  O3  UNL     1      77.873  28.816  36.939  1.00  0.00    -0.392 OA
ATOM     27  H3  UNL     1      77.409  29.551  36.556  1.00  0.00     0.210 HD
ENDBRANCH   9  26
TORSDOF 6
ENDMDL