MODEL 4
REMARK VINA RESULT: -9.860536380      4.615      8.787
REMARK  6 active torsions:
REMARK  status: ('A' for Active; 'I' for Inactive)
REMARK    1  A    between atoms: S1_2  and  C1_4
REMARK    2  A    between atoms: S1_2  and  N3_24
REMARK    3  A    between atoms: C4_9  and  C5_10
REMARK    4  A    between atoms: C5_10  and  N2_11
REMARK    5  A    between atoms: N2_11  and  C6_13
REMARK    6  A    between atoms: N4_27  and  C19_28
ROOT
HETATM    1  C1  UNL     1      19.459 132.218  -0.352  1.00  0.00     0.095 A
HETATM    2  C2  UNL     1      20.469 133.104  -0.120  1.00  0.00     0.112 A
HETATM    3  N1  UNL     1      20.224 134.440  -0.257  1.00  0.00    -0.373 N
ATOM      4  H1  UNL     1      20.974 135.110  -0.086  1.00  0.00     0.164 HD
HETATM    5  C3  UNL     1      19.004 134.883  -0.613  1.00  0.00     0.100 A
HETATM    6  C4  UNL     1      17.955 134.011  -0.854  1.00  0.00    -0.004 A
HETATM    7  C16 UNL     1      18.187 132.683  -0.723  1.00  0.00     0.040 A
ENDROOT
BRANCH   1   8
HETATM    8  S1  UNL     1      19.693 130.493  -0.149  1.00  0.00     0.262 S
HETATM    9  O1  UNL     1      19.027 130.098   1.186  1.00  0.00    -0.200 OA
HETATM   10  O2  UNL     1      21.203 130.339   0.114  1.00  0.00    -0.200 OA
BRANCH   8  11
HETATM   11  N3  UNL     1      19.150 129.521  -1.381  1.00  0.00    -0.304 N
HETATM   12  C17 UNL     1      17.929 128.870  -1.214  1.00  0.00     0.154 C
HETATM   13  C18 UNL     1      16.897 129.654  -2.062  1.00  0.00     0.137 C
HETATM   14  N4  UNL     1      17.347 129.688  -3.403  1.00  0.00    -0.405 N
HETATM   15  C25 UNL     1      18.596 129.098  -3.711  1.00  0.00     0.137 C
HETATM   16  C26 UNL     1      19.608 129.684  -2.695  1.00  0.00     0.154 C
BRANCH  14  17
HETATM   17  C19 UNL     1      16.289 129.505  -4.332  1.00  0.00     0.079 C
HETATM   18  C20 UNL     1      15.126 130.451  -4.123  1.00  0.00     0.025 C
HETATM   19  C21 UNL     1      14.099 130.163  -5.193  1.00  0.00     0.002 C
HETATM   20  C22 UNL     1      13.549 128.775  -4.953  1.00  0.00     0.000 C
HETATM   21  C23 UNL     1      14.641 127.766  -5.094  1.00  0.00     0.002 C
HETATM   22  C24 UNL     1      15.858 128.065  -4.283  1.00  0.00     0.025 C
ENDBRANCH  14  17
ENDBRANCH   8  11
ENDBRANCH   1   8
BRANCH   6  23
HETATM   23  C5  UNL     1      16.618 134.532  -1.199  1.00  0.00     0.096 C
BRANCH  23  24
HETATM   24  N2  UNL     1      15.943 133.724  -2.110  1.00  0.00    -0.389 N
ATOM     25  H2  UNL     1      15.913 132.714  -1.979  1.00  0.00     0.159 HD
BRANCH  24  26
HETATM   26  C6  UNL     1      15.300 134.318  -3.221  1.00  0.00     0.030 C
HETATM   27  C7  UNL     1      15.084 135.812  -3.115  1.00  0.00     0.035 C
HETATM   28  C8  UNL     1      14.509 136.330  -4.399  1.00  0.00    -0.012 C
HETATM   29  C9  UNL     1      15.328 136.027  -5.613  1.00  0.00     0.009 C
HETATM   30  C13 UNL     1      13.096 135.762  -4.530  1.00  0.00     0.009 C
HETATM   31  C10 UNL     1      15.454 134.526  -5.721  1.00  0.00    -0.012 C
HETATM   32  C11 UNL     1      14.095 133.857  -5.805  1.00  0.00     0.009 C
HETATM   33  C15 UNL     1      16.120 134.048  -4.461  1.00  0.00     0.035 C
HETATM   34  C12 UNL     1      13.248 134.277  -4.625  1.00  0.00    -0.012 C
HETATM   35  C14 UNL     1      13.879 133.743  -3.369  1.00  0.00     0.035 C
ENDBRANCH  24  26
ENDBRANCH  23  24
ENDBRANCH   6  23
TORSDOF 6
ENDMDL