MODEL 5
REMARK VINA RESULT: -9.024671790      2.425      9.801
REMARK  6 active torsions:
REMARK  status: ('A' for Active; 'I' for Inactive)
REMARK       I    between atoms: C1_2  and  N1_3
REMARK    1  A    between atoms: C1_2  and  C18_26
REMARK    2  A    between atoms: N1_3  and  C2_5
REMARK    3  A    between atoms: N2_8  and  C5_9
REMARK    4  A    between atoms: C5_9  and  C6_10
REMARK    5  A    between atoms: C6_10  and  C7_11
REMARK    6  A    between atoms: C6_10  and  N4_18
ROOT
HETATM    1  C2  UNL     1      19.279 129.475  -2.440  1.00  0.00     0.087 C
HETATM    2  C3  UNL     1      20.559 129.886  -3.151  1.00  0.00     0.055 C
HETATM    3  C4  UNL     1      21.767 129.554  -2.350  1.00  0.00     0.274 C
HETATM    4  N2  UNL     1      21.753 130.040  -0.980  1.00  0.00     0.091 N
HETATM    5  C16 UNL     1      20.460 129.810  -0.359  1.00  0.00     0.274 C
HETATM    6  C17 UNL     1      19.289 130.282  -1.146  1.00  0.00     0.055 C
ENDROOT
BRANCH   1   7
HETATM    7  N1  UNL     1      18.144 129.776  -3.256  1.00  0.00    -0.356 N
HETATM    8  C1  UNL     1      17.003 128.945  -3.242  1.00  0.00     0.226 C
HETATM    9  O1  UNL     1      16.992 127.936  -2.506  1.00  0.00    -0.273 OA
ATOM     10  H1  UNL     1      18.159 130.601  -3.855  1.00  0.00     0.162 HD
BRANCH   8  11
HETATM   11  C18 UNL     1      15.834 129.263  -4.085  1.00  0.00     0.042 C
HETATM   12  C19 UNL     1      16.300 129.978  -5.328  1.00  0.00     0.024 C
HETATM   13  C20 UNL     1      15.253 130.714  -6.075  1.00  0.00    -0.013 C
HETATM   14  C21 UNL     1      14.559 129.888  -7.131  1.00  0.00     0.005 C
HETATM   15  C26 UNL     1      14.205 131.366  -5.219  1.00  0.00     0.009 C
HETATM   16  C22 UNL     1      14.479 128.433  -6.770  1.00  0.00     0.005 C
HETATM   17  C23 UNL     1      14.000 128.171  -5.380  1.00  0.00    -0.013 C
HETATM   18  C24 UNL     1      13.043 129.179  -4.842  1.00  0.00     0.009 C
HETATM   19  C28 UNL     1      15.196 127.952  -4.485  1.00  0.00     0.024 C
HETATM   20  C25 UNL     1      13.671 130.371  -4.206  1.00  0.00    -0.013 C
HETATM   21  C27 UNL     1      14.833 130.033  -3.291  1.00  0.00     0.024 C
ENDBRANCH   8  11
ENDBRANCH   1   7
BRANCH   4  22
HETATM   22  C5  UNL     1      22.182 131.390  -0.886  1.00  0.00     0.313 C
BRANCH  22  23
HETATM   23  C6  UNL     1      23.639 131.660  -0.725  1.00  0.00     0.285 C
BRANCH  23  24
HETATM   24  C7  UNL     1      23.872 131.557   0.767  1.00  0.00    -0.008 A
HETATM   25  C8  UNL     1      24.969 130.869   1.207  1.00  0.00     0.012 A
HETATM   26  C9  UNL     1      25.228 130.744   2.580  1.00  0.00     0.018 A
HETATM   27  C10 UNL     1      24.363 131.323   3.467  1.00  0.00     0.087 A
HETATM   28  N3  UNL     1      23.292 131.996   3.024  1.00  0.00    -0.375 N
HETATM   29  C11 UNL     1      23.032 132.121   1.687  1.00  0.00     0.096 A
ATOM     30  H3  UNL     1      22.656 132.423   3.698  1.00  0.00     0.164 HD
ENDBRANCH  23  24
BRANCH  23  31
HETATM   31  N4  UNL     1      24.015 133.054  -1.017  1.00  0.00     0.103 N
HETATM   32  C12 UNL     1      22.967 133.815  -1.591  1.00  0.00     0.299 C
HETATM   33  C13 UNL     1      23.471 135.123  -2.199  1.00  0.00     0.198 C
HETATM   34  O2  UNL     1      24.294 134.705  -3.273  1.00  0.00    -0.388 OA
HETATM   35  C14 UNL     1      25.449 134.210  -2.681  1.00  0.00     0.198 C
HETATM   36  C15 UNL     1      25.192 132.977  -1.860  1.00  0.00     0.299 C
ENDBRANCH  23  31
ENDBRANCH  22  23
ENDBRANCH   4  22
TORSDOF 6
ENDMDL