MODEL 5
REMARK VINA RESULT: -7.519135678      1.370      1.984
REMARK  9 active torsions:
REMARK  status: ('A' for Active; 'I' for Inactive)
REMARK    1  A    between atoms: C2_2  and  C3_3
REMARK    2  A    between atoms: C13_13  and  O1_14
REMARK    3  A    between atoms: O1_14  and  C14_15
REMARK    4  A    between atoms: C17_19  and  O3_20
REMARK    5  A    between atoms: C22_26  and  C23_27
REMARK    6  A    between atoms: C23_27  and  O5_29
REMARK    7  A    between atoms: O5_29  and  C24_30
REMARK    8  A    between atoms: C24_30  and  C25_31
REMARK    9  A    between atoms: C25_31  and  N1_32
ROOT
HETATM    1  C3  UNL     1      16.952 132.896  -3.830  1.00  0.00    -0.007 C
HETATM    2  C4  UNL     1      18.162 133.050  -4.730  1.00  0.00     0.021 C
HETATM    3  C5  UNL     1      17.473 132.936  -2.437  1.00  0.00     0.017 C
HETATM    4  C6  UNL     1      18.927 132.377  -2.395  1.00  0.00     0.015 C
HETATM    5  C7  UNL     1      17.481 134.108  -1.596  1.00  0.00    -0.014 C
HETATM    6  C8  UNL     1      16.512 135.201  -1.590  1.00  0.00    -0.062 C
HETATM    7  C9  UNL     1      16.894 136.110  -0.692  1.00  0.00     0.019 C
HETATM    8  C10 UNL     1      15.230 135.706  -2.168  1.00  0.00    -0.007 C
HETATM    9  C11 UNL     1      14.491 136.673  -1.265  1.00  0.00     0.021 C
HETATM   10  C12 UNL     1      14.355 134.469  -2.036  1.00  0.00     0.048 C
HETATM   11  C13 UNL     1      14.823 133.477  -3.021  1.00  0.00     0.146 C
HETATM   12  C16 UNL     1      15.807 133.825  -4.088  1.00  0.00     0.037 C
HETATM   13  C17 UNL     1      14.965 133.620  -5.307  1.00  0.00     0.131 C
HETATM   14  C18 UNL     1      13.871 134.671  -5.291  1.00  0.00     0.033 C
HETATM   15  C19 UNL     1      13.989 135.813  -4.381  1.00  0.00     0.014 C
HETATM   16  C20 UNL     1      15.224 136.075  -3.593  1.00  0.00    -0.019 C
HETATM   17  C21 UNL     1      15.669 137.538  -3.753  1.00  0.00     0.017 C
HETATM   18  C22 UNL     1      16.318 135.193  -4.234  1.00  0.00     0.109 C
ENDROOT
BRANCH  18  19
HETATM   19  C23 UNL     1      16.606 135.775  -5.565  1.00  0.00     0.264 C
HETATM   20  O4  UNL     1      17.709 135.655  -6.193  1.00  0.00    -0.265 OA
BRANCH  19  21
HETATM   21  O5  UNL     1      15.818 136.529  -6.385  1.00  0.00    -0.319 OA
BRANCH  21  22
HETATM   22  C24 UNL     1      15.912 136.937  -7.683  1.00  0.00     0.206 C
BRANCH  22  23
HETATM   23  C25 UNL     1      14.967 136.173  -8.573  1.00  0.00     0.262 C
BRANCH  23  24
HETATM   24  N1  UNL     1      14.751 136.876  -9.834  1.00  0.00    -0.077 N
HETATM   25  C26 UNL     1      14.692 138.302  -9.568  1.00  0.00     0.271 C
HETATM   26  C27 UNL     1      13.569 136.415 -10.514  1.00  0.00     0.271 C
HETATM   27  C28 UNL     1      15.890 136.633 -10.666  1.00  0.00     0.271 C
ENDBRANCH  23  24
ENDBRANCH  22  23
ENDBRANCH  21  22
ENDBRANCH  19  21
ENDBRANCH  18  19
BRANCH   1  28
HETATM   28  C2  UNL     1      16.474 131.537  -4.225  1.00  0.00    -0.026 C
HETATM   29  C1  UNL     1      17.064 130.601  -4.878  1.00  0.00     0.008 C
ENDBRANCH   1  28
BRANCH  11  30
HETATM   30  O1  UNL     1      13.605 132.882  -3.450  1.00  0.00    -0.315 OA
BRANCH  30  31
HETATM   31  C14 UNL     1      13.066 131.742  -3.018  1.00  0.00     0.255 C
HETATM   32  C15 UNL     1      13.411 130.384  -3.570  1.00  0.00     0.126 C
HETATM   33  O2  UNL     1      12.215 131.762  -2.094  1.00  0.00    -0.266 OA
ENDBRANCH  30  31
ENDBRANCH  11  30
BRANCH  13  34
HETATM   34  O3  UNL     1      15.596 133.485  -6.511  1.00  0.00    -0.395 OA
ATOM     35  H3  UNL     1      16.167 132.736  -6.637  1.00  0.00     0.210 HD
ENDBRANCH  13  34
TORSDOF 9
ENDMDL