MODEL 3
REMARK VINA RESULT: -8.953184529      4.390      9.013
REMARK  6 active torsions:
REMARK  status: ('A' for Active; 'I' for Inactive)
REMARK    1  A    between atoms: N1_8  and  C7_9
REMARK    2  A    between atoms: C7_9  and  C8_10
REMARK       I    between atoms: C8_10  and  N2_12
REMARK    3  A    between atoms: N2_12  and  C9_13
REMARK    4  A    between atoms: N2_12  and  C15_22
REMARK    5  A    between atoms: C9_13  and  C10_14
REMARK    6  A    between atoms: C24_31  and  C25_32
ROOT
HETATM    1  C8  UNL     1      17.402 133.980  -2.654  1.00  0.00     0.238 C
HETATM    2  O2  UNL     1      18.292 134.863  -2.847  1.00  0.00    -0.272 OA
HETATM    3  N2  UNL     1      16.803 133.303  -3.746  1.00  0.00    -0.345 N
ENDROOT
BRANCH   1   4
HETATM    4  C7  UNL     1      16.965 133.636  -1.272  1.00  0.00     0.236 C
BRANCH   4   5
HETATM    5  N1  UNL     1      16.706 134.832  -0.492  1.00  0.00    -0.294 N
HETATM    6  C6  UNL     1      15.608 135.539  -0.800  1.00  0.00     0.261 A
HETATM    7  C5  UNL     1      15.327 136.680  -0.082  1.00  0.00     0.059 A
HETATM    8  O1  UNL     1      14.815 135.213  -1.718  1.00  0.00    -0.267 OA
HETATM    9  C4  UNL     1      14.218 137.461  -0.338  1.00  0.00     0.020 A
HETATM   10  C28 UNL     1      16.189 137.057   0.936  1.00  0.00     0.049 A
HETATM   11  C3  UNL     1      13.945 138.615   0.398  1.00  0.00     0.008 A
HETATM   12  C2  UNL     1      14.803 138.989   1.409  1.00  0.00    -0.060 A
HETATM   13  C1  UNL     1      14.484 140.220   2.173  1.00  0.00     0.048 C
HETATM   14  C29 UNL     1      15.902 138.202   1.653  1.00  0.00     0.037 A
HETATM   15  N4  UNL     1      17.269 136.299   1.186  1.00  0.00    -0.344 N
HETATM   16  C24 UNL     1      17.555 135.166   0.479  1.00  0.00     0.091 A
ATOM     17  H4  UNL     1      17.901 136.580   1.935  1.00  0.00     0.167 HD
BRANCH  16  18
HETATM   18  C25 UNL     1      18.796 134.389   0.825  1.00  0.00     0.054 A
HETATM   19  C26 UNL     1      18.629 133.583   2.107  1.00  0.00     0.013 A
HETATM   20  C27 UNL     1      19.507 134.758   2.101  1.00  0.00     0.013 A
ENDBRANCH  16  18
ENDBRANCH   4   5
ENDBRANCH   1   4
BRANCH   3  21
HETATM   21  C9  UNL     1      17.212 133.648  -5.076  1.00  0.00     0.131 C
BRANCH  21  22
HETATM   22  C10 UNL     1      16.517 134.746  -5.778  1.00  0.00     0.007 C
HETATM   23  C11 UNL     1      15.862 134.194  -7.051  1.00  0.00     0.034 C
HETATM   24  C12 UNL     1      15.670 135.246  -8.096  1.00  0.00     0.232 C
HETATM   25  N3  UNL     1      16.903 135.815  -8.566  1.00  0.00    -0.075 N
HETATM   26  C13 UNL     1      17.898 135.897  -7.540  1.00  0.00     0.232 C
ATOM     27  H32 UNL     1      17.255 135.307  -9.378  1.00  0.00     0.277 HD
ATOM     28  H31 UNL     1      16.745 136.725  -8.998  1.00  0.00     0.277 HD
HETATM   29  C14 UNL     1      17.273 135.956  -6.153  1.00  0.00     0.034 C
ENDBRANCH  21  22
ENDBRANCH   3  21
BRANCH   3  30
HETATM   30  C15 UNL     1      15.820 132.242  -3.467  1.00  0.00     0.091 C
HETATM   31  C16 UNL     1      16.366 130.897  -3.788  1.00  0.00     0.030 C
HETATM   32  C17 UNL     1      15.316 129.848  -3.622  1.00  0.00    -0.013 C
HETATM   33  C18 UNL     1      15.782 128.633  -4.438  1.00  0.00     0.010 C
HETATM   34  C19 UNL     1      13.962 130.280  -4.123  1.00  0.00    -0.010 C
HETATM   35  C20 UNL     1      13.229 130.903  -2.952  1.00  0.00     0.005 C
HETATM   36  C23 UNL     1      14.073 131.451  -5.090  1.00  0.00     0.011 C
HETATM   37  C21 UNL     1      13.320 132.396  -3.109  1.00  0.00     0.007 C
HETATM   38  C22 UNL     1      14.472 132.539  -4.121  1.00  0.00     0.009 C
ENDBRANCH   3  30
TORSDOF 6
ENDMDL