MODEL 1
REMARK VINA RESULT: -9.587233748      0.000      0.000
REMARK  7 active torsions:
REMARK  status: ('A' for Active; 'I' for Inactive)
REMARK    1  A    between atoms: C6_7  and  C7_8
REMARK    2  A    between atoms: C7_8  and  C8_10
REMARK    3  A    between atoms: C8_10  and  O2_11
REMARK    4  A    between atoms: O2_11  and  C9_12
REMARK    5  A    between atoms: C9_12  and  C10_13
REMARK    6  A    between atoms: C10_13  and  C11_14
REMARK    7  A    between atoms: C23_26  and  O3_27
ROOT
HETATM    1  C1  UNL     1      16.101 136.917  -8.715  1.00  0.00     0.314 C
HETATM    2  N1  UNL     1      16.618 135.836  -7.880  1.00  0.00     0.119 N
HETATM    3  C2  UNL     1      17.225 134.842  -8.779  1.00  0.00     0.280 C
HETATM    4  C3  UNL     1      15.829 134.210  -8.816  1.00  0.00     0.102 C
HETATM    5  C4  UNL     1      15.619 134.862  -7.477  1.00  0.00     0.263 C
HETATM    6  C5  UNL     1      14.318 135.519  -7.241  1.00  0.00     0.084 C
HETATM    7  C6  UNL     1      13.563 135.153  -5.996  1.00  0.00     0.069 C
HETATM    8  C17 UNL     1      13.809 133.807  -5.471  1.00  0.00     0.026 C
HETATM    9  C18 UNL     1      13.830 133.660  -3.976  1.00  0.00     0.008 C
HETATM   10  C19 UNL     1      13.722 132.128  -3.762  1.00  0.00     0.006 C
HETATM   11  C20 UNL     1      15.134 131.645  -4.126  1.00  0.00    -0.004 C
HETATM   12  C21 UNL     1      15.357 130.279  -3.624  1.00  0.00    -0.004 C
HETATM   13  C22 UNL     1      16.760 130.066  -3.065  1.00  0.00     0.037 C
HETATM   14  C23 UNL     1      17.101 128.632  -3.433  1.00  0.00     0.118 C
HETATM   15  C24 UNL     1      16.435 128.505  -4.781  1.00  0.00     0.036 C
HETATM   16  C25 UNL     1      15.104 129.160  -4.559  1.00  0.00    -0.008 C
HETATM   17  C26 UNL     1      14.467 129.618  -5.849  1.00  0.00     0.005 C
HETATM   18  C27 UNL     1      15.235 130.724  -6.458  1.00  0.00     0.008 C
HETATM   19  C28 UNL     1      15.496 131.905  -5.551  1.00  0.00     0.019 C
HETATM   20  C29 UNL     1      14.998 133.154  -6.143  1.00  0.00     0.134 C
HETATM   21  O4  UNL     1      16.005 134.119  -6.380  1.00  0.00    -0.346 OA
ENDROOT
BRANCH   7  22
HETATM   22  C7  UNL     1      13.658 136.262  -5.031  1.00  0.00     0.155 C
HETATM   23  O1  UNL     1      12.698 136.640  -4.426  1.00  0.00    -0.295 OA
BRANCH  22  24
HETATM   24  C8  UNL     1      14.955 136.956  -4.768  1.00  0.00     0.246 C
BRANCH  24  25
HETATM   25  O2  UNL     1      15.667 136.483  -3.703  1.00  0.00    -0.384 OA
BRANCH  25  26
HETATM   26  C9  UNL     1      15.418 136.990  -2.468  1.00  0.00     0.172 C
BRANCH  26  27
HETATM   27  C10 UNL     1      14.966 135.984  -1.426  1.00  0.00     0.064 C
BRANCH  27  28
HETATM   28  C11 UNL     1      16.055 135.110  -0.946  1.00  0.00    -0.056 A
HETATM   29  C12 UNL     1      16.536 133.990  -1.568  1.00  0.00     0.007 A
HETATM   30  C13 UNL     1      17.569 133.239  -1.029  1.00  0.00     0.001 A
HETATM   31  C14 UNL     1      18.128 133.637   0.169  1.00  0.00     0.000 A
HETATM   32  C15 UNL     1      17.672 134.760   0.830  1.00  0.00     0.001 A
HETATM   33  C16 UNL     1      16.643 135.489   0.273  1.00  0.00     0.007 A
ENDBRANCH  27  28
ENDBRANCH  26  27
ENDBRANCH  25  26
ENDBRANCH  24  25
ENDBRANCH  22  24
ENDBRANCH   7  22
BRANCH  14  34
HETATM   34  O3  UNL     1      16.471 127.757  -2.560  1.00  0.00    -0.396 OA
ATOM     35  H3  UNL     1      16.710 127.964  -1.665  1.00  0.00     0.210 HD
ENDBRANCH  14  34
TORSDOF 7
ENDMDL