MODEL 5
REMARK VINA RESULT: -8.584758598      1.246      1.429
REMARK  6 active torsions:
REMARK  status: ('A' for Active; 'I' for Inactive)
REMARK    1  A    between atoms: O1_2  and  C2_3
REMARK    2  A    between atoms: C4_5  and  O2_6
REMARK    3  A    between atoms: C7_9  and  C8_10
REMARK       I    between atoms: C8_10  and  N1_12
REMARK    4  A    between atoms: N1_12  and  C9_14
REMARK       I    between atoms: N2_20  and  C15_21
REMARK    5  A    between atoms: C15_21  and  C16_23
REMARK    6  A    between atoms: N3_27  and  C20_28
ROOT
HETATM    1  C9  UNL     1      18.919 130.627  -2.071  1.00  0.00     0.088 C
HETATM    2  C10 UNL     1      19.112 131.043  -3.490  1.00  0.00     0.050 C
HETATM    3  C11 UNL     1      18.833 129.934  -4.468  1.00  0.00     0.091 C
HETATM    4  C12 UNL     1      19.874 128.846  -4.151  1.00  0.00     0.050 C
HETATM    5  C13 UNL     1      18.813 128.418  -3.167  1.00  0.00     0.091 C
HETATM    6  C14 UNL     1      18.919 129.148  -1.860  1.00  0.00     0.050 C
HETATM    7  N2  UNL     1      17.826 129.001  -4.040  1.00  0.00    -0.341 N
HETATM    8  C15 UNL     1      16.473 128.755  -4.327  1.00  0.00     0.243 C
HETATM    9  O4  UNL     1      15.916 127.790  -3.721  1.00  0.00    -0.271 OA
ENDROOT
BRANCH   1  10
HETATM   10  N1  UNL     1      20.006 131.244  -1.306  1.00  0.00    -0.352 N
HETATM   11  C8  UNL     1      19.810 131.836  -0.041  1.00  0.00     0.252 C
HETATM   12  O3  UNL     1      18.655 131.841   0.449  1.00  0.00    -0.268 OA
ATOM     13  H1  UNL     1      20.945 131.244  -1.705  1.00  0.00     0.163 HD
BRANCH  11  14
HETATM   14  C7  UNL     1      20.921 132.422   0.668  1.00  0.00     0.037 A
HETATM   15  C6  UNL     1      21.943 133.000  -0.038  1.00  0.00     0.054 A
HETATM   16  C4  UNL     1      23.030 133.587   0.581  1.00  0.00     0.071 A
HETATM   17  C3  UNL     1      23.054 133.571   1.958  1.00  0.00     0.073 A
HETATM   18  C2  UNL     1      22.054 133.006   2.697  1.00  0.00     0.071 A
HETATM   19  C27 UNL     1      20.966 132.418   2.034  1.00  0.00     0.054 A
BRANCH  16  20
HETATM   20  O2  UNL     1      24.069 134.174  -0.111  1.00  0.00    -0.356 OA
HETATM   21  C5  UNL     1      24.972 133.451  -0.916  1.00  0.00     0.210 C
ENDBRANCH  16  20
BRANCH  18  22
HETATM   22  O1  UNL     1      22.094 133.000   4.078  1.00  0.00    -0.356 OA
HETATM   23  C1  UNL     1      23.081 132.233   4.752  1.00  0.00     0.210 C
ENDBRANCH  18  22
ENDBRANCH  11  14
ENDBRANCH   1  10
BRANCH   8  24
HETATM   24  C16 UNL     1      15.659 129.541  -5.277  1.00  0.00     0.176 C
HETATM   25  C17 UNL     1      14.739 128.634  -6.078  1.00  0.00     0.037 C
HETATM   26  C18 UNL     1      13.592 128.409  -5.089  1.00  0.00     0.022 C
HETATM   27  C19 UNL     1      13.605 129.657  -4.199  1.00  0.00     0.123 C
HETATM   28  N3  UNL     1      14.728 130.330  -4.577  1.00  0.00    -0.374 N
BRANCH  28  29
HETATM   29  C20 UNL     1      15.146 131.545  -4.029  1.00  0.00    -0.015 C
HETATM   30  C21 UNL     1      15.928 132.446  -4.938  1.00  0.00     0.052 C
HETATM   31  C22 UNL     1      15.276 132.737  -6.250  1.00  0.00     0.006 C
HETATM   32  C23 UNL     1      14.005 133.527  -6.136  1.00  0.00     0.000 C
HETATM   33  C24 UNL     1      13.824 134.164  -4.790  1.00  0.00     0.000 C
HETATM   34  C25 UNL     1      13.207 133.169  -3.869  1.00  0.00     0.006 C
HETATM   35  C26 UNL     1      14.140 132.258  -3.181  1.00  0.00     0.052 C
ENDBRANCH  28  29
ENDBRANCH   8  24
TORSDOF 6
ENDMDL