MODEL 5
REMARK VINA RESULT: -8.848239005      2.183      4.519
REMARK  5 active torsions:
REMARK  status: ('A' for Active; 'I' for Inactive)
REMARK    1  A    between atoms: C5_5  and  N1_6
REMARK    2  A    between atoms: C9_10  and  C10_11
REMARK    3  A    between atoms: C10_11  and  N2_12
REMARK    4  A    between atoms: N2_12  and  S1_14
REMARK    5  A    between atoms: S1_14  and  O3_17
ROOT
HETATM    1  C1  UNL     1      13.975 136.206  -3.723  1.00  0.00     0.019 C
HETATM    2  C2  UNL     1      14.303 134.936  -3.429  1.00  0.00    -0.063 C
HETATM    3  C3  UNL     1      15.070 134.749  -2.260  1.00  0.00     0.005 C
HETATM    4  C4  UNL     1      16.305 134.519  -1.863  1.00  0.00     0.009 C
HETATM    5  C5  UNL     1      17.555 134.352  -2.642  1.00  0.00     0.245 C
HETATM    6  C8  UNL     1      18.099 132.958  -2.693  1.00  0.00     0.046 C
HETATM    7  C9  UNL     1      18.720 132.458  -3.913  1.00  0.00     0.010 C
HETATM    8  C12 UNL     1      18.002 131.550  -4.867  1.00  0.00     0.041 C
HETATM    9  C13 UNL     1      16.848 130.831  -4.381  1.00  0.00    -0.073 C
HETATM   10  C14 UNL     1      16.681 129.335  -4.679  1.00  0.00     0.038 C
HETATM   11  C15 UNL     1      15.634 129.123  -3.542  1.00  0.00     0.047 C
HETATM   12  C16 UNL     1      14.628 130.154  -4.001  1.00  0.00     0.082 C
HETATM   13  C17 UNL     1      13.735 129.400  -4.892  1.00  0.00     0.051 C
HETATM   14  O4  UNL     1      13.763 130.651  -3.040  1.00  0.00    -0.376 OA
HETATM   15  C18 UNL     1      13.366 131.939  -3.252  1.00  0.00     0.175 C
HETATM   16  C19 UNL     1      13.623 132.650  -4.512  1.00  0.00     0.030 C
HETATM   17  C20 UNL     1      13.673 134.081  -4.431  1.00  0.00     0.025 C
HETATM   18  C21 UNL     1      14.293 134.448  -5.741  1.00  0.00     0.011 C
HETATM   19  C22 UNL     1      15.390 133.424  -5.829  1.00  0.00     0.015 C
HETATM   20  C23 UNL     1      14.807 132.146  -5.373  1.00  0.00    -0.011 C
HETATM   21  C24 UNL     1      14.350 131.499  -6.668  1.00  0.00     0.021 C
HETATM   22  C25 UNL     1      15.484 131.284  -4.421  1.00  0.00    -0.035 C
ENDROOT
BRANCH   7  23
HETATM   23  C10 UNL     1      20.034 131.766  -3.510  1.00  0.00     0.139 C
BRANCH  23  24
HETATM   24  N2  UNL     1      19.831 130.582  -2.741  1.00  0.00    -0.297 N
ATOM     25  H2  UNL     1      19.217 130.481  -1.932  1.00  0.00     0.174 HD
BRANCH  24  26
HETATM   26  S1  UNL     1      20.825 129.348  -3.443  1.00  0.00     0.357 S
HETATM   27  O1  UNL     1      20.054 128.734  -4.602  1.00  0.00    -0.176 OA
HETATM   28  O2  UNL     1      21.138 128.300  -2.413  1.00  0.00    -0.176 OA
BRANCH  26  29
HETATM   29  O3  UNL     1      22.237 130.038  -3.973  1.00  0.00    -0.265 OA
HETATM   30  C11 UNL     1      23.350 129.628  -3.271  1.00  0.00     0.227 C
ENDBRANCH  26  29
ENDBRANCH  24  26
ENDBRANCH  23  24
ENDBRANCH   7  23
BRANCH   5  31
HETATM   31  N1  UNL     1      18.557 135.328  -2.232  1.00  0.00     0.088 N
HETATM   32  C6  UNL     1      18.437 136.529  -3.037  1.00  0.00     0.310 C
HETATM   33  C7  UNL     1      18.569 135.596  -0.832  1.00  0.00     0.310 C
ENDBRANCH   5  31
TORSDOF 5
ENDMDL