MODEL 5
REMARK VINA RESULT: -9.253650336      4.433     10.484
REMARK  6 active torsions:
REMARK  status: ('A' for Active; 'I' for Inactive)
REMARK    1  A    between atoms: N1_6  and  S1_7
REMARK    2  A    between atoms: S1_7  and  C6_10
REMARK    3  A    between atoms: N2_16  and  C12_17
REMARK    4  A    between atoms: C12_17  and  C13_18
REMARK       I    between atoms: C13_18  and  N3_20
REMARK    5  A    between atoms: N3_20  and  C14_22
REMARK    6  A    between atoms: C14_22  and  C15_23
ROOT
HETATM    1  C6  UNL     1      19.092 129.393  -2.554  1.00  0.00     0.076 A
HETATM    2  C7  UNL     1      19.540 128.809  -3.713  1.00  0.00     0.026 A
HETATM    3  C8  UNL     1      20.894 128.957  -4.067  1.00  0.00     0.022 A
HETATM    4  C9  UNL     1      21.747 129.650  -3.302  1.00  0.00     0.027 A
HETATM    5  C10 UNL     1      21.296 130.239  -2.132  1.00  0.00     0.049 A
HETATM    6  C11 UNL     1      19.976 130.109  -1.761  1.00  0.00     0.055 A
HETATM    7  N2  UNL     1      22.194 130.977  -1.319  1.00  0.00    -0.370 N
HETATM    8  C21 UNL     1      23.569 130.676  -1.124  1.00  0.00     0.134 C
HETATM    9  C22 UNL     1      24.316 129.880  -2.101  1.00  0.00     0.099 C
HETATM   10  S2  UNL     1      23.450 129.844  -3.693  1.00  0.00    -0.126 SA
ENDROOT
BRANCH   7  11
HETATM   11  C12 UNL     1      21.660 132.128  -0.617  1.00  0.00     0.225 C
BRANCH  11  12
HETATM   12  C13 UNL     1      21.741 132.062   0.854  1.00  0.00     0.235 C
HETATM   13  O3  UNL     1      20.716 131.608   1.484  1.00  0.00    -0.272 OA
HETATM   14  N3  UNL     1      22.826 132.449   1.664  1.00  0.00    -0.359 N
ATOM     15  H3  UNL     1      23.652 132.824   1.199  1.00  0.00     0.162 HD
BRANCH  14  16
HETATM   16  C14 UNL     1      22.855 132.354   3.085  1.00  0.00     0.127 C
BRANCH  16  17
HETATM   17  C15 UNL     1      24.126 131.801   3.680  1.00  0.00     0.003 C
HETATM   18  C16 UNL     1      23.735 131.026   4.903  1.00  0.00     0.006 C
HETATM   19  C17 UNL     1      24.765 130.020   5.333  1.00  0.00     0.000 C
HETATM   20  C18 UNL     1      24.883 129.015   4.177  1.00  0.00     0.000 C
HETATM   21  C19 UNL     1      25.536 129.794   3.056  1.00  0.00     0.000 C
HETATM   22  C20 UNL     1      24.789 130.987   2.616  1.00  0.00     0.006 C
ENDBRANCH  16  17
ENDBRANCH  14  16
ENDBRANCH  11  12
ENDBRANCH   7  11
BRANCH   1  23
HETATM   23  S1  UNL     1      17.407 129.201  -2.129  1.00  0.00     0.243 S
HETATM   24  O1  UNL     1      17.147 129.603  -0.705  1.00  0.00    -0.206 OA
HETATM   25  O2  UNL     1      17.076 127.733  -2.224  1.00  0.00    -0.206 OA
BRANCH  23  26
HETATM   26  N1  UNL     1      16.387 130.034  -3.212  1.00  0.00    -0.206 NA
HETATM   27  C5  UNL     1      15.632 131.082  -2.608  1.00  0.00     0.107 C
HETATM   28  C4  UNL     1      14.147 131.022  -2.883  1.00  0.00     0.016 C
HETATM   29  C3  UNL     1      13.800 130.817  -4.322  1.00  0.00     0.006 C
HETATM   30  C2  UNL     1      14.880 130.064  -5.048  1.00  0.00    -0.004 C
HETATM   31  C1  UNL     1      14.393 129.270  -6.221  1.00  0.00     0.011 C
HETATM   32  C23 UNL     1      15.551 129.165  -4.001  1.00  0.00     0.111 C
ENDBRANCH  23  26
ENDBRANCH   1  23
TORSDOF 6
ENDMDL