MODEL 1
REMARK VINA RESULT: -9.128050580      0.000      0.000
REMARK  6 active torsions:
REMARK  status: ('A' for Active; 'I' for Inactive)
REMARK    1  A    between atoms: C2_2  and  N1_3
REMARK       I    between atoms: N1_3  and  C3_5
REMARK    2  A    between atoms: C3_5  and  C4_7
REMARK    3  A    between atoms: C4_7  and  S1_8
REMARK    4  A    between atoms: S1_8  and  C5_9
REMARK    5  A    between atoms: C5_9  and  C6_10
REMARK       I    between atoms: C6_10  and  N2_12
REMARK    6  A    between atoms: N3_15  and  C9_16
ROOT
HETATM    1  C6  UNL     1      21.056 130.433  -0.797  1.00  0.00     0.230 C
HETATM    2  O2  UNL     1      20.749 130.383   0.436  1.00  0.00    -0.272 OA
HETATM    3  N2  UNL     1      20.083 130.593  -1.809  1.00  0.00    -0.326 N
HETATM    4  C7  UNL     1      20.433 130.643  -3.197  1.00  0.00     0.150 C
HETATM    5  C8  UNL     1      19.119 130.771  -3.961  1.00  0.00     0.170 C
HETATM    6  N3  UNL     1      18.287 131.786  -3.434  1.00  0.00    -0.286 N
HETATM    7  O3  UNL     1      18.019 131.721  -2.143  1.00  0.00    -0.263 OA
HETATM    8  C26 UNL     1      18.692 130.712  -1.471  1.00  0.00     0.329 C
ENDROOT
BRANCH   6   9
HETATM    9  C9  UNL     1      17.167 132.160  -4.293  1.00  0.00     0.114 C
HETATM   10  C10 UNL     1      16.265 131.008  -4.260  1.00  0.00     0.037 C
HETATM   11  C11 UNL     1      14.944 131.104  -5.040  1.00  0.00    -0.038 C
HETATM   12  C12 UNL     1      14.976 130.209  -6.290  1.00  0.00     0.015 C
HETATM   13  C13 UNL     1      13.871 130.540  -4.162  1.00  0.00     0.010 C
HETATM   14  C18 UNL     1      14.795 132.478  -5.469  1.00  0.00     0.003 C
HETATM   15  C14 UNL     1      13.564 131.442  -3.033  1.00  0.00     0.002 C
HETATM   16  C15 UNL     1      14.381 132.703  -2.979  1.00  0.00     0.010 C
HETATM   17  C16 UNL     1      14.473 133.363  -4.334  1.00  0.00    -0.032 C
HETATM   18  C17 UNL     1      13.266 134.251  -4.428  1.00  0.00     0.016 C
HETATM   19  C22 UNL     1      15.686 134.304  -4.430  1.00  0.00    -0.031 C
HETATM   20  C21 UNL     1      15.655 134.793  -5.853  1.00  0.00     0.010 C
HETATM   21  C23 UNL     1      15.430 135.452  -3.450  1.00  0.00     0.016 C
HETATM   22  C24 UNL     1      16.860 133.533  -4.004  1.00  0.00     0.015 C
HETATM   23  C20 UNL     1      14.590 134.396  -6.790  1.00  0.00     0.001 C
HETATM   24  C19 UNL     1      14.073 132.949  -6.672  1.00  0.00     0.006 C
HETATM   25  C25 UNL     1      18.074 134.367  -4.498  1.00  0.00     0.013 C
ENDBRANCH   6   9
BRANCH   1  26
HETATM   26  C5  UNL     1      22.517 130.313  -1.106  1.00  0.00     0.177 C
BRANCH  26  27
HETATM   27  S1  UNL     1      23.410 131.831  -0.681  1.00  0.00    -0.150 SA
BRANCH  27  28
HETATM   28  C4  UNL     1      23.665 131.901   1.120  1.00  0.00     0.177 C
BRANCH  28  29
HETATM   29  C3  UNL     1      24.564 130.799   1.566  1.00  0.00     0.226 C
HETATM   30  N1  UNL     1      24.513 130.327   2.895  1.00  0.00    -0.361 N
ATOM     31  H1  UNL     1      23.852 130.753   3.544  1.00  0.00     0.162 HD
HETATM   32  O1  UNL     1      25.360 130.311   0.726  1.00  0.00    -0.273 OA
BRANCH  30  33
HETATM   33  C2  UNL     1      25.369 129.258   3.370  1.00  0.00     0.118 C
HETATM   34  C1  UNL     1      24.987 128.952   4.790  1.00  0.00     0.026 C
ENDBRANCH  30  33
ENDBRANCH  28  29
ENDBRANCH  27  28
ENDBRANCH  26  27
ENDBRANCH   1  26
TORSDOF 6
ENDMDL