MODEL 2
REMARK VINA RESULT: -8.448828724      3.342      8.827
REMARK  9 active torsions:
REMARK  status: ('A' for Active; 'I' for Inactive)
REMARK    1  A    between atoms: C3_3  and  C4_4
REMARK    2  A    between atoms: C11_11  and  O1_12
REMARK    3  A    between atoms: O1_12  and  C12_13
REMARK    4  A    between atoms: C20_22  and  O3_23
REMARK    5  A    between atoms: O3_23  and  C21_24
REMARK    6  A    between atoms: C21_24  and  C22_26
REMARK    7  A    between atoms: C22_26  and  C23_27
REMARK    8  A    between atoms: C22_26  and  N1_30
REMARK    9  A    between atoms: C23_27  and  O5_28
ROOT
HETATM    1  C1  UNL     1      12.886 136.355  -9.715  1.00  0.00     0.112 C
HETATM    2  C2  UNL     1      13.434 135.681  -8.527  1.00  0.00    -0.106 C
HETATM    3  C3  UNL     1      13.905 135.131  -7.559  1.00  0.00    -0.072 C
ENDROOT
BRANCH   3   4
HETATM    4  C4  UNL     1      14.494 134.469  -6.408  1.00  0.00    -0.008 C
HETATM    5  C5  UNL     1      15.039 135.117  -5.420  1.00  0.00    -0.010 C
HETATM    6  C6  UNL     1      15.665 134.535  -4.207  1.00  0.00     0.033 C
HETATM    7  C7  UNL     1      15.784 133.061  -4.326  1.00  0.00    -0.002 C
HETATM    8  C8  UNL     1      15.832 132.605  -5.764  1.00  0.00    -0.003 C
HETATM    9  C15 UNL     1      16.966 132.464  -3.580  1.00  0.00     0.002 C
HETATM   10  C9  UNL     1      14.470 132.981  -6.366  1.00  0.00     0.053 C
HETATM   11  C10 UNL     1      16.104 131.144  -5.884  1.00  0.00     0.038 C
HETATM   12  C11 UNL     1      16.012 130.370  -4.616  1.00  0.00     0.141 C
HETATM   13  C13 UNL     1      16.825 130.960  -3.483  1.00  0.00    -0.006 C
HETATM   14  C14 UNL     1      15.943 130.748  -2.231  1.00  0.00     0.019 C
HETATM   15  C28 UNL     1      18.097 130.250  -3.204  1.00  0.00    -0.030 C
HETATM   16  C18 UNL     1      19.052 131.220  -2.527  1.00  0.00    -0.003 C
HETATM   17  C27 UNL     1      18.826 129.675  -4.367  1.00  0.00     0.013 C
HETATM   18  C29 UNL     1      17.871 129.123  -2.185  1.00  0.00     0.016 C
HETATM   19  C17 UNL     1      19.437 132.355  -3.436  1.00  0.00     0.006 C
HETATM   20  C19 UNL     1      20.289 130.569  -2.019  1.00  0.00     0.038 C
HETATM   21  C16 UNL     1      18.253 132.908  -4.198  1.00  0.00     0.006 C
HETATM   22  C20 UNL     1      20.994 129.809  -3.102  1.00  0.00     0.132 C
HETATM   23  C26 UNL     1      20.104 128.982  -3.957  1.00  0.00     0.033 C
BRANCH  12  24
HETATM   24  O1  UNL     1      14.627 130.246  -4.284  1.00  0.00    -0.322 OA
BRANCH  24  25
HETATM   25  C12 UNL     1      13.773 129.319  -4.822  1.00  0.00     0.398 C
HETATM   26  O2  UNL     1      14.186 128.141  -4.978  1.00  0.00    -0.276 OA
ENDBRANCH  24  25
ENDBRANCH  12  24
BRANCH  22  27
HETATM   27  O3  UNL     1      22.076 129.048  -2.646  1.00  0.00    -0.314 OA
BRANCH  27  28
HETATM   28  C21 UNL     1      23.399 129.410  -2.751  1.00  0.00     0.295 C
HETATM   29  O4  UNL     1      24.201 128.439  -2.937  1.00  0.00    -0.263 OA
BRANCH  28  30
HETATM   30  C22 UNL     1      23.848 130.812  -2.652  1.00  0.00     0.343 C
BRANCH  30  31
HETATM   31  C23 UNL     1      24.259 131.326  -4.030  1.00  0.00     0.210 C
BRANCH  31  32
HETATM   32  O5  UNL     1      23.802 130.376  -4.956  1.00  0.00    -0.398 OA
ATOM     33  H5  UNL     1      24.441 130.360  -5.659  1.00  0.00     0.209 HD
ENDBRANCH  31  32
ENDBRANCH  30  31
BRANCH  30  34
HETATM   34  N1  UNL     1      24.859 131.010  -1.659  1.00  0.00     0.096 N
HETATM   35  C24 UNL     1      25.671 132.172  -1.839  1.00  0.00     0.310 C
HETATM   36  C25 UNL     1      24.279 131.051  -0.331  1.00  0.00     0.310 C
ENDBRANCH  30  34
ENDBRANCH  28  30
ENDBRANCH  27  28
ENDBRANCH  22  27
ENDBRANCH   3   4
TORSDOF 9
ENDMDL