MODEL 1
REMARK VINA RESULT: -7.821744502      0.000      0.000
REMARK  4 active torsions:
REMARK  status: ('A' for Active; 'I' for Inactive)
REMARK    1  A    between atoms: C2_2  and  O1_3
REMARK    2  A    between atoms: O1_3  and  C3_4
REMARK    3  A    between atoms: C3_4  and  C4_6
REMARK    4  A    between atoms: C4_6  and  O3_7
ROOT
HETATM    1  C4  UNL     1       8.500  80.101  46.974  1.00  0.00     0.153 C
HETATM    2  C5  UNL     1       8.271  81.589  46.901  1.00  0.00     0.049 C
HETATM    3  C6  UNL     1       7.794  82.232  48.135  1.00  0.00     0.004 C
HETATM    4  C7  UNL     1       7.029  81.434  49.120  1.00  0.00     0.010 C
HETATM    5  C8  UNL     1       7.717  80.122  49.344  1.00  0.00    -0.029 C
HETATM    6  C9  UNL     1       9.109  80.370  49.786  1.00  0.00     0.016 C
HETATM    7  C10 UNL     1       6.998  79.179  50.232  1.00  0.00    -0.001 C
HETATM    8  C11 UNL     1       7.486  79.136  51.660  1.00  0.00     0.006 C
HETATM    9  C12 UNL     1       6.771  78.062  52.433  1.00  0.00     0.001 C
HETATM   10  C13 UNL     1       6.529  76.812  51.652  1.00  0.00     0.009 C
HETATM   11  C14 UNL     1       7.415  76.705  50.408  1.00  0.00    -0.044 C
HETATM   12  C15 UNL     1       8.802  76.499  50.838  1.00  0.00     0.015 C
HETATM   13  C16 UNL     1       6.931  75.432  49.695  1.00  0.00     0.015 C
HETATM   14  C17 UNL     1       7.100  77.847  49.546  1.00  0.00    -0.001 C
HETATM   15  C18 UNL     1       8.014  78.049  48.351  1.00  0.00     0.019 C
HETATM   16  C19 UNL     1       7.618  79.435  47.964  1.00  0.00     0.005 C
HETATM   17  C20 UNL     1       6.200  79.541  47.491  1.00  0.00     0.020 C
ENDROOT
BRANCH   1  18
HETATM   18  C3  UNL     1       8.255  79.542  45.632  1.00  0.00     0.294 C
HETATM   19  O2  UNL     1       8.879  78.495  45.246  1.00  0.00    -0.262 OA
BRANCH  18  20
HETATM   20  O1  UNL     1       7.378  80.051  44.688  1.00  0.00    -0.319 OA
BRANCH  20  21
HETATM   21  C2  UNL     1       7.716  80.300  43.355  1.00  0.00     0.174 C
HETATM   22  C1  UNL     1       8.736  81.385  43.222  1.00  0.00     0.034 C
ENDBRANCH  20  21
ENDBRANCH  18  20
ENDBRANCH   1  18
BRANCH   1  23
HETATM   23  O3  UNL     1       9.870  79.822  47.248  1.00  0.00    -0.379 OA
ATOM     24  H3  UNL     1      10.115  80.432  47.933  1.00  0.00     0.211 HD
ENDBRANCH   1  23
TORSDOF 4
ENDMDL