MODEL 1
REMARK VINA RESULT: -8.165586338      0.000      0.000
REMARK  3 active torsions:
REMARK  status: ('A' for Active; 'I' for Inactive)
REMARK    1  A    between atoms: C6_13  and  N4_14
REMARK    2  A    between atoms: N4_14  and  C7_16
REMARK    3  A    between atoms: N5_22  and  C13_23
ROOT
HETATM    1  C1  UNL     1       7.211  79.978  46.704  1.00  0.00     0.089 C
HETATM    2  C2  UNL     1       7.150  78.714  47.469  1.00  0.00     0.082 A
HETATM    3  N1  UNL     1       7.019  77.560  46.782  1.00  0.00    -0.330 N
ATOM      4  H1  UNL     1       6.967  77.605  45.765  1.00  0.00     0.168 HD
HETATM    5  C3  UNL     1       6.954  76.359  47.370  1.00  0.00     0.140 A
HETATM    6  N2  UNL     1       6.827  75.094  46.906  1.00  0.00    -0.317 N
ATOM      7  H2  UNL     1       6.751  74.825  45.925  1.00  0.00     0.170 HD
HETATM    8  C4  UNL     1       6.818  74.260  47.941  1.00  0.00     0.178 A
HETATM    9  S1  UNL     1       6.687  72.628  47.940  1.00  0.00    -0.040 SA
HETATM   10  N3  UNL     1       6.940  75.006  49.057  1.00  0.00    -0.327 N
ATOM     11  H3  UNL     1       6.963  74.635  50.006  1.00  0.00     0.168 HD
HETATM   12  C5  UNL     1       7.026  76.314  48.739  1.00  0.00     0.123 A
HETATM   13  C6  UNL     1       7.160  77.501  49.431  1.00  0.00     0.136 A
HETATM   14  N5  UNL     1       7.226  78.735  48.805  1.00  0.00    -0.316 N
ENDROOT
BRANCH  13  15
HETATM   15  N4  UNL     1       7.226  77.498  50.671  1.00  0.00    -0.369 N
ATOM     16  H4  UNL     1       6.410  78.007  51.008  1.00  0.00     0.161 HD
BRANCH  15  17
HETATM   17  C7  UNL     1       7.923  77.106  51.774  1.00  0.00     0.083 C
HETATM   18  C8  UNL     1       7.421  77.635  53.107  1.00  0.00     0.025 C
HETATM   19  C9  UNL     1       7.733  76.663  54.219  1.00  0.00     0.002 C
HETATM   20  C10 UNL     1       6.992  75.357  54.057  1.00  0.00     0.000 C
HETATM   21  C11 UNL     1       6.753  75.053  52.591  1.00  0.00     0.002 C
HETATM   22  C12 UNL     1       7.938  75.558  51.827  1.00  0.00     0.025 C
ENDBRANCH  15  17
ENDBRANCH  13  15
BRANCH  14  23
HETATM   23  C13 UNL     1       7.369  79.918  49.597  1.00  0.00     0.093 C
HETATM   24  C14 UNL     1       8.707  80.596  49.585  1.00  0.00     0.026 C
HETATM   25  C15 UNL     1       8.441  82.094  49.630  1.00  0.00     0.002 C
HETATM   26  C16 UNL     1       6.985  82.293  49.306  1.00  0.00     0.002 C
HETATM   27  C17 UNL     1       6.295  80.959  49.487  1.00  0.00     0.026 C
ENDBRANCH  14  23
TORSDOF 3
ENDMDL