MODEL 5
REMARK VINA RESULT: -6.279520581      2.530      4.163
REMARK  4 active torsions:
REMARK  status: ('A' for Active; 'I' for Inactive)
REMARK    1  A    between atoms: C13_13  and  O1_14
REMARK    2  A    between atoms: C13_13  and  C14_16
REMARK    3  A    between atoms: C14_16  and  C15_17
REMARK    4  A    between atoms: C15_17  and  O2_18
ROOT
HETATM    1  C1  UNL     1       7.480  78.594  47.912  1.00  0.00     0.043 C
HETATM    2  C2  UNL     1       8.129  79.644  47.064  1.00  0.00    -0.086 C
HETATM    3  C3  UNL     1       9.331  80.039  47.451  1.00  0.00    -0.024 C
HETATM    4  C4  UNL     1      10.190  81.044  46.815  1.00  0.00     0.030 C
HETATM    5  C5  UNL     1       9.525  81.799  45.696  1.00  0.00     0.043 C
HETATM    6  C6  UNL     1       9.287  80.951  44.467  1.00  0.00     0.080 C
HETATM    7  C7  UNL     1       8.878  81.938  43.373  1.00  0.00     0.043 C
HETATM    8  C8  UNL     1      10.055  82.665  42.808  1.00  0.00     0.032 C
HETATM    9  C9  UNL     1      11.008  81.656  42.287  1.00  0.00     0.005 C
HETATM   10  C10 UNL     1      11.172  80.541  42.968  1.00  0.00     0.044 C
HETATM   11  C11 UNL     1      12.118  79.472  42.506  1.00  0.00     0.067 C
HETATM   12  C12 UNL     1      11.422  78.407  41.688  1.00  0.00     0.045 C
HETATM   13  C13 UNL     1      10.631  77.465  42.623  1.00  0.00     0.072 C
HETATM   14  C16 UNL     1       9.231  77.928  42.706  1.00  0.00     0.078 C
HETATM   15  C17 UNL     1       8.174  77.142  42.041  1.00  0.00     0.024 C
HETATM   16  S1  UNL     1       8.736  78.259  44.440  1.00  0.00    -0.153 SA
HETATM   17  C18 UNL     1       8.157  79.989  44.627  1.00  0.00     0.086 C
HETATM   18  C19 UNL     1       7.369  80.129  45.894  1.00  0.00     0.051 C
HETATM   19  O3  UNL     1      10.475  80.320  44.131  1.00  0.00    -0.344 OA
ENDROOT
BRANCH  13  20
HETATM   20  O1  UNL     1      11.251  77.597  43.886  1.00  0.00    -0.389 OA
ATOM     21  H1  UNL     1      10.784  76.995  44.454  1.00  0.00     0.210 HD
ENDBRANCH  13  20
BRANCH  13  22
HETATM   22  C14 UNL     1      10.908  76.091  42.156  1.00  0.00     0.065 C
BRANCH  22  23
HETATM   23  C15 UNL     1      12.321  75.613  42.232  1.00  0.00     0.167 C
BRANCH  23  24
HETATM   24  O2  UNL     1      12.579  75.139  43.536  1.00  0.00    -0.401 OA
ATOM     25  H2  UNL     1      12.047  74.368  43.697  1.00  0.00     0.209 HD
ENDBRANCH  23  24
ENDBRANCH  22  23
ENDBRANCH  13  22
TORSDOF 4
ENDMDL