MODEL 5
REMARK VINA RESULT: -7.839590978      2.725      7.230
REMARK  4 active torsions:
REMARK  status: ('A' for Active; 'I' for Inactive)
REMARK    1  A    between atoms: C5_5  and  O1_6
REMARK    2  A    between atoms: C5_5  and  C6_8
REMARK    3  A    between atoms: C6_8  and  N1_9
REMARK    4  A    between atoms: N2_23  and  O2_25
ROOT
HETATM    1  C1  UNL     1       5.983  80.330  47.161  1.00  0.00     0.021 C
HETATM    2  C2  UNL     1       7.263  80.085  47.998  1.00  0.00    -0.011 C
HETATM    3  C3  UNL     1       8.205  79.226  47.145  1.00  0.00     0.017 C
HETATM    4  C4  UNL     1       9.157  80.026  46.330  1.00  0.00     0.041 C
HETATM    5  C5  UNL     1       8.706  81.362  45.858  1.00  0.00     0.088 C
HETATM    6  C11 UNL     1       8.185  82.224  46.990  1.00  0.00     0.074 C
HETATM    7  C12 UNL     1       7.984  81.346  48.184  1.00  0.00    -0.072 C
HETATM    8  C13 UNL     1       8.475  81.737  49.320  1.00  0.00    -0.023 C
HETATM    9  C14 UNL     1       8.332  80.899  50.531  1.00  0.00     0.033 C
HETATM   10  C15 UNL     1       7.076  80.111  50.505  1.00  0.00    -0.000 C
HETATM   11  C16 UNL     1       6.969  79.264  51.720  1.00  0.00     0.006 C
HETATM   12  C17 UNL     1       7.531  77.901  51.685  1.00  0.00     0.006 C
HETATM   13  C18 UNL     1       8.197  77.587  50.384  1.00  0.00     0.055 C
HETATM   14  C19 UNL     1       7.273  77.958  49.303  1.00  0.00     0.015 C
HETATM   15  N2  UNL     1       6.863  77.107  48.460  1.00  0.00    -0.277 N
ATOM     16  H2  UNL     1       6.221  77.389  47.719  1.00  0.00     0.193 HD
HETATM   17  C20 UNL     1       6.816  79.370  49.227  1.00  0.00     0.050 C
ENDROOT
BRANCH   5  18
HETATM   18  O1  UNL     1       7.786  81.292  44.805  1.00  0.00    -0.388 OA
ATOM     19  H1  UNL     1       6.883  81.286  45.099  1.00  0.00     0.210 HD
ENDBRANCH   5  18
BRANCH   5  20
HETATM   20  C6  UNL     1       9.926  82.070  45.304  1.00  0.00     0.310 C
BRANCH  20  21
HETATM   21  N1  UNL     1       9.741  82.511  43.926  1.00  0.00     0.091 N
HETATM   22  C7  UNL     1      10.726  81.798  43.096  1.00  0.00     0.272 C
HETATM   23  C8  UNL     1      10.713  82.599  41.807  1.00  0.00     0.032 C
HETATM   24  C9  UNL     1      10.706  84.020  42.343  1.00  0.00     0.032 C
HETATM   25  C10 UNL     1      10.124  83.879  43.722  1.00  0.00     0.272 C
ENDBRANCH  20  21
ENDBRANCH   5  20
BRANCH  15  26
HETATM   26  O2  UNL     1       7.281  75.809  48.546  1.00  0.00    -0.290 OA
ATOM     27  H2  UNL     1       6.772  75.120  48.135  1.00  0.00     0.244 HD
ENDBRANCH  15  26
TORSDOF 4
ENDMDL