MODEL 5
REMARK VINA RESULT: -6.481182126      1.135      1.409
REMARK  3 active torsions:
REMARK  status: ('A' for Active; 'I' for Inactive)
REMARK    1  A    between atoms: N1_4  and  C3_5
REMARK    2  A    between atoms: C9_13  and  S2_14
REMARK    3  A    between atoms: S2_14  and  C10_15
ROOT
HETATM    1  C1  UNL     1       8.830  81.829  43.863  1.00  0.00     0.037 C
HETATM    2  C2  UNL     1       8.131  81.013  44.555  1.00  0.00     0.056 C
HETATM    3  S1  UNL     1       7.003  81.577  45.884  1.00  0.00    -0.007 SA
HETATM    4  N1  UNL     1       7.361  80.317  47.136  1.00  0.00    -0.292 N
HETATM    5  C9  UNL     1       7.431  78.985  46.677  1.00  0.00     0.155 C
HETATM    6  N3  UNL     1       7.778  78.688  45.453  1.00  0.00    -0.322 N
ATOM      7  H3  UNL     1       7.803  77.694  45.227  1.00  0.00     0.169 HD
HETATM    8  C16 UNL     1       8.117  79.554  44.420  1.00  0.00     0.118 C
HETATM    9  N4  UNL     1       8.450  79.097  43.236  1.00  0.00    -0.384 N
ATOM     10  H41 UNL     1       8.440  78.081  43.142  1.00  0.00     0.157 HD
ATOM     11  H42 UNL     1       8.699  79.733  42.478  1.00  0.00     0.157 HD
ENDROOT
BRANCH   4  12
HETATM   12  C3  UNL     1       7.611  80.789  48.455  1.00  0.00     0.104 C
HETATM   13  C4  UNL     1       6.301  80.817  49.234  1.00  0.00     0.028 C
HETATM   14  C5  UNL     1       6.447  81.462  50.562  1.00  0.00     0.022 C
HETATM   15  C6  UNL     1       7.801  81.297  51.170  1.00  0.00     0.118 C
HETATM   16  N2  UNL     1       8.739  82.291  50.820  1.00  0.00    -0.402 N
HETATM   17  C7  UNL     1       9.191  82.377  49.490  1.00  0.00     0.057 C
ATOM     18  H2  UNL     1       9.087  82.941  51.524  1.00  0.00     0.158 HD
HETATM   19  C8  UNL     1       8.215  82.181  48.396  1.00  0.00     0.070 C
ENDBRANCH   4  12
BRANCH   5  20
HETATM   20  S2  UNL     1       6.971  77.637  47.678  1.00  0.00    -0.088 SA
BRANCH  20  21
HETATM   21  C10 UNL     1       8.016  76.987  48.908  1.00  0.00     0.055 C
HETATM   22  C11 UNL     1       7.083  76.371  50.007  1.00  0.00     0.015 C
HETATM   23  C12 UNL     1       6.617  77.467  50.931  1.00  0.00     0.001 C
HETATM   24  C13 UNL     1       7.764  77.729  51.903  1.00  0.00     0.000 C
HETATM   25  C14 UNL     1       9.034  77.583  51.091  1.00  0.00     0.001 C
HETATM   26  C15 UNL     1       8.841  78.010  49.661  1.00  0.00     0.015 C
ENDBRANCH  20  21
ENDBRANCH   5  20
TORSDOF 3
ENDMDL