MODEL 4
REMARK VINA RESULT: -7.723721016      2.097      4.425
REMARK  5 active torsions:
REMARK  status: ('A' for Active; 'I' for Inactive)
REMARK    1  A    between atoms: C2_2  and  O2_4
REMARK    2  A    between atoms: O2_4  and  C3_5
REMARK    3  A    between atoms: C3_5  and  C4_6
REMARK    4  A    between atoms: C6_8  and  O3_10
REMARK    5  A    between atoms: C18_22  and  O4_23
ROOT
HETATM    1  C4  UNL     1       8.928  80.885  48.638  1.00  0.00     0.014 C
HETATM    2  C5  UNL     1       8.102  82.017  48.040  1.00  0.00     0.052 C
HETATM    3  C6  UNL     1       6.879  81.624  47.327  1.00  0.00     0.056 C
HETATM    4  C7  UNL     1       6.549  82.791  46.369  1.00  0.00     0.045 C
HETATM    5  C8  UNL     1       6.984  80.416  46.478  1.00  0.00     0.046 C
HETATM    6  C9  UNL     1       7.829  79.289  47.030  1.00  0.00    -0.037 C
HETATM    7  C10 UNL     1       8.144  78.443  45.792  1.00  0.00     0.015 C
HETATM    8  C11 UNL     1       6.920  78.378  47.857  1.00  0.00     0.013 C
HETATM    9  C12 UNL     1       7.586  77.163  48.378  1.00  0.00     0.028 C
HETATM   10  C13 UNL     1       7.184  76.680  49.710  1.00  0.00    -0.024 C
HETATM   11  C14 UNL     1       7.073  77.296  50.860  1.00  0.00    -0.087 C
HETATM   12  C15 UNL     1       6.621  76.488  52.087  1.00  0.00     0.043 C
HETATM   13  C16 UNL     1       7.323  78.717  51.182  1.00  0.00     0.036 C
HETATM   14  C17 UNL     1       8.616  79.279  50.607  1.00  0.00     0.037 C
HETATM   15  C18 UNL     1       8.357  80.579  49.959  1.00  0.00     0.129 C
HETATM   16  C19 UNL     1       9.066  79.733  47.685  1.00  0.00     0.003 C
HETATM   17  C20 UNL     1      10.070  80.134  46.581  1.00  0.00     0.011 C
ENDROOT
BRANCH   1  18
HETATM   18  C3  UNL     1      10.326  81.480  48.782  1.00  0.00     0.191 C
BRANCH  18  19
HETATM   19  O2  UNL     1      10.321  82.891  48.858  1.00  0.00    -0.321 OA
BRANCH  19  20
HETATM   20  C2  UNL     1      11.109  83.491  49.790  1.00  0.00     0.254 C
HETATM   21  C1  UNL     1      12.348  84.221  49.366  1.00  0.00     0.126 C
HETATM   22  O1  UNL     1      10.861  83.478  51.026  1.00  0.00    -0.266 OA
ENDBRANCH  19  20
ENDBRANCH  18  19
ENDBRANCH   1  18
BRANCH  15  23
HETATM   23  O4  UNL     1       8.627  81.658  50.838  1.00  0.00    -0.395 OA
ATOM     24  H4  UNL     1       7.824  81.901  51.285  1.00  0.00     0.210 HD
ENDBRANCH  15  23
BRANCH   3  25
HETATM   25  O3  UNL     1       5.731  81.511  48.108  1.00  0.00    -0.390 OA
ATOM     26  H3  UNL     1       4.907  81.650  47.655  1.00  0.00     0.210 HD
ENDBRANCH   3  25
TORSDOF 5
ENDMDL