MODEL 5
REMARK VINA RESULT: -7.231183135      1.235      1.856
REMARK  4 active torsions:
REMARK  status: ('A' for Active; 'I' for Inactive)
REMARK    1  A    between atoms: N1_2  and  C3_4
REMARK    2  A    between atoms: C6_7  and  N2_8
REMARK    3  A    between atoms: C7_9  and  O1_10
REMARK    4  A    between atoms: C10_14  and  O2_15
ROOT
HETATM    1  N2  UNL     1       7.898  79.292  48.426  1.00  0.00    -0.303 N
HETATM    2  C7  UNL     1       7.377  79.062  47.209  1.00  0.00     0.152 A
HETATM    3  C8  UNL     1       7.635  80.123  46.386  1.00  0.00     0.009 A
HETATM    4  C9  UNL     1       8.344  81.044  47.135  1.00  0.00     0.009 A
HETATM    5  C10 UNL     1       8.494  80.508  48.394  1.00  0.00     0.152 A
HETATM    6  C11 UNL     1       8.728  82.289  46.419  1.00  0.00     0.032 C
HETATM    7  C12 UNL     1       7.415  82.845  45.859  1.00  0.00     0.016 C
HETATM    8  C13 UNL     1       7.083  81.921  44.735  1.00  0.00     0.001 A
HETATM    9  C14 UNL     1       7.350  80.492  44.975  1.00  0.00     0.033 A
HETATM   10  C15 UNL     1       8.393  81.259  44.308  1.00  0.00     0.008 A
HETATM   11  C16 UNL     1       9.441  81.894  45.160  1.00  0.00    -0.035 C
HETATM   12  C17 UNL     1       9.953  83.114  44.398  1.00  0.00     0.016 C
HETATM   13  C18 UNL     1      10.607  80.974  45.369  1.00  0.00     0.016 C
ENDROOT
BRANCH   1  14
HETATM   14  C6  UNL     1       7.842  78.417  49.586  1.00  0.00     0.094 C
HETATM   15  C5  UNL     1       7.458  77.006  49.188  1.00  0.00     0.028 C
HETATM   16  C4  UNL     1       7.059  76.211  50.395  1.00  0.00     0.038 C
HETATM   17  C3  UNL     1       7.644  76.807  51.645  1.00  0.00     0.222 C
HETATM   18  C20 UNL     1       7.172  78.193  51.920  1.00  0.00     0.038 C
HETATM   19  C19 UNL     1       6.914  78.965  50.627  1.00  0.00     0.028 C
BRANCH  17  20
HETATM   20  N1  UNL     1       7.420  75.970  52.779  1.00  0.00     0.084 N
HETATM   21  C1  UNL     1       7.706  76.606  54.049  1.00  0.00     0.309 C
HETATM   22  C2  UNL     1       6.060  75.461  52.840  1.00  0.00     0.309 C
ENDBRANCH  17  20
ENDBRANCH   1  14
BRANCH   2  23
HETATM   23  O1  UNL     1       6.671  77.910  46.812  1.00  0.00    -0.345 OA
ATOM     24  H1  UNL     1       5.756  77.873  46.559  1.00  0.00     0.219 HD
ENDBRANCH   2  23
BRANCH   5  25
HETATM   25  O2  UNL     1       9.159  81.146  49.433  1.00  0.00    -0.345 OA
ATOM     26  H2  UNL     1       8.771  81.622  50.157  1.00  0.00     0.219 HD
ENDBRANCH   5  25
TORSDOF 4
ENDMDL