MODEL 1
REMARK VINA RESULT: -10.583909276      0.000      0.000
REMARK  2 active torsions:
REMARK  status: ('A' for Active; 'I' for Inactive)
REMARK    1  A    between atoms: C5_14  and  C6_15
REMARK    2  A    between atoms: N5_19  and  C10_20
ROOT
HETATM    1  N1  UNL     1       6.560  73.616  48.096  1.00  0.00    -0.383 N
ATOM      2  H11 UNL     1       6.469  73.312  49.065  1.00  0.00     0.157 HD
ATOM      3  H12 UNL     1       6.486  72.917  47.358  1.00  0.00     0.157 HD
HETATM    4  C1  UNL     1       6.764  74.838  47.764  1.00  0.00     0.131 A
HETATM    5  N2  UNL     1       6.883  75.235  46.497  1.00  0.00    -0.337 N
ATOM      6  H2  UNL     1       6.811  74.545  45.750  1.00  0.00     0.168 HD
HETATM    7  C2  UNL     1       7.095  76.520  46.182  1.00  0.00     0.183 A
HETATM    8  N3  UNL     1       7.184  77.389  47.175  1.00  0.00    -0.336 N
ATOM      9  H3  UNL     1       7.347  78.363  46.920  1.00  0.00     0.168 HD
HETATM   10  C3  UNL     1       7.081  77.118  48.489  1.00  0.00     0.141 A
HETATM   11  C4  UNL     1       6.864  75.790  48.769  1.00  0.00     0.122 A
HETATM   12  N4  UNL     1       6.792  75.724  50.099  1.00  0.00    -0.339 N
ATOM     13  H4  UNL     1       6.637  74.868  50.631  1.00  0.00     0.167 HD
HETATM   14  C5  UNL     1       6.959  76.976  50.653  1.00  0.00     0.090 A
HETATM   15  N5  UNL     1       7.137  77.836  49.658  1.00  0.00    -0.310 N
ENDROOT
BRANCH  15  16
HETATM   16  C10 UNL     1       7.375  79.254  49.612  1.00  0.00     0.041 C
HETATM   17  C11 UNL     1       8.884  79.419  49.730  1.00  0.00     0.036 C
HETATM   18  C12 UNL     1       9.391  80.823  49.690  1.00  0.00    -0.012 C
HETATM   19  C13 UNL     1       9.543  81.412  48.335  1.00  0.00     0.005 C
HETATM   20  C18 UNL     1       8.714  81.726  50.692  1.00  0.00     0.009 C
HETATM   21  C14 UNL     1       8.350  81.639  47.536  1.00  0.00     0.005 C
HETATM   22  C15 UNL     1       7.029  81.289  48.138  1.00  0.00    -0.012 C
HETATM   23  C16 UNL     1       6.686  82.128  49.320  1.00  0.00     0.009 C
HETATM   24  C20 UNL     1       6.831  79.808  48.337  1.00  0.00     0.036 C
HETATM   25  C17 UNL     1       7.257  81.527  50.560  1.00  0.00    -0.012 C
HETATM   26  C19 UNL     1       6.813  80.064  50.722  1.00  0.00     0.036 C
ENDBRANCH  15  16
BRANCH  14  27
HETATM   27  C6  UNL     1       6.936  77.197  52.099  1.00  0.00     0.054 C
HETATM   28  C7  UNL     1       6.390  75.918  52.792  1.00  0.00     0.012 C
HETATM   29  C8  UNL     1       7.381  76.227  53.912  1.00  0.00     0.002 C
HETATM   30  C9  UNL     1       8.245  76.812  52.803  1.00  0.00     0.012 C
ENDBRANCH  14  27
TORSDOF 2
ENDMDL