MODEL 3
REMARK VINA RESULT: -7.181170253      2.293      4.133
REMARK  3 active torsions:
REMARK  status: ('A' for Active; 'I' for Inactive)
REMARK    1  A    between atoms: O1_2  and  C2_3
REMARK    2  A    between atoms: C2_3  and  C3_4
REMARK    3  A    between atoms: C18_24  and  O4_26
ROOT
HETATM    1  C3  UNL     1       9.447  80.556  44.328  1.00  0.00     0.243 C
HETATM    2  N1  UNL     1       9.996  81.466  45.342  1.00  0.00    -0.061 N
ATOM      3  H11 UNL     1       9.574  82.395  45.340  1.00  0.00     0.278 HD
ATOM      4  H12 UNL     1      10.949  81.775  45.151  1.00  0.00     0.278 HD
HETATM    5  C4  UNL     1       9.846  80.749  46.596  1.00  0.00     0.193 C
HETATM    6  C5  UNL     1      10.791  81.325  47.578  1.00  0.00     0.037 C
HETATM    7  C6  UNL     1      10.668  82.809  47.784  1.00  0.00     0.035 C
HETATM    8  C7  UNL     1      10.777  83.069  49.241  1.00  0.00    -0.087 C
HETATM    9  C8  UNL     1      12.042  83.553  49.872  1.00  0.00     0.043 C
HETATM   10  C9  UNL     1       9.709  82.860  49.999  1.00  0.00    -0.024 C
HETATM   11  C10 UNL     1       8.392  82.379  49.495  1.00  0.00     0.037 C
HETATM   12  C11 UNL     1       8.236  80.908  49.518  1.00  0.00     0.058 C
HETATM   13  C12 UNL     1       8.063  80.189  48.266  1.00  0.00     0.173 C
HETATM   14  O2  UNL     1       6.705  79.805  48.259  1.00  0.00    -0.234 OA
HETATM   15  O3  UNL     1       6.083  80.545  49.150  1.00  0.00    -0.230 OA
HETATM   16  C13 UNL     1       6.948  80.476  50.246  1.00  0.00     0.095 C
HETATM   17  C14 UNL     1       7.042  79.007  50.624  1.00  0.00     0.049 C
HETATM   18  C15 UNL     1       6.585  81.350  51.381  1.00  0.00     0.049 C
HETATM   19  C16 UNL     1       8.394  80.823  46.978  1.00  0.00     0.051 C
HETATM   20  C17 UNL     1       7.665  79.950  45.932  1.00  0.00     0.049 C
HETATM   21  C18 UNL     1       7.973  80.380  44.535  1.00  0.00     0.085 C
HETATM   22  C19 UNL     1       7.160  81.587  44.176  1.00  0.00     0.048 C
ENDROOT
BRANCH   1  23
HETATM   23  C2  UNL     1       9.815  80.975  42.947  1.00  0.00     0.203 C
BRANCH  23  24
HETATM   24  O1  UNL     1       9.788  79.951  42.020  1.00  0.00    -0.394 OA
HETATM   25  C1  UNL     1      10.810  79.059  42.351  1.00  0.00     0.201 C
ENDBRANCH  23  24
ENDBRANCH   1  23
BRANCH  21  26
HETATM   26  O4  UNL     1       7.564  79.342  43.685  1.00  0.00    -0.388 OA
ATOM     27  H4  UNL     1       7.811  79.594  42.803  1.00  0.00     0.210 HD
ENDBRANCH  21  26
TORSDOF 3
ENDMDL