MODEL 5
REMARK VINA RESULT: -6.143584398      2.137      4.697
REMARK  4 active torsions:
REMARK  status: ('A' for Active; 'I' for Inactive)
REMARK    1  A    between atoms: O1_2  and  C2_3
REMARK    2  A    between atoms: C2_3  and  C3_5
REMARK    3  A    between atoms: C5_7  and  O3_8
REMARK    4  A    between atoms: C6_10  and  C7_11
ROOT
HETATM    1  C3  UNL     1       8.955  80.952  46.723  1.00  0.00     0.076 C
HETATM    2  C4  UNL     1       8.507  82.248  46.088  1.00  0.00     0.029 C
HETATM    3  C5  UNL     1      10.493  80.964  46.619  1.00  0.00     0.145 C
HETATM    4  C6  UNL     1      11.141  82.230  46.383  1.00  0.00     0.054 C
HETATM    5  C8  UNL     1      11.426  83.196  47.448  1.00  0.00    -0.080 C
HETATM    6  C9  UNL     1      12.241  84.377  46.890  1.00  0.00     0.043 C
HETATM    7  C10 UNL     1      11.149  83.258  48.720  1.00  0.00    -0.024 C
HETATM    8  C11 UNL     1      10.409  82.345  49.631  1.00  0.00     0.028 C
HETATM    9  C12 UNL     1       8.963  82.590  49.721  1.00  0.00     0.013 C
HETATM   10  C13 UNL     1       7.997  81.789  48.931  1.00  0.00    -0.037 C
HETATM   11  C14 UNL     1       6.873  82.690  48.537  1.00  0.00     0.015 C
HETATM   12  C15 UNL     1       7.335  80.644  49.738  1.00  0.00     0.018 C
HETATM   13  C16 UNL     1       7.443  79.770  48.474  1.00  0.00    -0.041 C
HETATM   14  C17 UNL     1       6.231  79.648  47.666  1.00  0.00     0.015 C
HETATM   15  C18 UNL     1       7.875  78.390  48.981  1.00  0.00     0.015 C
HETATM   16  C19 UNL     1       8.537  80.728  48.106  1.00  0.00     0.022 C
ENDROOT
BRANCH   1  17
HETATM   17  C2  UNL     1       8.533  79.890  45.752  1.00  0.00     0.270 C
HETATM   18  O2  UNL     1       8.812  78.670  45.882  1.00  0.00    -0.264 OA
BRANCH  17  19
HETATM   19  O1  UNL     1       7.789  80.178  44.613  1.00  0.00    -0.326 OA
HETATM   20  C1  UNL     1       8.107  79.691  43.343  1.00  0.00     0.213 C
ENDBRANCH  17  19
ENDBRANCH   1  17
BRANCH   3  21
HETATM   21  O3  UNL     1      10.900  80.075  45.573  1.00  0.00    -0.394 OA
ATOM     22  H3  UNL     1      10.978  80.562  44.762  1.00  0.00     0.210 HD
ENDBRANCH   3  21
BRANCH   4  23
HETATM   23  C7  UNL     1      12.521  81.877  45.737  1.00  0.00     0.098 C
HETATM   24  S1  UNL     1      12.440  82.424  44.029  1.00  0.00    -0.097 SA
ENDBRANCH   4  23
TORSDOF 4
ENDMDL