MODEL 3
REMARK VINA RESULT: -5.699018969      3.496      4.634
REMARK  4 active torsions:
REMARK  status: ('A' for Active; 'I' for Inactive)
REMARK    1  A    between atoms: C4_4  and  C5_5
REMARK    2  A    between atoms: N1_10  and  C10_11
REMARK    3  A    between atoms: C10_11  and  C11_12
REMARK    4  A    between atoms: C11_12  and  O1_13
ROOT
HETATM    1  C1  UNL     1      82.411  76.200  97.886  1.00  0.00     0.027 C
HETATM    2  C2  UNL     1      81.257  75.895  98.092  1.00  0.00    -0.026 C
HETATM    3  C3  UNL     1      79.900  75.556  98.347  1.00  0.00    -0.009 C
HETATM    4  C4  UNL     1      78.747  75.282  98.578  1.00  0.00    -0.035 C
ENDROOT
BRANCH   4   5
HETATM    5  C5  UNL     1      77.362  74.960  98.876  1.00  0.00     0.089 A
HETATM    6  C6  UNL     1      76.877  75.216 100.145  1.00  0.00     0.039 A
HETATM    7  C7  UNL     1      75.576  74.920 100.446  1.00  0.00     0.004 A
HETATM    8  C8  UNL     1      74.770  74.374  99.484  1.00  0.00     0.017 A
HETATM    9  C9  UNL     1      75.312  74.144  98.238  1.00  0.00     0.092 A
HETATM   10  N1  UNL     1      76.587  74.425  97.915  1.00  0.00    -0.348 N
BRANCH  10  11
HETATM   11  C10 UNL     1      77.145  74.177  96.601  1.00  0.00     0.155 C
BRANCH  11  12
HETATM   12  C11 UNL     1      76.103  73.621  95.653  1.00  0.00     0.184 C
BRANCH  12  13
HETATM   13  O1  UNL     1      76.386  73.909  94.340  1.00  0.00    -0.399 OA
ATOM     14  H1  UNL     1      75.900  73.360  93.736  1.00  0.00     0.209 HD
ENDBRANCH  12  13
ENDBRANCH  11  12
ENDBRANCH  10  11
ENDBRANCH   4   5
TORSDOF 4
ENDMDL