MODEL 1
REMARK VINA RESULT: -5.823784634      0.000      0.000
REMARK  3 active torsions:
REMARK  status: ('A' for Active; 'I' for Inactive)
REMARK    1  A    between atoms: C2_3  and  N2_4
REMARK    2  A    between atoms: C5_7  and  C6_8
REMARK    3  A    between atoms: C6_8  and  N3_9
ROOT
HETATM    1  N1  UNL     1      84.560  76.793  98.889  1.00  0.00    -0.195 NA
HETATM    2  C1  UNL     1      83.457  77.123  98.895  1.00  0.00     0.081 C
HETATM    3  C2  UNL     1      82.077  77.538  98.898  1.00  0.00     0.279 C
ENDROOT
BRANCH   3   4
HETATM    4  N2  UNL     1      81.276  76.367  98.522  1.00  0.00    -0.251 N
HETATM    5  C3  UNL     1      81.615  75.562  97.503  1.00  0.00     0.121 A
HETATM    6  C4  UNL     1      80.641  74.585  97.450  1.00  0.00     0.056 A
HETATM    7  C5  UNL     1      79.740  74.858  98.468  1.00  0.00     0.096 A
HETATM    8  O1  UNL     1      80.193  75.939  99.058  1.00  0.00    -0.238 OA
BRANCH   7   9
HETATM    9  C6  UNL     1      78.529  74.053  98.773  1.00  0.00     0.196 C
BRANCH   9  10
HETATM   10  N3  UNL     1      77.738  73.803  97.582  1.00  0.00    -0.345 N
HETATM   11  C7  UNL     1      77.045  74.691  96.849  1.00  0.00     0.109 A
HETATM   12  C8  UNL     1      76.419  74.056  95.784  1.00  0.00     0.106 A
HETATM   13  N4  UNL     1      76.755  72.764  95.899  1.00  0.00    -0.361 N
HETATM   14  C9  UNL     1      77.550  72.610  96.982  1.00  0.00     0.182 A
ATOM     15  H4  UNL     1      76.459  72.017  95.270  1.00  0.00     0.166 HD
ENDBRANCH   9  10
ENDBRANCH   7   9
ENDBRANCH   3   4
TORSDOF 3
ENDMDL