MODEL 2
REMARK VINA RESULT: -6.271638321      0.086      1.343
REMARK  3 active torsions:
REMARK  status: ('A' for Active; 'I' for Inactive)
REMARK    1  A    between atoms: O1_1  and  N1_3
REMARK    2  A    between atoms: N3_8  and  C3_9
REMARK    3  A    between atoms: C3_9  and  C4_10
ROOT
HETATM    1  N1  UNL     1      79.883  74.028  97.442  1.00  0.00    -0.156 N
HETATM    2  C1  UNL     1      78.595  74.311  97.187  1.00  0.00     0.235 A
HETATM    3  N2  UNL     1      78.078  74.947  98.249  1.00  0.00    -0.344 N
ATOM      4  H2  UNL     1      77.125  75.291  98.361  1.00  0.00     0.167 HD
HETATM    5  C2  UNL     1      79.085  75.032  99.133  1.00  0.00     0.204 A
HETATM    6  N3  UNL     1      80.195  74.471  98.645  1.00  0.00    -0.257 N
ENDROOT
BRANCH   6   7
HETATM    7  C3  UNL     1      81.508  74.358  99.299  1.00  0.00     0.191 C
BRANCH   7   8
HETATM    8  C4  UNL     1      82.432  75.421  98.802  1.00  0.00    -0.038 A
HETATM    9  C5  UNL     1      83.752  75.139  98.527  1.00  0.00     0.009 A
HETATM   10  C6  UNL     1      84.571  76.155  98.070  1.00  0.00     0.001 A
HETATM   11  C7  UNL     1      84.048  77.430  97.900  1.00  0.00     0.000 A
HETATM   12  C8  UNL     1      82.717  77.685  98.184  1.00  0.00     0.001 A
HETATM   13  C9  UNL     1      81.892  76.694  98.636  1.00  0.00     0.009 A
ENDBRANCH   7   8
ENDBRANCH   6   7
BRANCH   1  14
HETATM   14  O1  UNL     1      80.752  73.379  96.592  1.00  0.00    -0.267 OA
ATOM     15  H1  UNL     1      80.683  72.476  96.306  1.00  0.00     0.247 HD
ENDBRANCH   1  14
TORSDOF 3
ENDMDL