MODEL 5
REMARK VINA RESULT: -5.710513661      1.314      1.517
REMARK  3 active torsions:
REMARK  status: ('A' for Active; 'I' for Inactive)
REMARK    1  A    between atoms: N1_1  and  N2_4
REMARK    2  A    between atoms: C4_8  and  C5_9
REMARK    3  A    between atoms: C5_9  and  N3_10
ROOT
HETATM    1  N2  UNL     1      77.226  73.439  96.888  1.00  0.00    -0.285 N
HETATM    2  C1  UNL     1      76.380  74.227  97.562  1.00  0.00     0.115 A
HETATM    3  C2  UNL     1      76.749  74.914  98.705  1.00  0.00     0.020 A
HETATM    4  C3  UNL     1      78.038  74.787  99.171  1.00  0.00     0.012 A
HETATM    5  C4  UNL     1      78.912  73.983  98.486  1.00  0.00    -0.022 A
HETATM    6  C11 UNL     1      78.477  73.328  97.356  1.00  0.00     0.123 A
ENDROOT
BRANCH   5   7
HETATM    7  C5  UNL     1      80.313  73.782  98.904  1.00  0.00     0.167 C
BRANCH   7   8
HETATM    8  N3  UNL     1      81.124  74.956  98.812  1.00  0.00    -0.362 N
HETATM    9  C6  UNL     1      81.491  75.683  99.878  1.00  0.00     0.090 A
HETATM   10  C7  UNL     1      82.276  76.806  99.716  1.00  0.00     0.017 A
HETATM   11  C8  UNL     1      82.706  77.220  98.478  1.00  0.00     0.003 A
HETATM   12  C9  UNL     1      82.323  76.467  97.386  1.00  0.00     0.017 A
HETATM   13  C10 UNL     1      81.538  75.351  97.593  1.00  0.00     0.090 A
ENDBRANCH   7   8
ENDBRANCH   5   7
BRANCH   1  14
HETATM   14  N1  UNL     1      76.832  72.751  95.732  1.00  0.00    -0.339 N
ATOM     15  H12 UNL     1      76.786  73.229  94.831  1.00  0.00     0.177 HD
ATOM     16  H11 UNL     1      76.581  71.763  95.755  1.00  0.00     0.177 HD
ENDBRANCH   1  14
TORSDOF 3
ENDMDL