MODEL 4
REMARK VINA RESULT: -5.796649572      2.216      6.279
REMARK  3 active torsions:
REMARK  status: ('A' for Active; 'I' for Inactive)
REMARK    1  A    between atoms: N1_4  and  C4_5
REMARK    2  A    between atoms: C4_5  and  C5_6
REMARK    3  A    between atoms: C5_6  and  N2_7
ROOT
HETATM    1  C5  UNL     1      79.499  75.010  98.691  1.00  0.00     0.170 C
ENDROOT
BRANCH   1   2
HETATM    2  C4  UNL     1      78.182  75.756  98.944  1.00  0.00     0.149 C
BRANCH   2   3
HETATM    3  N1  UNL     1      77.168  75.017  98.217  1.00  0.00    -0.365 N
HETATM    4  C3  UNL     1      77.309  74.704  96.927  1.00  0.00     0.090 A
HETATM    5  C2  UNL     1      76.314  73.999  96.278  1.00  0.00     0.017 A
HETATM    6  C1  UNL     1      75.167  73.613  96.961  1.00  0.00     0.003 A
HETATM    7  C9  UNL     1      75.034  73.942  98.291  1.00  0.00     0.017 A
HETATM    8  C8  UNL     1      76.045  74.644  98.900  1.00  0.00     0.090 A
ENDBRANCH   2   3
ENDBRANCH   1   2
BRANCH   1   9
HETATM    9  N2  UNL     1      80.608  75.896  98.553  1.00  0.00    -0.286 N
HETATM   10  C6  UNL     1      81.701  75.647  97.787  1.00  0.00     0.130 A
HETATM   11  C7  UNL     1      82.572  76.719  97.889  1.00  0.00     0.127 A
HETATM   12  N3  UNL     1      81.965  77.586  98.722  1.00  0.00    -0.296 N
HETATM   13  N4  UNL     1      80.810  77.077  99.098  1.00  0.00    -0.241 N
ATOM     14  H3  UNL     1      82.339  78.490  99.013  1.00  0.00     0.187 HD
ATOM     15  H4  UNL     1      80.157  77.539  99.731  1.00  0.00     0.208 HD
ENDBRANCH   1   9
TORSDOF 3
ENDMDL