MODEL 4
REMARK VINA RESULT: -5.546779507      1.588      1.907
REMARK  3 active torsions:
REMARK  status: ('A' for Active; 'I' for Inactive)
REMARK    1  A    between atoms: O1_1  and  N1_3
REMARK    2  A    between atoms: C5_8  and  C6_9
REMARK    3  A    between atoms: C6_9  and  N2_10
ROOT
HETATM    1  N1  UNL     1      81.999  77.151  98.802  1.00  0.00    -0.239 N
HETATM    2  C1  UNL     1      82.966  77.872  98.222  1.00  0.00     0.123 A
HETATM    3  C2  UNL     1      84.180  77.358  97.822  1.00  0.00     0.020 A
HETATM    4  C3  UNL     1      84.397  76.021  98.038  1.00  0.00     0.003 A
HETATM    5  C4  UNL     1      83.403  75.256  98.641  1.00  0.00     0.029 A
HETATM    6  C5  UNL     1      82.208  75.852  99.014  1.00  0.00     0.058 A
ENDROOT
BRANCH   6   7
HETATM    7  C6  UNL     1      81.175  75.005  99.652  1.00  0.00     0.188 C
BRANCH   7   8
HETATM    8  N2  UNL     1      80.219  74.585  98.645  1.00  0.00    -0.346 N
HETATM    9  C7  UNL     1      78.889  74.839  98.578  1.00  0.00     0.109 A
HETATM   10  C8  UNL     1      78.378  74.241  97.447  1.00  0.00     0.106 A
HETATM   11  N3  UNL     1      79.401  73.626  96.831  1.00  0.00    -0.361 N
HETATM   12  C9  UNL     1      80.510  73.841  97.566  1.00  0.00     0.182 A
ATOM     13  H3  UNL     1      79.348  73.091  95.963  1.00  0.00     0.166 HD
ENDBRANCH   7   8
ENDBRANCH   6   7
BRANCH   1  14
HETATM   14  O1  UNL     1      80.799  77.750  99.176  1.00  0.00    -0.283 OA
ATOM     15  H1  UNL     1      80.794  78.485  99.778  1.00  0.00     0.245 HD
ENDBRANCH   1  14
TORSDOF 3
ENDMDL