MODEL 3
REMARK VINA RESULT: -5.816360077      1.540      1.928
REMARK  4 active torsions:
REMARK  status: ('A' for Active; 'I' for Inactive)
REMARK    1  A    between atoms: C4_4  and  C5_5
REMARK    2  A    between atoms: N1_8  and  C8_9
REMARK    3  A    between atoms: C8_9  and  C9_10
REMARK    4  A    between atoms: C9_10  and  O1_11
ROOT
HETATM    1  C1  UNL     1      84.332  77.641  97.450  1.00  0.00     0.027 C
HETATM    2  C2  UNL     1      83.311  77.009  97.591  1.00  0.00    -0.026 C
HETATM    3  C3  UNL     1      82.101  76.285  97.747  1.00  0.00    -0.010 C
HETATM    4  C4  UNL     1      81.065  75.676  97.862  1.00  0.00    -0.053 C
ENDROOT
BRANCH   4   5
HETATM    5  C5  UNL     1      79.814  74.950  97.979  1.00  0.00     0.021 A
HETATM    6  C6  UNL     1      78.832  75.414  98.839  1.00  0.00     0.038 A
HETATM    7  C7  UNL     1      77.619  74.738  98.972  1.00  0.00     0.092 A
HETATM    8  N1  UNL     1      77.434  73.624  98.240  1.00  0.00    -0.364 N
HETATM    9  C10 UNL     1      78.362  73.167  97.413  1.00  0.00     0.092 A
HETATM   10  C11 UNL     1      79.582  73.814  97.255  1.00  0.00     0.038 A
BRANCH   8  11
HETATM   11  C8  UNL     1      76.185  72.902  98.358  1.00  0.00     0.153 C
BRANCH  11  12
HETATM   12  C9  UNL     1      75.568  72.783  96.959  1.00  0.00     0.184 C
BRANCH  12  13
HETATM   13  O1  UNL     1      75.380  71.452  96.643  1.00  0.00    -0.399 OA
ATOM     14  H1  UNL     1      75.842  71.245  95.839  1.00  0.00     0.209 HD
ENDBRANCH  12  13
ENDBRANCH  11  12
ENDBRANCH   8  11
ENDBRANCH   4   5
TORSDOF 4
ENDMDL