MODEL 3
REMARK VINA RESULT: -6.046890484      1.328      1.917
REMARK  3 active torsions:
REMARK  status: ('A' for Active; 'I' for Inactive)
REMARK    1  A    between atoms: N1_1  and  N2_4
REMARK    2  A    between atoms: N3_8  and  C4_9
REMARK    3  A    between atoms: C4_9  and  C5_10
ROOT
HETATM    1  N2  UNL     1      78.133  75.313  99.168  1.00  0.00    -0.269 N
HETATM    2  C1  UNL     1      77.650  74.921  97.986  1.00  0.00     0.118 A
HETATM    3  C2  UNL     1      78.458  74.308  97.057  1.00  0.00     0.036 A
HETATM    4  C3  UNL     1      79.786  74.093  97.341  1.00  0.00     0.093 A
HETATM    5  N3  UNL     1      80.264  74.487  98.522  1.00  0.00    -0.347 N
HETATM    6  C11 UNL     1      79.442  75.079  99.398  1.00  0.00     0.208 A
ENDROOT
BRANCH   5   7
HETATM    7  C4  UNL     1      81.645  74.300  98.901  1.00  0.00     0.167 C
BRANCH   7   8
HETATM    8  C5  UNL     1      82.516  75.419  98.554  1.00  0.00    -0.040 A
HETATM    9  C6  UNL     1      82.058  76.697  98.279  1.00  0.00     0.009 A
HETATM   10  C7  UNL     1      82.935  77.703  97.959  1.00  0.00     0.001 A
HETATM   11  C8  UNL     1      84.302  77.481  97.898  1.00  0.00     0.000 A
HETATM   12  C9  UNL     1      84.765  76.231  98.165  1.00  0.00     0.001 A
HETATM   13  C10 UNL     1      83.876  75.203  98.492  1.00  0.00     0.009 A
ENDBRANCH   7   8
ENDBRANCH   5   7
BRANCH   1  14
HETATM   14  N1  UNL     1      77.332  75.939 100.135  1.00  0.00    -0.338 N
ATOM     15  H12 UNL     1      76.771  76.758  99.900  1.00  0.00     0.177 HD
ATOM     16  H11 UNL     1      77.281  75.606 101.097  1.00  0.00     0.177 HD
ENDBRANCH   1  14
TORSDOF 3
ENDMDL