MODEL 3
REMARK VINA RESULT: -6.167180711      1.218      1.507
REMARK  3 active torsions:
REMARK  status: ('A' for Active; 'I' for Inactive)
REMARK    1  A    between atoms: C1_1  and  C2_2
REMARK    2  A    between atoms: C2_2  and  C3_3
REMARK    3  A    between atoms: N1_8  and  N2_10
ROOT
HETATM    1  C1  UNL     1      79.276  74.069  97.448  1.00  0.00     0.085 C
HETATM    2  N1  UNL     1      78.654  73.136  96.790  1.00  0.00    -0.310 N
ATOM      3  H1  UNL     1      79.116  72.603  96.053  1.00  0.00     0.186 HD
ENDROOT
BRANCH   2   4
HETATM    4  N2  UNL     1      77.331  72.903  97.138  1.00  0.00    -0.279 N
HETATM    5  C7  UNL     1      76.397  73.770  96.751  1.00  0.00     0.115 A
HETATM    6  C8  UNL     1      75.079  73.568  97.080  1.00  0.00     0.019 A
HETATM    7  C9  UNL     1      74.707  72.474  97.806  1.00  0.00     0.003 A
HETATM    8  C10 UNL     1      75.696  71.599  98.188  1.00  0.00     0.019 A
HETATM    9  C11 UNL     1      77.010  71.823  97.848  1.00  0.00     0.115 A
ENDBRANCH   2   4
BRANCH   1  10
HETATM   10  C2  UNL     1      80.696  74.355  97.112  1.00  0.00     0.086 C
BRANCH  10  11
HETATM   11  C3  UNL     1      81.179  75.531  97.855  1.00  0.00    -0.029 A
HETATM   12  C4  UNL     1      82.345  76.225  97.620  1.00  0.00     0.034 A
HETATM   13  C5  UNL     1      82.417  77.245  98.529  1.00  0.00     0.142 A
HETATM   14  O1  UNL     1      81.350  77.165  99.272  1.00  0.00    -0.334 OA
HETATM   15  C6  UNL     1      80.570  76.171  98.928  1.00  0.00     0.148 A
ENDBRANCH  10  11
ENDBRANCH   1  10
TORSDOF 3
ENDMDL