MODEL 5
REMARK VINA RESULT: -7.131163557      3.373      4.606
REMARK  8 active torsions:
REMARK  status: ('A' for Active; 'I' for Inactive)
REMARK    1  A    between atoms: N1_1  and  C1_4
REMARK    2  A    between atoms: C2_7  and  N3_8
REMARK    3  A    between atoms: N3_8  and  C3_10
REMARK    4  A    between atoms: C3_10  and  C4_11
REMARK    5  A    between atoms: C4_11  and  C5_12
REMARK    6  A    between atoms: C5_12  and  C6_13
REMARK    7  A    between atoms: C6_13  and  N4_14
REMARK    8  A    between atoms: C8_23  and  C9_24
ROOT
HETATM    1  C1  UNL     1      24.323  -1.957   8.738  1.00  0.00     0.680 C
HETATM    2  N2  UNL     1      23.594  -2.990   8.222  1.00  0.00    -0.175 N
ATOM      3  H2  UNL     1      22.902  -2.725   7.521  1.00  0.00     0.186 HD
HETATM    4  C2  UNL     1      23.652  -4.305   8.498  1.00  0.00     0.146 C
HETATM    5  C7  UNL     1      24.432  -4.862   9.481  1.00  0.00     0.110 A
HETATM    6  N5  UNL     1      24.247  -6.050  10.061  1.00  0.00    -0.295 N
ATOM      7  H5  UNL     1      23.494  -6.697   9.829  1.00  0.00     0.187 HD
HETATM    8  N6  UNL     1      25.171  -6.276  10.976  1.00  0.00    -0.294 N
ATOM      9  H6  UNL     1      25.230  -7.119  11.547  1.00  0.00     0.187 HD
HETATM   10  C8  UNL     1      26.040  -5.220  11.051  1.00  0.00     0.131 A
HETATM   11  C10 UNL     1      25.574  -4.342  10.116  1.00  0.00     0.098 A
HETATM   12  C11 UNL     1      26.167  -3.140   9.813  1.00  0.00     0.274 C
HETATM   13  O2  UNL     1      27.394  -3.129   9.967  1.00  0.00    -0.267 OA
HETATM   14  N8  UNL     1      25.523  -2.023   9.377  1.00  0.00    -0.155 N
ATOM     15  H8  UNL     1      25.993  -1.134   9.548  1.00  0.00     0.187 HD
ENDROOT
BRANCH   4  16
HETATM   16  N3  UNL     1      22.926  -5.046   7.788  1.00  0.00    -0.374 N
ATOM     17  H3  UNL     1      21.962  -5.122   8.112  1.00  0.00     0.161 HD
BRANCH  16  18
HETATM   18  C3  UNL     1      23.206  -5.796   6.614  1.00  0.00     0.121 C
BRANCH  18  19
HETATM   19  C4  UNL     1      22.303  -5.299   5.513  1.00  0.00     0.021 C
BRANCH  19  20
HETATM   20  C5  UNL     1      22.894  -4.139   4.809  1.00  0.00     0.029 C
BRANCH  20  21
HETATM   21  C6  UNL     1      22.005  -2.942   4.897  1.00  0.00     0.229 C
BRANCH  21  22
HETATM   22  N4  UNL     1      22.782  -1.758   4.571  1.00  0.00    -0.079 N
ATOM     23  H43 UNL     1      22.352  -1.199   3.834  1.00  0.00     0.274 HD
ATOM     24  H42 UNL     1      22.756  -1.058   5.312  1.00  0.00     0.274 HD
ATOM     25  H41 UNL     1      23.733  -2.044   4.339  1.00  0.00     0.274 HD
ENDBRANCH  21  22
ENDBRANCH  20  21
ENDBRANCH  19  20
ENDBRANCH  18  19
ENDBRANCH  16  18
ENDBRANCH   4  16
BRANCH   1  26
HETATM   26  N1  UNL     1      23.826  -0.776   8.612  1.00  0.00    -0.234 N
ATOM     27  H12 UNL     1      24.189  -0.075   9.258  1.00  0.00     0.174 HD
ATOM     28  H11 UNL     1      23.122  -0.649   7.885  1.00  0.00     0.174 HD
ENDBRANCH   1  26
BRANCH  10  29
HETATM   29  C9  UNL     1      27.173  -5.164  11.956  1.00  0.00     0.283 C
HETATM   30  N7  UNL     1      27.071  -4.379  13.164  1.00  0.00    -0.056 NA
HETATM   31  O1  UNL     1      28.272  -5.734  11.821  1.00  0.00    -0.269 OA
ENDBRANCH  10  29
TORSDOF 8
ENDMDL