MODEL 5
REMARK VINA RESULT: -6.973293992      3.906      5.039
REMARK  9 active torsions:
REMARK  status: ('A' for Active; 'I' for Inactive)
REMARK    1  A    between atoms: N1_1  and  C1_4
REMARK    2  A    between atoms: C4_9  and  N3_10
REMARK    3  A    between atoms: N3_10  and  C5_12
REMARK    4  A    between atoms: C5_12  and  C6_13
REMARK    5  A    between atoms: C6_13  and  S1_14
REMARK    6  A    between atoms: S1_14  and  C7_15
REMARK    7  A    between atoms: S1_14  and  C8_18
REMARK    8  A    between atoms: C7_15  and  O1_16
REMARK    9  A    between atoms: C8_18  and  C9_19
ROOT
HETATM    1  C5  UNL     1      22.295  -3.955   8.373  1.00  0.00     0.130 C
ENDROOT
BRANCH   1   2
HETATM    2  N3  UNL     1      21.749  -2.784   8.953  1.00  0.00    -0.375 N
ATOM      3  H3  UNL     1      22.348  -2.310   9.628  1.00  0.00     0.161 HD
BRANCH   2   4
HETATM    4  C4  UNL     1      20.634  -2.248   8.754  1.00  0.00     0.118 A
HETATM    5  C3  UNL     1      19.576  -2.505   9.592  1.00  0.00     0.066 A
HETATM    6  C2  UNL     1      18.334  -1.903   9.365  1.00  0.00     0.110 A
HETATM    7  N2  UNL     1      18.197  -1.076   8.321  1.00  0.00    -0.202 N
HETATM    8  C1  UNL     1      19.230  -0.825   7.502  1.00  0.00     0.677 A
ATOM      9  H2  UNL     1      17.296  -0.630   8.146  1.00  0.00     0.183 HD
HETATM   10  N8  UNL     1      20.438  -1.412   7.725  1.00  0.00    -0.177 N
ATOM     11  H8  UNL     1      21.214  -1.210   7.094  1.00  0.00     0.185 HD
BRANCH   8  12
HETATM   12  N1  UNL     1      19.081  -0.013   6.484  1.00  0.00    -0.234 N
ATOM     13  H12 UNL     1      18.403  -0.235   5.754  1.00  0.00     0.174 HD
ATOM     14  H11 UNL     1      19.640   0.837   6.421  1.00  0.00     0.174 HD
ENDBRANCH   8  12
ENDBRANCH   2   4
ENDBRANCH   1   2
BRANCH   1  15
HETATM   15  C6  UNL     1      23.339  -3.703   7.315  1.00  0.00     0.085 C
BRANCH  15  16
HETATM   16  S1  UNL     1      22.613  -4.137   5.746  1.00  0.00    -0.188 SA
BRANCH  16  17
HETATM   17  C7  UNL     1      22.394  -2.640   4.781  1.00  0.00     0.228 C
BRANCH  17  18
HETATM   18  O1  UNL     1      21.126  -2.142   5.023  1.00  0.00    -0.392 OA
ATOM     19  H1  UNL     1      21.182  -1.500   5.721  1.00  0.00     0.210 HD
ENDBRANCH  17  18
ENDBRANCH  16  17
BRANCH  16  20
HETATM   20  C8  UNL     1      23.680  -5.197   4.812  1.00  0.00     0.144 C
BRANCH  20  21
HETATM   21  C9  UNL     1      23.004  -6.391   4.293  1.00  0.00     0.115 A
HETATM   22  N4  UNL     1      21.755  -6.493   3.862  1.00  0.00    -0.273 N
HETATM   23  N5  UNL     1      21.495  -7.739   3.466  1.00  0.00    -0.007 NA
ATOM     24  H4  UNL     1      21.085  -5.724   3.837  1.00  0.00     0.185 HD
HETATM   25  N6  UNL     1      22.623  -8.415   3.662  1.00  0.00    -0.007 NA
HETATM   26  N7  UNL     1      23.559  -7.603   4.170  1.00  0.00    -0.273 N
ATOM     27  H7  UNL     1      24.515  -7.859   4.416  1.00  0.00     0.185 HD
ENDBRANCH  20  21
ENDBRANCH  16  20
ENDBRANCH  15  16
ENDBRANCH   1  15
TORSDOF 9
ENDMDL