MODEL 4
REMARK VINA RESULT: -6.255373958      3.415      5.712
REMARK  8 active torsions:
REMARK  status: ('A' for Active; 'I' for Inactive)
REMARK    1  A    between atoms: O1_2  and  C2_3
REMARK    2  A    between atoms: C2_3  and  C3_4
REMARK    3  A    between atoms: C3_4  and  N1_5
REMARK    4  A    between atoms: C4_8  and  N3_9
REMARK    5  A    between atoms: N3_9  and  C5_11
REMARK    6  A    between atoms: C5_11  and  C6_12
REMARK    7  A    between atoms: C6_12  and  O2_13
REMARK    8  A    between atoms: C8_16  and  N4_17
ROOT
HETATM    1  N1  UNL     1      19.952  -3.492   9.317  1.00  0.00    -0.252 N
HETATM    2  N2  UNL     1      20.504  -4.686   9.344  1.00  0.00    -0.280 N
ATOM      3  H2  UNL     1      19.939  -5.486   9.628  1.00  0.00     0.189 HD
HETATM    4  C4  UNL     1      21.810  -4.884   9.003  1.00  0.00     0.132 A
HETATM    5  C7  UNL     1      22.606  -3.826   8.612  1.00  0.00     0.086 A
HETATM    6  C8  UNL     1      23.942  -4.016   8.262  1.00  0.00     0.131 A
HETATM    7  N5  UNL     1      24.683  -2.961   7.888  1.00  0.00    -0.176 N
ATOM      8  H5  UNL     1      25.662  -3.078   7.628  1.00  0.00     0.186 HD
HETATM    9  C9  UNL     1      24.098  -1.728   7.865  1.00  0.00     0.678 A
HETATM   10  N6  UNL     1      24.814  -0.737   7.508  1.00  0.00    -0.234 N
ATOM     11  H61 UNL     1      24.377   0.185   7.490  1.00  0.00     0.174 HD
ATOM     12  H62 UNL     1      25.792  -0.872   7.251  1.00  0.00     0.174 HD
HETATM   13  N7  UNL     1      22.812  -1.551   8.204  1.00  0.00    -0.185 N
ATOM     14  H7  UNL     1      22.417  -0.612   8.171  1.00  0.00     0.184 HD
HETATM   15  C10 UNL     1      22.030  -2.573   8.583  1.00  0.00     0.136 A
HETATM   16  C11 UNL     1      20.692  -2.436   8.943  1.00  0.00     0.290 A
HETATM   17  O3  UNL     1      20.176  -1.284   8.911  1.00  0.00    -0.264 OA
ENDROOT
BRANCH   4  18
HETATM   18  N3  UNL     1      22.363  -6.042   9.023  1.00  0.00    -0.372 N
ATOM     19  H3  UNL     1      23.300  -6.102   9.423  1.00  0.00     0.161 HD
BRANCH  18  20
HETATM   20  C5  UNL     1      21.785  -7.254   8.537  1.00  0.00     0.147 C
BRANCH  20  21
HETATM   21  C6  UNL     1      21.367  -7.175   7.094  1.00  0.00     0.183 C
BRANCH  21  22
HETATM   22  O2  UNL     1      19.990  -6.988   7.029  1.00  0.00    -0.399 OA
ATOM     23  H2  UNL     1      19.671  -7.320   6.198  1.00  0.00     0.209 HD
ENDBRANCH  21  22
ENDBRANCH  20  21
ENDBRANCH  18  20
ENDBRANCH   4  18
BRANCH   1  24
HETATM   24  C3  UNL     1      18.539  -3.302   9.688  1.00  0.00     0.178 C
BRANCH  24  25
HETATM   25  C2  UNL     1      18.402  -2.803  11.083  1.00  0.00     0.189 C
BRANCH  25  26
HETATM   26  O1  UNL     1      17.473  -1.796  11.161  1.00  0.00    -0.394 OA
HETATM   27  C1  UNL     1      16.799  -1.577   9.989  1.00  0.00     0.201 C
ENDBRANCH  25  26
ENDBRANCH  24  25
ENDBRANCH   1  24
BRANCH   6  28
HETATM   28  N4  UNL     1      24.475  -5.186   8.291  1.00  0.00    -0.384 N
ATOM     29  H42 UNL     1      24.787  -5.619   7.422  1.00  0.00     0.157 HD
ATOM     30  H41 UNL     1      24.592  -5.689   9.171  1.00  0.00     0.157 HD
ENDBRANCH   6  28
TORSDOF 8
ENDMDL