MODEL 1
REMARK VINA RESULT: -7.121598764      0.000      0.000
REMARK  7 active torsions:
REMARK  status: ('A' for Active; 'I' for Inactive)
REMARK    1  A    between atoms: N1_2  and  C3_5
REMARK    2  A    between atoms: C4_8  and  N4_9
REMARK    3  A    between atoms: C6_16  and  O2_17
REMARK    4  A    between atoms: O2_17  and  C7_18
REMARK    5  A    between atoms: C7_18  and  C8_19
REMARK    6  A    between atoms: C8_19  and  C9_21
REMARK    7  A    between atoms: C9_21  and  N7_22
ROOT
HETATM    1  C1  UNL     1      19.667  -1.350   7.869  1.00  0.00     0.170 C
HETATM    2  N1  UNL     1      20.477  -2.331   8.564  1.00  0.00    -0.272 N
HETATM    3  C2  UNL     1      19.887  -3.162   9.503  1.00  0.00     0.185 C
HETATM    4  N2  UNL     1      19.378  -3.869  10.279  1.00  0.00    -0.172 NA
ENDROOT
BRANCH   2   5
HETATM    5  C3  UNL     1      21.884  -2.485   8.273  1.00  0.00     0.171 A
HETATM    6  N3  UNL     1      22.722  -1.483   8.696  1.00  0.00    -0.173 N
HETATM    7  C4  UNL     1      24.046  -1.561   8.530  1.00  0.00     0.680 A
ATOM      8  H3  UNL     1      22.324  -0.660   9.147  1.00  0.00     0.186 HD
HETATM    9  N5  UNL     1      24.545  -2.658   7.932  1.00  0.00    -0.154 N
HETATM   10  C5  UNL     1      23.812  -3.658   7.499  1.00  0.00     0.297 A
ATOM     11  H5  UNL     1      25.555  -2.716   7.806  1.00  0.00     0.187 HD
HETATM   12  O1  UNL     1      24.254  -4.695   6.937  1.00  0.00    -0.264 OA
HETATM   13  C6  UNL     1      22.418  -3.587   7.667  1.00  0.00     0.189 A
BRANCH   7  14
HETATM   14  N4  UNL     1      24.794  -0.586   8.947  1.00  0.00    -0.234 N
ATOM     15  H42 UNL     1      24.600  -0.067   9.803  1.00  0.00     0.174 HD
ATOM     16  H41 UNL     1      25.615  -0.321   8.402  1.00  0.00     0.174 HD
ENDBRANCH   7  14
BRANCH  13  17
HETATM   17  O2  UNL     1      21.633  -4.614   7.216  1.00  0.00    -0.312 OA
BRANCH  17  18
HETATM   18  C7  UNL     1      21.376  -5.872   7.619  1.00  0.00     0.166 C
BRANCH  18  19
HETATM   19  C8  UNL     1      20.875  -6.948   6.758  1.00  0.00     0.064 C
HETATM   20  N6  UNL     1      20.025  -7.918   7.346  1.00  0.00    -0.103 NA
BRANCH  19  21
HETATM   21  C9  UNL     1      21.854  -7.576   5.802  1.00  0.00     0.177 C
BRANCH  21  22
HETATM   22  N7  UNL     1      22.748  -6.606   5.210  1.00  0.00    -0.362 N
HETATM   23  C10 UNL     1      22.560  -5.963   4.127  1.00  0.00     0.197 C
HETATM   24  N8  UNL     1      21.437  -6.080   3.296  1.00  0.00    -0.067 NA
HETATM   25  N9  UNL     1      23.572  -5.055   3.730  1.00  0.00    -0.067 NA
ATOM     26  H7  UNL     1      23.616  -6.417   5.710  1.00  0.00     0.162 HD
ENDBRANCH  21  22
ENDBRANCH  19  21
ENDBRANCH  18  19
ENDBRANCH  17  18
ENDBRANCH  13  17
ENDBRANCH   2   5
TORSDOF 7
ENDMDL