MODEL 1
REMARK VINA RESULT: -7.655121036      0.000      0.000
REMARK  7 active torsions:
REMARK  status: ('A' for Active; 'I' for Inactive)
REMARK    1  A    between atoms: N1_1  and  C1_4
REMARK    2  A    between atoms: C4_12  and  N4_13
REMARK    3  A    between atoms: N4_13  and  C5_15
REMARK    4  A    between atoms: C5_15  and  C6_16
REMARK    5  A    between atoms: C6_16  and  C7_17
REMARK    6  A    between atoms: C7_17  and  O2_18
REMARK    7  A    between atoms: O2_18  and  C8_19
ROOT
HETATM    1  C1  UNL     1      22.648  -8.242   4.413  1.00  0.00     0.681 C
HETATM    2  N2  UNL     1      22.314  -7.049   3.871  1.00  0.00    -0.154 N
ATOM      3  H2  UNL     1      21.952  -7.102   2.919  1.00  0.00     0.187 HD
HETATM    4  C2  UNL     1      22.380  -5.795   4.382  1.00  0.00     0.289 C
HETATM    5  O1  UNL     1      21.728  -4.898   3.789  1.00  0.00    -0.265 OA
HETATM    6  C3  UNL     1      23.087  -5.365   5.493  1.00  0.00     0.150 A
HETATM    7  N3  UNL     1      23.313  -4.088   5.853  1.00  0.00    -0.184 N
ATOM      8  H3  UNL     1      22.983  -3.271   5.339  1.00  0.00     0.184 HD
HETATM    9  C4  UNL     1      24.032  -4.042   6.980  1.00  0.00     0.679 A
HETATM   10  N6  UNL     1      24.264  -5.312   7.341  1.00  0.00    -0.184 N
ATOM     11  H6  UNL     1      24.790  -5.602   8.165  1.00  0.00     0.184 HD
HETATM   12  C9  UNL     1      23.698  -6.149   6.450  1.00  0.00     0.150 A
HETATM   13  C10 UNL     1      23.730  -7.530   6.495  1.00  0.00     0.289 C
HETATM   14  O4  UNL     1      24.325  -7.967   7.515  1.00  0.00    -0.265 OA
HETATM   15  N7  UNL     1      23.222  -8.414   5.615  1.00  0.00    -0.154 N
ATOM     16  H7  UNL     1      23.284  -9.386   5.915  1.00  0.00     0.187 HD
ENDROOT
BRANCH   9  17
HETATM   17  N4  UNL     1      24.414  -2.984   7.586  1.00  0.00    -0.226 N
ATOM     18  H4  UNL     1      25.333  -2.591   7.380  1.00  0.00     0.177 HD
BRANCH  17  19
HETATM   19  C5  UNL     1      23.563  -2.333   8.561  1.00  0.00     0.140 C
BRANCH  19  20
HETATM   20  C6  UNL     1      24.265  -1.127   9.160  1.00  0.00     0.047 C
BRANCH  20  21
HETATM   21  C7  UNL     1      25.617  -1.542   9.691  1.00  0.00     0.182 C
BRANCH  21  22
HETATM   22  O2  UNL     1      25.685  -2.877  10.113  1.00  0.00    -0.306 OA
BRANCH  22  23
HETATM   23  C8  UNL     1      26.771  -3.699   9.998  1.00  0.00     0.372 C
HETATM   24  N5  UNL     1      27.004  -4.530   8.863  1.00  0.00    -0.032 NA
HETATM   25  O3  UNL     1      27.621  -3.740  10.921  1.00  0.00    -0.242 OA
ENDBRANCH  22  23
ENDBRANCH  21  22
ENDBRANCH  20  21
ENDBRANCH  19  20
ENDBRANCH  17  19
ENDBRANCH   9  17
BRANCH   1  26
HETATM   26  N1  UNL     1      22.383  -9.289   3.693  1.00  0.00    -0.234 N
ATOM     27  H12 UNL     1      21.478  -9.745   3.805  1.00  0.00     0.174 HD
ATOM     28  H11 UNL     1      23.117  -9.589   3.052  1.00  0.00     0.174 HD
ENDBRANCH   1  26
TORSDOF 7
ENDMDL