MODEL 4
REMARK VINA RESULT: -7.482531154      1.086      1.758
REMARK  7 active torsions:
REMARK  status: ('A' for Active; 'I' for Inactive)
REMARK    1  A    between atoms: C3_5  and  N2_6
REMARK    2  A    between atoms: N2_6  and  C4_8
REMARK    3  A    between atoms: C4_8  and  C5_9
REMARK    4  A    between atoms: C5_9  and  C6_10
REMARK    5  A    between atoms: C5_9  and  C7_15
REMARK    6  A    between atoms: C6_10  and  N3_11
REMARK    7  A    between atoms: C7_15  and  N4_16
ROOT
HETATM    1  C5  UNL     1      24.106  -2.500   8.380  1.00  0.00     0.049 C
ENDROOT
BRANCH   1   2
HETATM    2  C4  UNL     1      22.974  -1.624   8.965  1.00  0.00     0.146 C
BRANCH   2   3
HETATM    3  N2  UNL     1      21.755  -2.365   9.080  1.00  0.00    -0.225 N
ATOM      4  H2  UNL     1      21.851  -3.331   9.392  1.00  0.00     0.177 HD
BRANCH   3   5
HETATM    5  C3  UNL     1      20.574  -1.979   8.845  1.00  0.00     0.683 A
HETATM    6  N1  UNL     1      19.498  -2.216   9.611  1.00  0.00    -0.181 N
HETATM    7  C2  UNL     1      18.259  -1.784   9.325  1.00  0.00     0.097 A
ATOM      8  H1  UNL     1      19.629  -2.759  10.465  1.00  0.00     0.185 HD
HETATM    9  C1  UNL     1      17.083  -2.072  10.211  1.00  0.00     0.089 C
HETATM   10  N9  UNL     1      18.057  -1.073   8.214  1.00  0.00    -0.297 N
HETATM   11  C11 UNL     1      19.124  -0.811   7.408  1.00  0.00     0.339 A
ATOM     12  H9  UNL     1      17.126  -0.733   7.974  1.00  0.00     0.172 HD
HETATM   13  N8  UNL     1      20.350  -1.260   7.730  1.00  0.00    -0.141 N
HETATM   14  O1  UNL     1      18.939  -0.130   6.343  1.00  0.00    -0.246 OA
ATOM     15  H8  UNL     1      21.133  -1.050   7.111  1.00  0.00     0.189 HD
ENDBRANCH   3   5
ENDBRANCH   2   3
ENDBRANCH   1   2
BRANCH   1  16
HETATM   16  C6  UNL     1      25.180  -2.443   9.437  1.00  0.00     0.237 C
BRANCH  16  17
HETATM   17  N3  UNL     1      25.170  -3.515  10.370  1.00  0.00    -0.079 N
ATOM     18  H33 UNL     1      24.215  -3.836  10.525  1.00  0.00     0.274 HD
ATOM     19  H32 UNL     1      25.574  -4.351   9.948  1.00  0.00     0.274 HD
ATOM     20  H31 UNL     1      25.624  -3.319  11.262  1.00  0.00     0.274 HD
ENDBRANCH  16  17
ENDBRANCH   1  16
BRANCH   1  21
HETATM   21  C7  UNL     1      23.547  -3.852   8.157  1.00  0.00     0.156 C
BRANCH  21  22
HETATM   22  N4  UNL     1      23.383  -4.308   6.832  1.00  0.00    -0.287 N
HETATM   23  C8  UNL     1      22.696  -3.482   5.895  1.00  0.00     0.128 A
HETATM   24  C9  UNL     1      22.526  -3.831   4.630  1.00  0.00     0.125 A
HETATM   25  N5  UNL     1      23.047  -5.080   4.173  1.00  0.00    -0.200 N
HETATM   26  C10 UNL     1      23.747  -5.971   5.035  1.00  0.00     0.690 A
ATOM     27  H5  UNL     1      22.913  -5.342   3.196  1.00  0.00     0.183 HD
HETATM   28  N6  UNL     1      24.233  -7.100   4.670  1.00  0.00    -0.233 N
HETATM   29  N7  UNL     1      23.890  -5.518   6.396  1.00  0.00    -0.131 N
ATOM     30  H62 UNL     1      24.131  -7.420   3.708  1.00  0.00     0.174 HD
ATOM     31  H61 UNL     1      24.735  -7.738   5.288  1.00  0.00     0.174 HD
ATOM     32  H7  UNL     1      24.385  -6.112   7.061  1.00  0.00     0.206 HD
ENDBRANCH  21  22
ENDBRANCH   1  21
TORSDOF 7
ENDMDL