MODEL 5
REMARK VINA RESULT: -6.944489165      4.062      6.212
REMARK  10 active torsions:
REMARK  status: ('A' for Active; 'I' for Inactive)
REMARK    1  A    between atoms: N1_1  and  C1_4
REMARK    2  A    between atoms: C3_10  and  N4_11
REMARK    3  A    between atoms: N4_11  and  C4_13
REMARK    4  A    between atoms: C4_13  and  C5_14
REMARK    5  A    between atoms: C5_14  and  O1_15
REMARK    6  A    between atoms: N6_22  and  C8_23
REMARK    7  A    between atoms: C8_23  and  O3_24
REMARK    8  A    between atoms: O3_24  and  C9_25
REMARK    9  A    between atoms: C9_25  and  C10_26
REMARK   10  A    between atoms: C11_27  and  N7_28
ROOT
HETATM    1  C1  UNL     1      23.577  -6.841   6.126  1.00  0.00     0.686 A
HETATM    2  N2  UNL     1      24.184  -6.100   7.045  1.00  0.00    -0.173 N
ATOM      3  H2  UNL     1      24.783  -6.456   7.789  1.00  0.00     0.186 HD
HETATM    4  C2  UNL     1      23.881  -4.799   6.840  1.00  0.00     0.170 A
HETATM    5  N3  UNL     1      24.221  -3.673   7.482  1.00  0.00    -0.174 N
ATOM      6  H3  UNL     1      24.837  -3.716   8.294  1.00  0.00     0.186 HD
HETATM    7  C3  UNL     1      23.754  -2.495   7.062  1.00  0.00     0.682 A
HETATM    8  N5  UNL     1      22.937  -2.389   5.996  1.00  0.00    -0.154 N
ATOM      9  H5  UNL     1      22.598  -1.473   5.702  1.00  0.00     0.187 HD
HETATM   10  C6  UNL     1      22.570  -3.482   5.322  1.00  0.00     0.291 A
HETATM   11  O2  UNL     1      21.818  -3.366   4.351  1.00  0.00    -0.265 OA
HETATM   12  C7  UNL     1      23.030  -4.716   5.720  1.00  0.00     0.171 A
HETATM   13  N6  UNL     1      22.875  -5.986   5.319  1.00  0.00    -0.129 N
ENDROOT
BRANCH  13  14
HETATM   14  C8  UNL     1      22.060  -6.425   4.217  1.00  0.00     0.253 C
BRANCH  14  15
HETATM   15  O3  UNL     1      21.404  -7.590   4.357  1.00  0.00    -0.334 OA
BRANCH  15  16
HETATM   16  C9  UNL     1      21.510  -8.562   3.409  1.00  0.00     0.271 C
BRANCH  16  17
HETATM   17  C10 UNL     1      20.504  -9.619   3.668  1.00  0.00    -0.057 C
HETATM   18  C11 UNL     1      19.700 -10.494   3.885  1.00  0.00     0.005 C
BRANCH  18  19
HETATM   19  N7  UNL     1      18.781 -11.519   4.150  1.00  0.00    -0.359 N
ATOM     20  H72 UNL     1      19.673 -11.141   4.467  1.00  0.00     0.166 HD
ATOM     21  H71 UNL     1      18.103 -12.259   4.331  1.00  0.00     0.166 HD
ENDBRANCH  18  19
ENDBRANCH  16  17
ENDBRANCH  15  16
ENDBRANCH  14  15
ENDBRANCH  13  14
BRANCH   1  22
HETATM   22  N1  UNL     1      23.606  -8.129   5.971  1.00  0.00    -0.234 N
ATOM     23  H12 UNL     1      23.966  -8.781   6.668  1.00  0.00     0.174 HD
ATOM     24  H11 UNL     1      23.294  -8.684   5.175  1.00  0.00     0.174 HD
ENDBRANCH   1  22
BRANCH   7  25
HETATM   25  N4  UNL     1      24.075  -1.425   7.669  1.00  0.00    -0.224 N
ATOM     26  H4  UNL     1      24.376  -0.615   7.127  1.00  0.00     0.177 HD
BRANCH  25  27
HETATM   27  C4  UNL     1      24.022  -1.331   9.112  1.00  0.00     0.164 C
BRANCH  27  28
HETATM   28  C5  UNL     1      25.442  -0.987   9.570  1.00  0.00     0.184 C
BRANCH  28  29
HETATM   29  O1  UNL     1      26.155  -2.179   9.700  1.00  0.00    -0.399 OA
ATOM     30  H1  UNL     1      27.081  -1.977   9.634  1.00  0.00     0.209 HD
ENDBRANCH  28  29
ENDBRANCH  27  28
ENDBRANCH  25  27
ENDBRANCH   7  25
TORSDOF 10
ENDMDL