MODEL 4
REMARK VINA RESULT: -6.376383891      4.189      6.802
REMARK  6 active torsions:
REMARK  status: ('A' for Active; 'I' for Inactive)
REMARK    1  A    between atoms: O1_2  and  C2_3
REMARK    2  A    between atoms: C2_3  and  N1_4
REMARK    3  A    between atoms: N2_6  and  C4_8
REMARK    4  A    between atoms: C4_8  and  C5_9
REMARK    5  A    between atoms: C5_9  and  N3_10
REMARK    6  A    between atoms: C8_21  and  N6_22
ROOT
HETATM    1  N1  UNL     1      21.191  -3.471   8.183  1.00  0.00    -0.154 N
HETATM    2  C3  UNL     1      21.505  -4.683   8.733  1.00  0.00     0.683 A
HETATM    3  N2  UNL     1      22.454  -5.417   8.259  1.00  0.00    -0.224 N
ATOM      4  H2  UNL     1      22.986  -5.092   7.452  1.00  0.00     0.177 HD
HETATM    5  N4  UNL     1      20.699  -4.932   9.774  1.00  0.00    -0.184 N
ATOM      6  H4  UNL     1      20.722  -5.766  10.361  1.00  0.00     0.184 HD
HETATM    7  C6  UNL     1      19.856  -3.896   9.913  1.00  0.00     0.150 A
HETATM    8  C7  UNL     1      18.875  -3.790  10.880  1.00  0.00     0.289 C
HETATM    9  O2  UNL     1      19.053  -4.519  11.876  1.00  0.00    -0.265 OA
HETATM   10  N5  UNL     1      17.804  -2.987  10.803  1.00  0.00    -0.154 N
ATOM     11  H5  UNL     1      17.114  -3.117  11.542  1.00  0.00     0.187 HD
HETATM   12  C8  UNL     1      17.497  -2.029   9.891  1.00  0.00     0.681 C
HETATM   13  N7  UNL     1      18.317  -1.446   8.998  1.00  0.00    -0.154 N
ATOM     14  H7  UNL     1      17.921  -0.645   8.506  1.00  0.00     0.187 HD
HETATM   15  C9  UNL     1      19.570  -1.757   8.660  1.00  0.00     0.289 C
HETATM   16  O3  UNL     1      20.297  -0.919   8.076  1.00  0.00    -0.265 OA
HETATM   17  C10 UNL     1      20.179  -2.983   8.904  1.00  0.00     0.155 A
ENDROOT
BRANCH   1  18
HETATM   18  C2  UNL     1      21.806  -2.835   7.060  1.00  0.00     0.317 C
BRANCH  18  19
HETATM   19  O1  UNL     1      21.789  -3.606   5.895  1.00  0.00    -0.376 OA
HETATM   20  C1  UNL     1      22.180  -2.742   4.847  1.00  0.00     0.203 C
ENDBRANCH  18  19
ENDBRANCH   1  18
BRANCH   3  21
HETATM   21  C4  UNL     1      22.773  -6.700   8.857  1.00  0.00     0.165 C
BRANCH  21  22
HETATM   22  C5  UNL     1      22.126  -7.759   7.981  1.00  0.00     0.249 C
BRANCH  22  23
HETATM   23  N3  UNL     1      20.961  -8.344   8.591  1.00  0.00    -0.078 N
ATOM     24  H33 UNL     1      20.401  -7.636   9.064  1.00  0.00     0.274 HD
ATOM     25  H32 UNL     1      20.288  -8.642   7.884  1.00  0.00     0.274 HD
ATOM     26  H31 UNL     1      21.193  -9.112   9.222  1.00  0.00     0.274 HD
ENDBRANCH  22  23
ENDBRANCH  21  22
ENDBRANCH   3  21
BRANCH  12  27
HETATM   27  N6  UNL     1      16.273  -1.625   9.877  1.00  0.00    -0.234 N
ATOM     28  H62 UNL     1      15.964  -1.116  10.705  1.00  0.00     0.174 HD
ATOM     29  H61 UNL     1      15.732  -1.852   9.043  1.00  0.00     0.174 HD
ENDBRANCH  12  27
TORSDOF 6
ENDMDL