MODEL 4
REMARK VINA RESULT: -7.039137068      3.496      5.485
REMARK  8 active torsions:
REMARK  status: ('A' for Active; 'I' for Inactive)
REMARK    1  A    between atoms: N1_1  and  C1_4
REMARK    2  A    between atoms: C3_8  and  N3_9
REMARK    3  A    between atoms: N3_9  and  C4_10
REMARK    4  A    between atoms: C4_10  and  C5_11
REMARK    5  A    between atoms: C5_11  and  C6_12
REMARK    6  A    between atoms: C6_12  and  C7_13
REMARK    7  A    between atoms: C7_13  and  O1_14
REMARK    8  A    between atoms: N5_22  and  C10_23
ROOT
HETATM    1  C1  UNL     1      23.548  -2.127   8.587  1.00  0.00     0.678 A
HETATM    2  N2  UNL     1      23.875  -3.376   8.952  1.00  0.00    -0.185 N
ATOM      3  H2  UNL     1      24.163  -3.654   9.890  1.00  0.00     0.184 HD
HETATM    4  C2  UNL     1      23.767  -4.204   7.907  1.00  0.00     0.140 A
HETATM    5  C3  UNL     1      24.061  -5.585   8.013  1.00  0.00     0.204 C
HETATM    6  C8  UNL     1      23.669  -6.480   7.005  1.00  0.00     0.292 C
HETATM    7  O2  UNL     1      23.332  -7.602   7.425  1.00  0.00    -0.264 OA
HETATM    8  N4  UNL     1      23.616  -6.269   5.666  1.00  0.00    -0.272 N
ATOM      9  H4  UNL     1      23.703  -7.094   5.071  1.00  0.00     0.174 HD
HETATM   10  C9  UNL     1      23.462  -5.088   5.039  1.00  0.00     0.337 C
HETATM   11  O3  UNL     1      23.657  -5.067   3.811  1.00  0.00    -0.246 OA
HETATM   12  N5  UNL     1      23.115  -3.889   5.569  1.00  0.00    -0.223 N
HETATM   13  C11 UNL     1      23.354  -3.457   6.824  1.00  0.00     0.164 A
HETATM   14  N6  UNL     1      23.232  -2.207   7.270  1.00  0.00    -0.174 N
ATOM     15  H6  UNL     1      22.940  -1.415   6.697  1.00  0.00     0.186 HD
ENDROOT
BRANCH   5  16
HETATM   16  N3  UNL     1      24.655  -5.922   8.993  1.00  0.00    -0.414 NA
BRANCH  16  17
HETATM   17  C4  UNL     1      24.951  -6.471  10.188  1.00  0.00     0.156 C
BRANCH  17  18
HETATM   18  C5  UNL     1      25.362  -5.566  11.343  1.00  0.00     0.061 C
BRANCH  18  19
HETATM   19  C6  UNL     1      26.796  -5.153  11.108  1.00  0.00     0.032 C
BRANCH  19  20
HETATM   20  C7  UNL     1      26.979  -3.924  10.289  1.00  0.00     0.164 C
BRANCH  20  21
HETATM   21  O1  UNL     1      27.198  -4.199   8.936  1.00  0.00    -0.401 OA
ATOM     22  H1  UNL     1      26.409  -4.471   8.482  1.00  0.00     0.209 HD
ENDBRANCH  20  21
ENDBRANCH  19  20
ENDBRANCH  18  19
ENDBRANCH  17  18
ENDBRANCH  16  17
ENDBRANCH   5  16
BRANCH   1  23
HETATM   23  N1  UNL     1      23.528  -1.044   9.318  1.00  0.00    -0.234 N
ATOM     24  H12 UNL     1      22.695  -0.541   9.624  1.00  0.00     0.174 HD
ATOM     25  H11 UNL     1      24.317  -0.523   9.703  1.00  0.00     0.174 HD
ENDBRANCH   1  23
BRANCH  12  26
HETATM   26  C10 UNL     1      22.429  -2.980   4.735  1.00  0.00     0.365 C
HETATM   27  O4  UNL     1      21.295  -2.517   5.109  1.00  0.00    -0.283 OA
ENDBRANCH  12  26
TORSDOF 8
ENDMDL