MODEL 3
REMARK VINA RESULT: -6.777921138      1.894      3.053
REMARK  10 active torsions:
REMARK  status: ('A' for Active; 'I' for Inactive)
REMARK    1  A    between atoms: N1_1  and  C1_4
REMARK    2  A    between atoms: C3_8  and  N3_9
REMARK    3  A    between atoms: N3_9  and  C4_11
REMARK    4  A    between atoms: C4_11  and  N4_12
REMARK    5  A    between atoms: N7_23  and  C7_24
REMARK    6  A    between atoms: C7_24  and  O2_25
REMARK    7  A    between atoms: O2_25  and  C8_26
REMARK    8  A    between atoms: C8_26  and  C9_28
REMARK    9  A    between atoms: C9_28  and  C10_29
REMARK   10  A    between atoms: C10_29  and  N8_30
ROOT
HETATM    1  C1  UNL     1      23.041  -3.266   7.499  1.00  0.00     0.682 A
HETATM    2  N2  UNL     1      22.221  -2.216   7.339  1.00  0.00    -0.184 N
ATOM      3  H2  UNL     1      22.404  -1.406   6.745  1.00  0.00     0.184 HD
HETATM    4  C2  UNL     1      21.110  -2.404   8.094  1.00  0.00     0.138 A
HETATM    5  C3  UNL     1      19.961  -1.672   8.314  1.00  0.00     0.138 A
HETATM    6  N5  UNL     1      19.030  -2.168   9.151  1.00  0.00    -0.293 N
ATOM      7  H5  UNL     1      18.179  -1.631   9.317  1.00  0.00     0.172 HD
HETATM    8  C5  UNL     1      19.190  -3.362   9.781  1.00  0.00     0.327 A
HETATM    9  O1  UNL     1      18.290  -3.783  10.555  1.00  0.00    -0.247 OA
HETATM   10  N6  UNL     1      20.325  -4.041   9.536  1.00  0.00    -0.292 N
ATOM     11  H6  UNL     1      20.453  -4.938  10.004  1.00  0.00     0.172 HD
HETATM   12  C6  UNL     1      21.294  -3.619   8.722  1.00  0.00     0.161 A
HETATM   13  N7  UNL     1      22.492  -4.152   8.352  1.00  0.00    -0.144 N
ENDROOT
BRANCH  13  14
HETATM   14  C7  UNL     1      23.042  -5.418   8.800  1.00  0.00     0.330 C
BRANCH  14  15
HETATM   15  O2  UNL     1      22.227  -6.505   8.463  1.00  0.00    -0.300 OA
BRANCH  15  16
HETATM   16  C8  UNL     1      22.105  -6.872   7.132  1.00  0.00     0.262 C
HETATM   17  O3  UNL     1      21.041  -6.569   6.536  1.00  0.00    -0.265 OA
BRANCH  16  18
HETATM   18  C9  UNL     1      23.156  -7.596   6.391  1.00  0.00     0.138 C
BRANCH  18  19
HETATM   19  C10 UNL     1      23.733  -6.635   5.343  1.00  0.00     0.239 C
BRANCH  19  20
HETATM   20  N8  UNL     1      24.200  -7.458   4.250  1.00  0.00    -0.079 N
ATOM     21  H83 UNL     1      25.202  -7.375   4.080  1.00  0.00     0.274 HD
ATOM     22  H82 UNL     1      24.191  -8.456   4.461  1.00  0.00     0.274 HD
ATOM     23  H81 UNL     1      23.631  -7.211   3.440  1.00  0.00     0.274 HD
ENDBRANCH  19  20
ENDBRANCH  18  19
ENDBRANCH  16  18
ENDBRANCH  15  16
ENDBRANCH  14  15
ENDBRANCH  13  14
BRANCH   1  24
HETATM   24  N1  UNL     1      24.191  -3.402   6.919  1.00  0.00    -0.234 N
ATOM     25  H12 UNL     1      24.480  -2.923   6.065  1.00  0.00     0.174 HD
ATOM     26  H11 UNL     1      24.943  -4.007   7.250  1.00  0.00     0.174 HD
ENDBRANCH   1  24
BRANCH   5  27
HETATM   27  N3  UNL     1      19.825  -0.551   7.715  1.00  0.00    -0.351 N
ATOM     28  H3  UNL     1      20.407   0.225   8.027  1.00  0.00     0.162 HD
BRANCH  27  29
HETATM   29  C4  UNL     1      18.912  -0.304   6.636  1.00  0.00     0.353 C
BRANCH  29  30
HETATM   30  N4  UNL     1      19.439  -0.760   5.361  1.00  0.00    -0.064 N
ATOM     31  H43 UNL     1      19.318  -0.053   4.636  1.00  0.00     0.276 HD
ATOM     32  H42 UNL     1      20.458  -0.803   5.376  1.00  0.00     0.276 HD
ATOM     33  H41 UNL     1      19.035  -1.653   5.076  1.00  0.00     0.276 HD
ENDBRANCH  29  30
ENDBRANCH  27  29
ENDBRANCH   5  27
TORSDOF 10
ENDMDL