MODEL 4
REMARK VINA RESULT: -6.340847285      1.355      1.962
REMARK  5 active torsions:
REMARK  status: ('A' for Active; 'I' for Inactive)
REMARK    1  A    between atoms: C2_2  and  O1_3
REMARK    2  A    between atoms: C7_9  and  C8_10
REMARK    3  A    between atoms: C9_11  and  C10_12
REMARK    4  A    between atoms: C10_12  and  N1_13
REMARK    5  A    between atoms: C10_12  and  C11_17
ROOT
HETATM    1  C8  UNL     1      15.630  16.871  21.166  1.00  0.00    -0.017 C
HETATM    2  C9  UNL     1      14.594  16.542  21.923  1.00  0.00     0.013 C
ENDROOT
BRANCH   1   3
HETATM    3  C7  UNL     1      15.932  16.246  19.866  1.00  0.00     0.064 C
HETATM    4  C2  UNL     1      16.768  17.135  18.976  1.00  0.00     0.065 C
HETATM    5  C1  UNL     1      17.799  17.907  19.735  1.00  0.00     0.047 C
HETATM    6  C3  UNL     1      15.836  18.098  18.227  1.00  0.00     0.042 C
HETATM    7  C4  UNL     1      15.040  17.242  17.266  1.00  0.00     0.030 C
HETATM    8  C5  UNL     1      14.234  16.297  18.057  1.00  0.00    -0.030 C
HETATM    9  C6  UNL     1      14.652  15.859  19.228  1.00  0.00    -0.019 C
BRANCH   4  10
HETATM   10  O1  UNL     1      17.401  16.390  17.980  1.00  0.00    -0.389 OA
ATOM     11  H1  UNL     1      18.333  16.569  18.006  1.00  0.00     0.210 HD
ENDBRANCH   4  10
ENDBRANCH   1   3
BRANCH   2  12
HETATM   12  C10 UNL     1      14.309  17.187  23.233  1.00  0.00     0.306 C
BRANCH  12  13
HETATM   13  N1  UNL     1      15.448  16.896  24.117  1.00  0.00    -0.062 N
ATOM     14  H13 UNL     1      16.349  16.973  23.646  1.00  0.00     0.275 HD
ATOM     15  H12 UNL     1      15.604  17.620  24.818  1.00  0.00     0.275 HD
ATOM     16  H11 UNL     1      15.286  15.975  24.523  1.00  0.00     0.275 HD
ENDBRANCH  12  13
BRANCH  12  17
HETATM   17  C11 UNL     1      13.084  16.687  23.862  1.00  0.00     0.208 C
HETATM   18  O2  UNL     1      13.099  15.563  24.424  1.00  0.00    -0.646 OA
HETATM   19  O3  UNL     1      11.895  17.399  23.872  1.00  0.00    -0.646 OA
ENDBRANCH  12  17
ENDBRANCH   2  12
TORSDOF 5
ENDMDL