MODEL 1
REMARK VINA RESULT: -6.678697420      0.000      0.000
REMARK  5 active torsions:
REMARK  status: ('A' for Active; 'I' for Inactive)
REMARK    1  A    between atoms: C3_3  and  N1_4
REMARK    2  A    between atoms: C3_3  and  C10_13
REMARK       I    between atoms: N1_4  and  C4_6
REMARK    3  A    between atoms: C4_6  and  C5_8
REMARK    4  A    between atoms: C10_13  and  O2_14
REMARK    5  A    between atoms: N2_16  and  O3_18
ROOT
HETATM    1  C1  UNL     1      15.645  17.038  23.144  1.00  0.00     0.015 C
HETATM    2  C2  UNL     1      16.173  17.216  22.066  1.00  0.00    -0.083 C
HETATM    3  C3  UNL     1      16.789  17.432  20.745  1.00  0.00     0.240 C
ENDROOT
BRANCH   3   4
HETATM    4  N1  UNL     1      16.387  16.382  19.815  1.00  0.00    -0.339 N
HETATM    5  C4  UNL     1      15.524  16.609  18.728  1.00  0.00     0.223 C
HETATM    6  O1  UNL     1      15.072  17.749  18.532  1.00  0.00    -0.273 OA
ATOM      7  H1  UNL     1      16.748  15.440  19.960  1.00  0.00     0.164 HD
BRANCH   5   8
HETATM    8  C5  UNL     1      15.164  15.503  17.835  1.00  0.00     0.078 C
HETATM    9  C6  UNL     1      14.914  14.274  18.702  1.00  0.00     0.014 C
HETATM   10  C7  UNL     1      13.451  14.276  19.027  1.00  0.00     0.001 C
HETATM   11  C8  UNL     1      12.809  15.323  18.155  1.00  0.00     0.001 C
HETATM   12  C9  UNL     1      13.850  15.691  17.139  1.00  0.00     0.014 C
ENDBRANCH   5   8
ENDBRANCH   3   4
BRANCH   3  13
HETATM   13  C10 UNL     1      18.261  17.345  20.867  1.00  0.00     0.171 C
HETATM   14  N2  UNL     1      19.015  17.044  19.878  1.00  0.00    -0.248 N
ATOM     15  H2  UNL     1      18.565  16.862  18.981  1.00  0.00     0.196 HD
BRANCH  13  16
HETATM   16  O2  UNL     1      18.835  17.601  22.098  1.00  0.00    -0.346 OA
ATOM     17  H2  UNL     1      19.767  17.788  22.133  1.00  0.00     0.219 HD
ENDBRANCH  13  16
BRANCH  14  18
HETATM   18  O3  UNL     1      20.365  16.950  19.933  1.00  0.00    -0.288 OA
ATOM     19  H3  UNL     1      20.892  16.371  19.396  1.00  0.00     0.244 HD
ENDBRANCH  14  18
ENDBRANCH   3  13
TORSDOF 5
ENDMDL