MODEL 4
REMARK VINA RESULT: -6.068974805      2.308      3.374
REMARK  4 active torsions:
REMARK  status: ('A' for Active; 'I' for Inactive)
REMARK    1  A    between atoms: C1_2  and  C2_4
REMARK    2  A    between atoms: C4_6  and  O2_7
REMARK    3  A    between atoms: C5_9  and  N2_10
REMARK    4  A    between atoms: N2_10  and  C6_12
ROOT
HETATM    1  C2  UNL     1      13.024  17.733  14.586  1.00  0.00     0.079 C
HETATM    2  C3  UNL     1      11.820  16.852  14.712  1.00  0.00     0.047 C
HETATM    3  C4  UNL     1      12.410  15.495  15.213  1.00  0.00     0.141 C
HETATM    4  C5  UNL     1      13.419  15.995  16.144  1.00  0.00     0.106 C
HETATM    5  C11 UNL     1      14.167  17.015  15.223  1.00  0.00     0.041 C
ENDROOT
BRANCH   4   6
HETATM    6  N2  UNL     1      14.415  15.226  16.716  1.00  0.00    -0.410 N
ATOM      7  H2  UNL     1      14.985  14.667  16.081  1.00  0.00     0.154 HD
BRANCH   6   8
HETATM    8  C6  UNL     1      14.714  15.139  18.063  1.00  0.00     0.077 C
HETATM    9  C7  UNL     1      15.738  16.115  18.599  1.00  0.00     0.024 C
HETATM   10  C8  UNL     1      14.888  17.186  19.328  1.00  0.00     0.002 C
HETATM   11  C9  UNL     1      13.869  16.319  19.997  1.00  0.00     0.002 C
HETATM   12  C10 UNL     1      13.471  15.367  18.892  1.00  0.00     0.024 C
ENDBRANCH   6   8
ENDBRANCH   4   6
BRANCH   3  13
HETATM   13  O2  UNL     1      11.292  14.880  15.793  1.00  0.00    -0.394 OA
ATOM     14  H2  UNL     1      11.676  14.124  16.221  1.00  0.00     0.210 HD
ENDBRANCH   3  13
BRANCH   1  15
HETATM   15  C1  UNL     1      12.874  19.041  15.283  1.00  0.00     0.235 C
HETATM   16  N1  UNL     1      11.659  19.393  15.923  1.00  0.00    -0.062 NA
HETATM   17  O1  UNL     1      13.843  19.861  15.308  1.00  0.00    -0.277 OA
ENDBRANCH   1  15
TORSDOF 4
ENDMDL