MODEL 5
REMARK VINA RESULT: -5.535501691      2.092      3.279
REMARK  6 active torsions:
REMARK  status: ('A' for Active; 'I' for Inactive)
REMARK    1  A    between atoms: C3_3  and  C4_4
REMARK    2  A    between atoms: C4_4  and  O1_5
REMARK    3  A    between atoms: C6_8  and  C7_9
REMARK    4  A    between atoms: C7_9  and  O2_10
REMARK    5  A    between atoms: C7_9  and  O3_12
REMARK    6  A    between atoms: C8_14  and  C9_15
ROOT
HETATM    1  C4  UNL     1      14.741  17.241  17.153  1.00  0.00     0.080 C
HETATM    2  C5  UNL     1      16.077  17.910  17.511  1.00  0.00     0.052 C
HETATM    3  C6  UNL     1      15.769  17.465  18.948  1.00  0.00     0.051 C
HETATM    4  C8  UNL     1      15.004  16.313  18.318  1.00  0.00     0.036 C
ENDROOT
BRANCH   1   5
HETATM    5  C3  UNL     1      14.829  16.647  15.823  1.00  0.00     0.007 C
HETATM    6  C2  UNL     1      13.762  16.085  15.290  1.00  0.00    -0.032 C
HETATM    7  C1  UNL     1      13.737  15.449  13.945  1.00  0.00     0.036 C
ENDBRANCH   1   5
BRANCH   1   8
HETATM    8  O1  UNL     1      13.649  18.088  17.303  1.00  0.00    -0.385 OA
ATOM      9  H1  UNL     1      13.001  17.990  16.615  1.00  0.00     0.211 HD
ENDBRANCH   1   8
BRANCH   4  10
HETATM   10  C9  UNL     1      13.726  15.934  19.008  1.00  0.00    -0.015 C
HETATM   11  C10 UNL     1      13.594  14.427  18.922  1.00  0.00     0.010 C
HETATM   12  C11 UNL     1      13.713  16.303  20.464  1.00  0.00     0.010 C
ENDBRANCH   4  10
BRANCH   3  13
HETATM   13  C7  UNL     1      17.031  17.081  19.656  1.00  0.00     0.258 C
BRANCH  13  14
HETATM   14  O2  UNL     1      16.847  16.980  21.029  1.00  0.00    -0.371 OA
ATOM     15  H2  UNL     1      17.425  16.335  21.419  1.00  0.00     0.212 HD
ENDBRANCH  13  14
BRANCH  13  16
HETATM   16  O3  UNL     1      18.103  17.885  19.366  1.00  0.00    -0.371 OA
ATOM     17  H3  UNL     1      17.868  18.723  18.985  1.00  0.00     0.212 HD
ENDBRANCH  13  16
ENDBRANCH   3  13
TORSDOF 6
ENDMDL