MODEL 2
REMARK VINA RESULT: -5.633514440      2.566      5.277
REMARK  5 active torsions:
REMARK  status: ('A' for Active; 'I' for Inactive)
REMARK    1  A    between atoms: C2_2  and  N1_3
REMARK    2  A    between atoms: C2_2  and  C6_8
REMARK    3  A    between atoms: N1_3  and  C3_5
REMARK    4  A    between atoms: C9_11  and  O1_12
REMARK    5  A    between atoms: C11_15  and  O2_16
ROOT
HETATM    1  C6  UNL     1      14.837  16.129  20.549  1.00  0.00     0.036 C
HETATM    2  C7  UNL     1      15.728  17.316  20.754  1.00  0.00     0.011 C
HETATM    3  C8  UNL     1      16.383  17.134  22.113  1.00  0.00     0.032 C
HETATM    4  C9  UNL     1      15.420  16.899  23.211  1.00  0.00     0.120 C
HETATM    5  C10 UNL     1      13.987  16.826  22.823  1.00  0.00     0.063 C
HETATM    6  C11 UNL     1      13.664  16.282  21.502  1.00  0.00     0.126 C
ENDROOT
BRANCH   1   7
HETATM    7  C2  UNL     1      14.366  15.966  19.126  1.00  0.00     0.079 C
HETATM    8  C1  UNL     1      14.915  14.680  18.551  1.00  0.00     0.032 C
BRANCH   7   9
HETATM    9  N1  UNL     1      14.407  17.089  18.317  1.00  0.00    -0.413 N
ATOM     10  H1  UNL     1      13.879  17.899  18.641  1.00  0.00     0.154 HD
BRANCH   9  11
HETATM   11  C3  UNL     1      15.079  17.234  17.129  1.00  0.00     0.077 A
HETATM   12  C4  UNL     1      15.292  18.407  16.286  1.00  0.00     0.027 A
HETATM   13  C5  UNL     1      16.373  18.093  17.236  1.00  0.00     0.027 A
ENDBRANCH   9  11
ENDBRANCH   7   9
ENDBRANCH   1   7
BRANCH   6  14
HETATM   14  O2  UNL     1      12.741  17.100  20.827  1.00  0.00    -0.395 OA
ATOM     15  H2  UNL     1      11.956  17.087  21.362  1.00  0.00     0.210 HD
ENDBRANCH   6  14
BRANCH   4  16
HETATM   16  O1  UNL     1      15.613  17.929  24.158  1.00  0.00    -0.395 OA
ATOM     17  H1  UNL     1      14.791  18.402  24.226  1.00  0.00     0.210 HD
ENDBRANCH   4  16
TORSDOF 5
ENDMDL