MODEL 4
REMARK VINA RESULT: -5.750908397      3.485      6.505
REMARK  5 active torsions:
REMARK  status: ('A' for Active; 'I' for Inactive)
REMARK    1  A    between atoms: C1_2  and  C2_4
REMARK    2  A    between atoms: C2_4  and  N2_5
REMARK    3  A    between atoms: C2_4  and  C6_10
REMARK    4  A    between atoms: N2_5  and  C3_7
REMARK    5  A    between atoms: C6_10  and  O2_11
ROOT
HETATM    1  C2  UNL     1      17.727  17.697  20.667  1.00  0.00     0.201 C
ENDROOT
BRANCH   1   2
HETATM    2  C1  UNL     1      19.166  17.570  20.358  1.00  0.00     0.256 C
HETATM    3  N1  UNL     1      19.978  18.715  20.002  1.00  0.00    -0.060 NA
HETATM    4  O1  UNL     1      19.826  16.499  20.377  1.00  0.00    -0.274 OA
ENDBRANCH   1   2
BRANCH   1   5
HETATM    5  N2  UNL     1      17.347  17.025  21.810  1.00  0.00    -0.403 N
ATOM      6  H2  UNL     1      17.214  16.023  21.672  1.00  0.00     0.154 HD
BRANCH   5   7
HETATM    7  C3  UNL     1      17.114  17.438  23.086  1.00  0.00     0.077 A
HETATM    8  C4  UNL     1      16.227  18.352  23.753  1.00  0.00     0.027 A
HETATM    9  C5  UNL     1      15.836  16.876  23.737  1.00  0.00     0.027 A
ENDBRANCH   5   7
ENDBRANCH   1   5
BRANCH   1  10
HETATM   10  C6  UNL     1      16.947  17.315  19.420  1.00  0.00     0.086 C
HETATM   11  C7  UNL     1      15.454  17.240  19.711  1.00  0.00     0.040 C
HETATM   12  C8  UNL     1      14.612  17.347  18.469  1.00  0.00     0.003 C
HETATM   13  C9  UNL     1      15.351  17.022  17.209  1.00  0.00     0.000 C
HETATM   14  C10 UNL     1      16.485  17.977  17.049  1.00  0.00     0.003 C
HETATM   15  C11 UNL     1      17.118  18.367  18.373  1.00  0.00     0.040 C
BRANCH  10  16
HETATM   16  O2  UNL     1      17.356  16.086  18.922  1.00  0.00    -0.387 OA
ATOM     17  H2  UNL     1      18.301  16.041  18.839  1.00  0.00     0.210 HD
ENDBRANCH  10  16
ENDBRANCH   1  10
TORSDOF 5
ENDMDL