MODEL 4
REMARK VINA RESULT: -5.831132137      0.202      1.886
REMARK  3 active torsions:
REMARK  status: ('A' for Active; 'I' for Inactive)
REMARK    1  A    between atoms: C1_4  and  C2_6
REMARK    2  A    between atoms: C2_6  and  N3_7
REMARK    3  A    between atoms: N3_7  and  C3_9
ROOT
HETATM    1  C3  UNL     1      13.855  16.349  20.035  1.00  0.00     0.030 C
HETATM    2  C4  UNL     1      13.316  15.170  19.287  1.00  0.00     0.035 C
HETATM    3  C5  UNL     1      14.007  15.052  17.944  1.00  0.00    -0.012 C
HETATM    4  C6  UNL     1      13.798  16.268  17.090  1.00  0.00     0.009 C
HETATM    5  C7  UNL     1      14.302  17.467  17.857  1.00  0.00    -0.012 C
HETATM    6  C8  UNL     1      15.799  17.342  18.082  1.00  0.00     0.009 C
HETATM    7  C9  UNL     1      16.057  16.075  18.869  1.00  0.00    -0.012 C
HETATM    8  C10 UNL     1      15.503  14.869  18.160  1.00  0.00     0.009 C
HETATM    9  C11 UNL     1      15.349  16.183  20.201  1.00  0.00     0.035 C
HETATM   10  C12 UNL     1      13.640  17.605  19.190  1.00  0.00     0.035 C
ENDROOT
BRANCH   1  11
HETATM   11  N3  UNL     1      13.236  16.542  21.279  1.00  0.00    -0.387 N
ATOM     12  H3  UNL     1      12.221  16.484  21.361  1.00  0.00     0.159 HD
BRANCH  11  13
HETATM   13  C2  UNL     1      14.016  16.817  22.406  1.00  0.00     0.128 C
BRANCH  13  14
HETATM   14  C1  UNL     1      13.174  16.713  23.627  1.00  0.00     0.125 C
HETATM   15  N1  UNL     1      13.588  16.109  24.686  1.00  0.00    -0.387 N
ATOM     16  H12 UNL     1      13.011  16.038  25.524  1.00  0.00     0.157 HD
ATOM     17  H11 UNL     1      14.518  15.688  24.686  1.00  0.00     0.157 HD
HETATM   18  N2  UNL     1      11.881  17.297  23.627  1.00  0.00    -0.082 NA
ENDBRANCH  13  14
ENDBRANCH  11  13
ENDBRANCH   1  11
TORSDOF 3
ENDMDL