MODEL 2
REMARK VINA RESULT: -7.046773846      4.996      6.008
REMARK  3 active torsions:
REMARK  status: ('A' for Active; 'I' for Inactive)
REMARK    1  A    between atoms: N3_4  and  N4_6
REMARK    2  A    between atoms: C2_8  and  C3_9
REMARK    3  A    between atoms: C8_14  and  C9_15
ROOT
HETATM    1  C3  UNL     1      14.837  16.576  18.702  1.00  0.00     0.040 C
HETATM    2  C4  UNL     1      15.090  16.071  20.106  1.00  0.00     0.011 C
HETATM    3  C5  UNL     1      15.915  17.051  20.914  1.00  0.00     0.001 C
HETATM    4  C6  UNL     1      17.277  17.283  20.320  1.00  0.00     0.001 C
HETATM    5  C7  UNL     1      17.193  17.171  18.821  1.00  0.00     0.016 C
HETATM    6  C8  UNL     1      15.816  17.658  18.411  1.00  0.00     0.096 C
ENDROOT
BRANCH   1   7
HETATM    7  C2  UNL     1      14.882  15.454  17.759  1.00  0.00     0.085 C
HETATM    8  N4  UNL     1      13.943  15.265  16.899  1.00  0.00    -0.313 N
ATOM      9  H4  UNL     1      14.009  14.473  16.259  1.00  0.00     0.185 HD
BRANCH   8  10
HETATM   10  N3  UNL     1      12.839  16.111  16.816  1.00  0.00    -0.277 N
HETATM   11  C1  UNL     1      12.062  16.145  15.783  1.00  0.00     0.215 C
HETATM   12  N1  UNL     1      10.959  17.058  15.820  1.00  0.00    -0.065 NA
HETATM   13  N2  UNL     1      12.279  15.323  14.657  1.00  0.00    -0.065 NA
ATOM     14  H3  UNL     1      12.636  16.728  17.602  1.00  0.00     0.189 HD
ENDBRANCH   8  10
ENDBRANCH   1   7
BRANCH   6  15
HETATM   15  C9  UNL     1      15.789  18.116  17.003  1.00  0.00     0.177 C
HETATM   16  O1  UNL     1      16.826  18.152  16.290  1.00  0.00    -0.648 OA
HETATM   17  O2  UNL     1      14.557  18.512  16.487  1.00  0.00    -0.648 OA
ENDBRANCH   6  15
TORSDOF 3
ENDMDL