MODEL 3
REMARK VINA RESULT: -6.095456883      1.800      2.275
REMARK  4 active torsions:
REMARK  status: ('A' for Active; 'I' for Inactive)
REMARK       I    between atoms: C1_4  and  N3_6
REMARK    1  A    between atoms: C4_9  and  C5_10
REMARK    2  A    between atoms: C5_10  and  C6_11
REMARK    3  A    between atoms: C6_11  and  O1_12
REMARK    4  A    between atoms: C6_11  and  C7_14
ROOT
HETATM    1  N1  UNL     1      17.910  17.232  22.693  1.00  0.00    -0.374 N
ATOM      2  H11 UNL     1      18.253  16.634  21.942  1.00  0.00     0.158 HD
ATOM      3  H12 UNL     1      18.553  17.593  23.398  1.00  0.00     0.158 HD
HETATM    4  C1  UNL     1      16.662  17.519  22.729  1.00  0.00     0.183 C
HETATM    5  N2  UNL     1      16.184  18.354  23.774  1.00  0.00    -0.064 NA
HETATM    6  N3  UNL     1      15.764  17.015  21.743  1.00  0.00    -0.356 N
HETATM    7  C2  UNL     1      14.490  16.497  22.202  1.00  0.00     0.126 C
HETATM    8  C3  UNL     1      13.425  16.895  21.195  1.00  0.00     0.024 C
HETATM    9  C4  UNL     1      13.769  16.498  19.815  1.00  0.00    -0.009 C
HETATM   10  C10 UNL     1      15.073  17.168  19.362  1.00  0.00     0.024 C
HETATM   11  C11 UNL     1      16.150  17.041  20.380  1.00  0.00     0.126 C
ENDROOT
BRANCH   9  12
HETATM   12  C5  UNL     1      13.832  15.027  19.590  1.00  0.00     0.037 C
BRANCH  12  13
HETATM   13  C6  UNL     1      13.768  14.557  18.181  1.00  0.00     0.122 C
BRANCH  13  14
HETATM   14  O1  UNL     1      14.979  14.490  17.545  1.00  0.00    -0.395 OA
ATOM     15  H1  UNL     1      15.187  13.640  17.177  1.00  0.00     0.210 HD
ENDBRANCH  13  14
BRANCH  13  16
HETATM   16  C7  UNL     1      12.870  15.448  17.328  1.00  0.00     0.014 A
HETATM   17  C8  UNL     1      12.222  14.761  16.151  1.00  0.00     0.007 A
HETATM   18  C9  UNL     1      13.302  15.750  15.927  1.00  0.00     0.007 A
ENDBRANCH  13  16
ENDBRANCH  12  13
ENDBRANCH   9  12
TORSDOF 4
ENDMDL