MODEL 3
REMARK VINA RESULT: -6.908604978      1.016      1.016
REMARK  5 active torsions:
REMARK  status: ('A' for Active; 'I' for Inactive)
REMARK    1  A    between atoms: C2_2  and  O1_3
REMARK    2  A    between atoms: C4_6  and  N1_7
REMARK       I    between atoms: N1_7  and  C5_9
REMARK       I    between atoms: C5_9  and  N4_15
REMARK    3  A    between atoms: N2_10  and  N3_12
REMARK    4  A    between atoms: N4_15  and  S1_17
REMARK    5  A    between atoms: S1_17  and  N5_18
ROOT
HETATM    1  N1  UNL     1      57.608  16.108  41.759  1.00  0.00    -0.219 N
ATOM      2  H1  UNL     1      58.005  15.169  41.725  1.00  0.00     0.178 HD
HETATM    3  C5  UNL     1      57.860  16.898  42.919  1.00  0.00     0.703 C
HETATM    4  N2  UNL     1      57.719  16.391  44.120  1.00  0.00    -0.138 N
ATOM      5  H2  UNL     1      57.899  16.955  44.951  1.00  0.00     0.205 HD
HETATM    6  N4  UNL     1      58.270  18.246  42.862  1.00  0.00    -0.099 N
ATOM      7  H4  UNL     1      57.717  18.925  42.339  1.00  0.00     0.199 HD
ENDROOT
BRANCH   1   8
HETATM    8  C4  UNL     1      56.830  16.552  40.636  1.00  0.00     0.113 C
HETATM    9  C3  UNL     1      56.568  15.498  39.578  1.00  0.00     0.064 C
HETATM   10  C2  UNL     1      55.115  15.967  39.577  1.00  0.00     0.065 C
HETATM   11  C1  UNL     1      54.107  14.855  39.470  1.00  0.00     0.047 C
HETATM   12  C6  UNL     1      55.350  16.511  40.948  1.00  0.00     0.004 C
HETATM   13  C7  UNL     1      54.787  17.874  41.232  1.00  0.00     0.020 C
HETATM   14  C8  UNL     1      54.993  15.528  42.048  1.00  0.00     0.020 C
BRANCH  10  15
HETATM   15  O1  UNL     1      54.860  16.935  38.593  1.00  0.00    -0.389 OA
ATOM     16  H1  UNL     1      55.006  17.803  38.951  1.00  0.00     0.210 HD
ENDBRANCH  10  15
ENDBRANCH   1   8
BRANCH   4  17
HETATM   17  N3  UNL     1      57.315  15.059  44.234  1.00  0.00    -0.331 N
ATOM     18  H32 UNL     1      56.422  14.763  43.840  1.00  0.00     0.177 HD
ATOM     19  H31 UNL     1      57.932  14.405  44.716  1.00  0.00     0.177 HD
ENDBRANCH   4  17
BRANCH   6  20
HETATM   20  S1  UNL     1      59.695  18.745  43.669  1.00  0.00     0.330 S
HETATM   21  O2  UNL     1      60.732  17.684  43.757  1.00  0.00    -0.182 OA
HETATM   22  O3  UNL     1      59.414  19.229  45.068  1.00  0.00    -0.182 OA
BRANCH  20  23
HETATM   23  N5  UNL     1      60.389  20.099  42.820  1.00  0.00    -0.311 N
ATOM     24  H52 UNL     1      59.862  20.751  42.241  1.00  0.00     0.170 HD
ATOM     25  H51 UNL     1      61.393  20.127  42.999  1.00  0.00     0.170 HD
ENDBRANCH  20  23
ENDBRANCH   6  20
TORSDOF 5
ENDMDL