MODEL 1
REMARK VINA RESULT: -7.185559613      0.000      0.000
REMARK  8 active torsions:
REMARK  status: ('A' for Active; 'I' for Inactive)
REMARK    1  A    between atoms: C2_2  and  N1_3
REMARK    2  A    between atoms: N1_3  and  C3_5
REMARK    3  A    between atoms: C3_5  and  N2_7
REMARK    4  A    between atoms: N2_7  and  N3_9
REMARK       I    between atoms: N3_9  and  C4_11
REMARK    5  A    between atoms: C4_11  and  C5_13
REMARK    6  A    between atoms: C5_13  and  N4_15
REMARK    7  A    between atoms: N4_15  and  S2_17
REMARK    8  A    between atoms: S2_17  and  N5_18
ROOT
HETATM    1  N3  UNL     1      57.317  17.629  41.767  1.00  0.00    -0.266 N
ATOM      2  H3  UNL     1      57.203  18.638  41.665  1.00  0.00     0.190 HD
HETATM    3  C4  UNL     1      57.601  17.052  43.019  1.00  0.00     0.259 C
HETATM    4  O1  UNL     1      57.723  15.794  43.064  1.00  0.00    -0.269 OA
ENDROOT
BRANCH   3   5
HETATM    5  C5  UNL     1      57.766  17.816  44.269  1.00  0.00     0.184 C
HETATM    6  C6  UNL     1      56.584  17.737  45.199  1.00  0.00     0.043 C
BRANCH   5   7
HETATM    7  N4  UNL     1      58.929  17.374  44.954  1.00  0.00    -0.289 N
ATOM      8  H4  UNL     1      58.902  16.660  45.683  1.00  0.00     0.174 HD
BRANCH   7   9
HETATM    9  S2  UNL     1      60.366  18.130  44.460  1.00  0.00     0.313 S
HETATM   10  O2  UNL     1      60.935  18.861  45.656  1.00  0.00    -0.183 OA
HETATM   11  O3  UNL     1      61.359  17.161  43.937  1.00  0.00    -0.183 OA
BRANCH   9  12
HETATM   12  N5  UNL     1      59.954  19.314  43.243  1.00  0.00    -0.312 N
ATOM     13  H52 UNL     1      59.489  20.205  43.420  1.00  0.00     0.170 HD
ATOM     14  H51 UNL     1      60.260  18.952  42.340  1.00  0.00     0.170 HD
ENDBRANCH   9  12
ENDBRANCH   7   9
ENDBRANCH   5   7
ENDBRANCH   3   5
BRANCH   1  15
HETATM   15  N2  UNL     1      57.194  16.759  40.650  1.00  0.00    -0.274 N
ATOM     16  H2  UNL     1      57.994  16.202  40.353  1.00  0.00     0.189 HD
BRANCH  15  17
HETATM   17  C3  UNL     1      55.971  16.661  39.946  1.00  0.00     0.186 C
HETATM   18  S1  UNL     1      55.072  15.285  39.970  1.00  0.00    -0.040 SA
BRANCH  17  19
HETATM   19  N1  UNL     1      55.484  17.742  39.203  1.00  0.00    -0.366 N
ATOM     20  H1  UNL     1      56.093  18.203  38.526  1.00  0.00     0.161 HD
BRANCH  19  21
HETATM   21  C2  UNL     1      54.136  18.212  39.384  1.00  0.00     0.117 C
HETATM   22  C1  UNL     1      54.047  19.408  40.287  1.00  0.00     0.026 C
ENDBRANCH  19  21
ENDBRANCH  17  19
ENDBRANCH  15  17
ENDBRANCH   1  15
TORSDOF 8
ENDMDL