MODEL 2
REMARK VINA RESULT: -6.300975206      2.839      5.525
REMARK  6 active torsions:
REMARK  status: ('A' for Active; 'I' for Inactive)
REMARK       I    between atoms: N1_2  and  C2_4
REMARK    1  A    between atoms: C2_4  and  C3_6
REMARK    2  A    between atoms: C3_6  and  N2_7
REMARK       I    between atoms: N2_7  and  C4_9
REMARK       I    between atoms: C4_9  and  N3_11
REMARK    3  A    between atoms: N3_11  and  N4_13
REMARK    4  A    between atoms: N4_13  and  C5_15
REMARK    5  A    between atoms: C5_15  and  C6_17
REMARK    6  A    between atoms: C6_17  and  N5_18
REMARK       I    between atoms: N5_18  and  C7_20
ROOT
HETATM    1  N2  UNL     1      56.654  16.069  40.616  1.00  0.00    -0.333 N
ATOM      2  H2  UNL     1      57.536  15.780  40.192  1.00  0.00     0.164 HD
HETATM    3  C4  UNL     1      56.703  17.040  41.645  1.00  0.00     0.335 C
HETATM    4  O2  UNL     1      55.603  17.416  42.172  1.00  0.00    -0.246 OA
HETATM    5  N3  UNL     1      57.920  17.592  42.095  1.00  0.00    -0.251 N
ATOM      6  H3  UNL     1      58.804  17.296  41.680  1.00  0.00     0.191 HD
ENDROOT
BRANCH   5   7
HETATM    7  N4  UNL     1      57.904  18.559  43.124  1.00  0.00    -0.289 N
ATOM      8  H4  UNL     1      57.569  19.502  42.926  1.00  0.00     0.188 HD
BRANCH   7   9
HETATM    9  C5  UNL     1      58.346  18.235  44.423  1.00  0.00     0.110 C
HETATM   10  S1  UNL     1      59.928  18.087  44.716  1.00  0.00    -0.062 SA
BRANCH   9  11
HETATM   11  C6  UNL     1      57.355  18.021  45.487  1.00  0.00     0.193 C
BRANCH  11  12
HETATM   12  N5  UNL     1      56.197  17.260  45.086  1.00  0.00    -0.355 N
HETATM   13  C7  UNL     1      56.199  15.849  45.130  1.00  0.00     0.213 C
HETATM   14  C8  UNL     1      54.960  15.132  44.692  1.00  0.00     0.117 C
HETATM   15  O3  UNL     1      57.144  15.125  45.500  1.00  0.00    -0.274 OA
ATOM     16  H5  UNL     1      55.361  17.750  44.766  1.00  0.00     0.162 HD
ENDBRANCH  11  12
ENDBRANCH   9  11
ENDBRANCH   7   9
ENDBRANCH   5   7
BRANCH   1  17
HETATM   17  C3  UNL     1      55.453  15.467  40.132  1.00  0.00     0.227 C
BRANCH  17  18
HETATM   18  C2  UNL     1      54.784  16.301  39.125  1.00  0.00     0.234 C
HETATM   19  N1  UNL     1      53.515  16.077  38.556  1.00  0.00    -0.364 N
HETATM   20  C1  UNL     1      53.006  17.027  37.571  1.00  0.00     0.149 C
ATOM     21  H1  UNL     1      52.961  15.265  38.827  1.00  0.00     0.161 HD
HETATM   22  O1  UNL     1      55.448  17.326  38.743  1.00  0.00    -0.272 OA
ENDBRANCH  17  18
ENDBRANCH   1  17
TORSDOF 6
ENDMDL