MODEL 5
REMARK VINA RESULT: -6.904835729      1.413      1.744
REMARK  6 active torsions:
REMARK  status: ('A' for Active; 'I' for Inactive)
REMARK    1  A    between atoms: C2_2  and  C3_3
REMARK    2  A    between atoms: C3_3  and  C4_4
REMARK    3  A    between atoms: C4_4  and  C5_5
REMARK       I    between atoms: C5_5  and  N1_7
REMARK    4  A    between atoms: N1_7  and  N2_9
REMARK       I    between atoms: N2_9  and  C6_10
REMARK    5  A    between atoms: C6_10  and  C7_12
REMARK       I    between atoms: C7_12  and  N3_14
REMARK    6  A    between atoms: N3_14  and  N4_16
REMARK       I    between atoms: N4_16  and  C8_17
REMARK       I    between atoms: C8_17  and  N5_19
ROOT
HETATM    1  N2  UNL     1      55.348  15.461  42.892  1.00  0.00    -0.274 NA
HETATM    2  C6  UNL     1      55.254  15.058  44.202  1.00  0.00     0.405 C
HETATM    3  O2  UNL     1      55.040  14.531  45.257  1.00  0.00    -0.244 OA
ENDROOT
BRANCH   2   4
HETATM    4  C7  UNL     1      56.111  16.395  44.865  1.00  0.00     0.354 C
HETATM    5  O3  UNL     1      55.555  17.100  45.543  1.00  0.00    -0.258 OA
HETATM    6  N3  UNL     1      57.437  16.339  44.381  1.00  0.00    -0.188 N
ATOM      7  H3  UNL     1      57.592  15.506  43.812  1.00  0.00     0.205 HD
BRANCH   6   8
HETATM    8  N4  UNL     1      58.477  17.039  44.464  1.00  0.00    -0.249 NA
HETATM    9  C8  UNL     1      59.734  17.795  44.694  1.00  0.00     0.490 C
HETATM   10  O4  UNL     1      60.459  17.542  45.660  1.00  0.00    -0.212 OA
HETATM   11  N5  UNL     1      59.901  18.818  43.738  1.00  0.00    -0.363 NA
HETATM   12  C9  UNL     1      60.307  19.887  43.006  1.00  0.00     0.236 C
ENDBRANCH   6   8
ENDBRANCH   2   4
BRANCH   1  13
HETATM   13  N1  UNL     1      55.419  15.804  41.723  1.00  0.00    -0.199 N
HETATM   14  C5  UNL     1      56.074  15.679  40.509  1.00  0.00     0.246 C
HETATM   15  O1  UNL     1      57.157  15.001  40.351  1.00  0.00    -0.271 OA
ATOM     16  H1  UNL     1      54.668  16.479  41.576  1.00  0.00     0.205 HD
BRANCH  14  17
HETATM   17  C4  UNL     1      55.458  16.316  39.294  1.00  0.00     0.105 C
BRANCH  17  18
HETATM   18  C3  UNL     1      55.091  17.746  39.670  1.00  0.00     0.009 C
BRANCH  18  19
HETATM   19  C2  UNL     1      53.661  18.053  39.233  1.00  0.00    -0.004 C
HETATM   20  C1  UNL     1      53.312  16.945  38.194  1.00  0.00     0.005 C
ENDBRANCH  18  19
ENDBRANCH  17  18
ENDBRANCH  14  17
ENDBRANCH   1  13
TORSDOF 6
ENDMDL