MODEL 1
REMARK VINA RESULT: -6.334304106      0.000      0.000
REMARK  4 active torsions:
REMARK  status: ('A' for Active; 'I' for Inactive)
REMARK    1  A    between atoms: C3_3  and  N1_4
REMARK    2  A    between atoms: C3_3  and  C5_9
REMARK       I    between atoms: C5_9  and  N4_11
REMARK    3  A    between atoms: N4_11  and  C6_13
REMARK    4  A    between atoms: C6_13  and  C7_14
ROOT
HETATM    1  C1  UNL     1      56.083  15.622  45.973  1.00  0.00     0.015 C
HETATM    2  C2  UNL     1      56.893  16.111  45.230  1.00  0.00    -0.082 C
HETATM    3  C3  UNL     1      57.884  16.685  44.334  1.00  0.00     0.255 C
ENDROOT
BRANCH   3   4
HETATM    4  N1  UNL     1      58.636  17.746  44.937  1.00  0.00    -0.344 N
HETATM    5  C4  UNL     1      59.895  17.900  44.770  1.00  0.00     0.198 C
HETATM    6  N2  UNL     1      60.649  16.992  43.947  1.00  0.00    -0.067 NA
HETATM    7  N3  UNL     1      60.610  18.959  45.378  1.00  0.00    -0.067 NA
ATOM      8  H1  UNL     1      58.142  18.413  45.530  1.00  0.00     0.163 HD
ENDBRANCH   3   4
BRANCH   3   9
HETATM    9  C5  UNL     1      57.237  17.115  43.057  1.00  0.00     0.253 C
HETATM   10  O1  UNL     1      57.441  18.327  42.734  1.00  0.00    -0.270 OA
HETATM   11  N4  UNL     1      56.468  16.232  42.289  1.00  0.00    -0.339 N
ATOM     12  H4  UNL     1      56.378  15.282  42.650  1.00  0.00     0.164 HD
BRANCH  11  13
HETATM   13  C6  UNL     1      55.794  16.505  41.053  1.00  0.00     0.130 C
HETATM   14  C8  UNL     1      54.885  15.349  40.713  1.00  0.00     0.053 C
HETATM   15  C9  UNL     1      54.152  15.644  39.451  1.00  0.00     0.077 C
HETATM   16  S1  UNL     1      54.055  17.480  39.488  1.00  0.00    -0.166 SA
HETATM   17  C10 UNL     1      54.865  17.684  41.131  1.00  0.00     0.116 C
BRANCH  13  18
HETATM   18  C7  UNL     1      56.761  16.646  39.933  1.00  0.00     0.203 C
HETATM   19  O2  UNL     1      57.101  17.807  39.600  1.00  0.00    -0.646 OA
HETATM   20  O3  UNL     1      57.316  15.598  39.230  1.00  0.00    -0.646 OA
ENDBRANCH  13  18
ENDBRANCH  11  13
ENDBRANCH   3   9
TORSDOF 4
ENDMDL