MODEL 3
REMARK VINA RESULT: -6.284865781      1.307      1.429
REMARK  5 active torsions:
REMARK  status: ('A' for Active; 'I' for Inactive)
REMARK       I    between atoms: C1_4  and  N3_6
REMARK       I    between atoms: N4_9  and  C4_10
REMARK    1  A    between atoms: C4_10  and  C5_12
REMARK    2  A    between atoms: C5_12  and  C6_13
REMARK    3  A    between atoms: N5_14  and  C7_16
REMARK    4  A    between atoms: C7_16  and  N6_18
REMARK    5  A    between atoms: N6_18  and  N7_20
ROOT
HETATM    1  N1  UNL     1      60.940  17.958  44.871  1.00  0.00    -0.374 N
ATOM      2  H11 UNL     1      61.151  17.045  44.468  1.00  0.00     0.158 HD
ATOM      3  H12 UNL     1      61.658  18.575  45.251  1.00  0.00     0.158 HD
HETATM    4  C1  UNL     1      59.696  18.320  44.885  1.00  0.00     0.184 C
HETATM    5  N2  UNL     1      59.402  19.592  45.448  1.00  0.00    -0.064 NA
HETATM    6  N3  UNL     1      58.696  17.460  44.355  1.00  0.00    -0.353 N
HETATM    7  C2  UNL     1      57.410  17.252  44.992  1.00  0.00     0.145 C
HETATM    8  C3  UNL     1      56.896  15.852  44.646  1.00  0.00     0.145 C
HETATM    9  N4  UNL     1      56.758  15.832  43.198  1.00  0.00    -0.349 N
HETATM   10  C4  UNL     1      55.802  15.018  42.539  1.00  0.00     0.224 C
HETATM   11  O1  UNL     1      55.064  14.291  43.269  1.00  0.00    -0.273 OA
HETATM   12  C8  UNL     1      57.617  16.663  42.378  1.00  0.00     0.145 C
HETATM   13  C9  UNL     1      58.953  16.745  43.122  1.00  0.00     0.145 C
ENDROOT
BRANCH  10  14
HETATM   14  C5  UNL     1      55.635  14.979  41.086  1.00  0.00     0.147 C
BRANCH  14  15
HETATM   15  C6  UNL     1      55.014  16.212  40.543  1.00  0.00     0.072 C
HETATM   16  N5  UNL     1      54.591  16.287  39.327  1.00  0.00    -0.345 N
ATOM     17  H5  UNL     1      54.687  15.473  38.720  1.00  0.00     0.167 HD
BRANCH  16  18
HETATM   18  C7  UNL     1      54.000  17.456  38.809  1.00  0.00     0.189 C
HETATM   19  S1  UNL     1      54.071  18.802  39.733  1.00  0.00    -0.039 SA
BRANCH  18  20
HETATM   20  N6  UNL     1      53.377  17.465  37.552  1.00  0.00    -0.283 N
ATOM     21  H6  UNL     1      53.895  17.757  36.722  1.00  0.00     0.188 HD
BRANCH  20  22
HETATM   22  N7  UNL     1      52.038  17.071  37.448  1.00  0.00    -0.343 N
ATOM     23  H72 UNL     1      51.353  17.721  37.063  1.00  0.00     0.176 HD
ATOM     24  H71 UNL     1      51.768  16.138  37.761  1.00  0.00     0.176 HD
ENDBRANCH  20  22
ENDBRANCH  18  20
ENDBRANCH  16  18
ENDBRANCH  14  15
ENDBRANCH  10  14
TORSDOF 5
ENDMDL