MODEL 5
REMARK VINA RESULT: -7.332370207      1.738      7.026
REMARK  4 active torsions:
REMARK  status: ('A' for Active; 'I' for Inactive)
REMARK    1  A    between atoms: C2_2  and  N1_3
REMARK    2  A    between atoms: C2_2  and  C10_21
REMARK       I    between atoms: N1_3  and  C3_5
REMARK       I    between atoms: C3_5  and  N2_7
REMARK    3  A    between atoms: C7_11  and  C8_12
REMARK       I    between atoms: C8_12  and  N3_14
REMARK    4  A    between atoms: N3_14  and  N4_16
REMARK       I    between atoms: N4_16  and  C9_18
ROOT
HETATM    1  N1  UNL     1      54.519  16.084  40.603  1.00  0.00    -0.330 N
ATOM      2  H1  UNL     1      53.710  16.444  41.109  1.00  0.00     0.165 HD
HETATM    3  C3  UNL     1      55.684  15.752  41.319  1.00  0.00     0.319 C
HETATM    4  O1  UNL     1      56.710  15.298  40.702  1.00  0.00    -0.247 OA
HETATM    5  N2  UNL     1      55.794  15.895  42.730  1.00  0.00    -0.321 N
HETATM    6  C4  UNL     1      54.750  16.389  43.569  1.00  0.00     0.129 C
HETATM    7  C5  UNL     1      55.143  16.035  44.971  1.00  0.00     0.022 C
HETATM    8  C6  UNL     1      56.355  15.127  44.833  1.00  0.00     0.037 C
HETATM    9  C7  UNL     1      56.934  15.577  43.516  1.00  0.00     0.182 C
ENDROOT
BRANCH   9  10
HETATM   10  C8  UNL     1      57.896  16.698  43.660  1.00  0.00     0.259 C
HETATM   11  O2  UNL     1      58.189  17.473  42.717  1.00  0.00    -0.269 OA
HETATM   12  N3  UNL     1      58.517  16.908  44.919  1.00  0.00    -0.265 N
ATOM     13  H3  UNL     1      58.291  16.289  45.698  1.00  0.00     0.190 HD
BRANCH  12  14
HETATM   14  N4  UNL     1      59.433  17.946  45.113  1.00  0.00    -0.251 N
HETATM   15  C9  UNL     1      60.755  17.888  44.617  1.00  0.00     0.347 C
HETATM   16  N5  UNL     1      61.628  18.980  44.849  1.00  0.00    -0.038 NA
HETATM   17  O3  UNL     1      61.197  16.897  43.970  1.00  0.00    -0.249 OA
ATOM     18  H4  UNL     1      59.138  18.774  45.629  1.00  0.00     0.191 HD
ENDBRANCH  12  14
ENDBRANCH   9  10
BRANCH   1  19
HETATM   19  C2  UNL     1      54.439  15.928  39.173  1.00  0.00     0.171 C
HETATM   20  C1  UNL     1      53.534  14.786  38.776  1.00  0.00     0.042 C
BRANCH  19  21
HETATM   21  C10 UNL     1      53.980  17.162  38.509  1.00  0.00     0.253 C
HETATM   22  N6  UNL     1      53.304  17.133  37.284  1.00  0.00    -0.060 NA
HETATM   23  O4  UNL     1      54.211  18.258  39.066  1.00  0.00    -0.275 OA
ENDBRANCH  19  21
ENDBRANCH   1  19
TORSDOF 4
ENDMDL