MODEL 4
REMARK VINA RESULT: -7.989438752      0.772      1.162
REMARK  7 active torsions:
REMARK  status: ('A' for Active; 'I' for Inactive)
REMARK    1  A    between atoms: C4_4  and  C5_5
REMARK       I    between atoms: C5_5  and  N1_7
REMARK    2  A    between atoms: N1_7  and  N2_9
REMARK    3  A    between atoms: N2_9  and  C6_11
REMARK    4  A    between atoms: C6_11  and  N3_12
REMARK    5  A    between atoms: C6_11  and  C9_19
REMARK    6  A    between atoms: N3_12  and  C7_14
REMARK    7  A    between atoms: C7_14  and  C8_16
ROOT
HETATM    1  C1  UNL     1      52.149  17.060  36.979  1.00  0.00     0.113 C
HETATM    2  C2  UNL     1      53.095  16.841  37.721  1.00  0.00    -0.097 C
HETATM    3  C3  UNL     1      54.203  16.574  38.557  1.00  0.00    -0.018 C
HETATM    4  C4  UNL     1      55.167  16.346  39.264  1.00  0.00     0.009 C
ENDROOT
BRANCH   4   5
HETATM    5  C5  UNL     1      56.327  16.057  40.090  1.00  0.00     0.315 C
HETATM    6  O1  UNL     1      57.230  15.322  39.603  1.00  0.00    -0.256 OA
HETATM    7  N1  UNL     1      56.371  16.618  41.395  1.00  0.00    -0.261 N
ATOM      8  H1  UNL     1      55.606  17.206  41.724  1.00  0.00     0.190 HD
BRANCH   7   9
HETATM    9  N2  UNL     1      57.445  16.366  42.211  1.00  0.00    -0.300 N
ATOM     10  H2  UNL     1      58.373  16.191  41.827  1.00  0.00     0.183 HD
BRANCH   9  11
HETATM   11  C6  UNL     1      57.210  16.359  43.623  1.00  0.00     0.301 C
BRANCH  11  12
HETATM   12  N3  UNL     1      58.392  16.525  44.398  1.00  0.00    -0.345 N
ATOM     13  H3  UNL     1      58.774  15.678  44.820  1.00  0.00     0.163 HD
BRANCH  12  14
HETATM   14  C7  UNL     1      59.085  17.695  44.651  1.00  0.00     0.176 C
HETATM   15  S1  UNL     1      58.166  19.085  44.847  1.00  0.00    -0.053 SA
BRANCH  14  16
HETATM   16  C8  UNL     1      60.494  17.878  44.757  1.00  0.00     0.238 C
HETATM   17  O2  UNL     1      61.371  17.172  44.224  1.00  0.00    -0.642 OA
HETATM   18  O3  UNL     1      61.044  18.952  45.528  1.00  0.00    -0.642 OA
ENDBRANCH  14  16
ENDBRANCH  12  14
ENDBRANCH  11  12
BRANCH  11  19
HETATM   19  C9  UNL     1      56.303  15.273  44.077  1.00  0.00     0.218 C
HETATM   20  O4  UNL     1      56.025  14.266  43.333  1.00  0.00    -0.645 OA
HETATM   21  O5  UNL     1      55.700  15.257  45.314  1.00  0.00    -0.645 OA
ENDBRANCH  11  19
ENDBRANCH   9  11
ENDBRANCH   7   9
ENDBRANCH   4   5
TORSDOF 7
ENDMDL