MODEL 4
REMARK VINA RESULT: -7.241807834      3.538      7.495
REMARK  3 active torsions:
REMARK  status: ('A' for Active; 'I' for Inactive)
REMARK    1  A    between atoms: S1_2  and  N1_5
REMARK       I    between atoms: N1_5  and  C2_7
REMARK       I    between atoms: C2_7  and  N2_9
REMARK    2  A    between atoms: N2_9  and  N3_11
REMARK    3  A    between atoms: C5_14  and  N4_15
REMARK       I    between atoms: N4_15  and  C6_17
ROOT
HETATM    1  N3  UNL     1      56.699  15.868  43.660  1.00  0.00    -0.322 N
HETATM    2  C3  UNL     1      55.890  16.052  44.818  1.00  0.00     0.144 C
HETATM    3  C4  UNL     1      56.982  16.378  45.851  1.00  0.00     0.048 C
HETATM    4  C5  UNL     1      57.828  17.375  45.080  1.00  0.00     0.105 C
HETATM    5  C7  UNL     1      57.700  16.870  43.640  1.00  0.00     0.167 C
ENDROOT
BRANCH   1   6
HETATM    6  N2  UNL     1      56.086  15.527  42.498  1.00  0.00    -0.253 N
HETATM    7  C2  UNL     1      55.520  16.396  41.533  1.00  0.00     0.348 C
HETATM    8  N1  UNL     1      54.906  15.893  40.356  1.00  0.00    -0.235 N
HETATM    9  O3  UNL     1      55.531  17.650  41.667  1.00  0.00    -0.245 OA
ATOM     10  H1  UNL     1      54.881  14.882  40.220  1.00  0.00     0.183 HD
ATOM     11  H2  UNL     1      56.027  14.529  42.296  1.00  0.00     0.191 HD
BRANCH   8  12
HETATM   12  S1  UNL     1      54.207  16.883  39.156  1.00  0.00     0.230 S
HETATM   13  C1  UNL     1      53.082  18.025  39.923  1.00  0.00     0.186 C
HETATM   14  O1  UNL     1      55.241  17.709  38.431  1.00  0.00    -0.206 OA
HETATM   15  O2  UNL     1      53.450  16.121  38.117  1.00  0.00    -0.206 OA
ENDBRANCH   8  12
ENDBRANCH   1   6
BRANCH   4  16
HETATM   16  N4  UNL     1      59.207  17.341  45.485  1.00  0.00    -0.359 N
HETATM   17  C6  UNL     1      60.253  17.979  44.761  1.00  0.00     0.182 C
HETATM   18  N5  UNL     1      60.119  19.186  44.333  1.00  0.00    -0.374 N
HETATM   19  N6  UNL     1      61.482  17.327  44.477  1.00  0.00    -0.064 NA
ATOM     20  H52 UNL     1      59.236  19.654  44.537  1.00  0.00     0.158 HD
ATOM     21  H51 UNL     1      60.869  19.642  43.814  1.00  0.00     0.158 HD
ATOM     22  H4  UNL     1      59.448  16.834  46.336  1.00  0.00     0.162 HD
ENDBRANCH   4  16
TORSDOF 3
ENDMDL