MODEL 4
REMARK VINA RESULT: -7.305639134      1.307      2.496
REMARK  9 active torsions:
REMARK  status: ('A' for Active; 'I' for Inactive)
REMARK    1  A    between atoms: C2_2  and  C4_4
REMARK    2  A    between atoms: C4_4  and  C5_5
REMARK    3  A    between atoms: C7_7  and  O1_8
REMARK    4  A    between atoms: C11_13  and  O2_14
REMARK    5  A    between atoms: C11_13  and  C12_16
REMARK    6  A    between atoms: C12_16  and  O3_18
REMARK    7  A    between atoms: O3_18  and  C14_19
REMARK    8  A    between atoms: C14_19  and  C15_21
REMARK    9  A    between atoms: C16_22  and  C17_23
ROOT
HETATM    1  C5  UNL     1      22.628   9.353   1.264  1.00  0.00     0.163 C
HETATM    2  C6  UNL     1      21.390   9.105   0.417  1.00  0.00     0.067 C
HETATM    3  C7  UNL     1      20.935   7.704   0.410  1.00  0.00     0.134 C
HETATM    4  C8  UNL     1      20.240   7.174   1.613  1.00  0.00     0.040 C
HETATM    5  C9  UNL     1      18.738   7.415   1.403  1.00  0.00     0.023 C
HETATM    6  C10 UNL     1      20.434   5.665   1.566  1.00  0.00     0.023 C
HETATM    7  C11 UNL     1      20.657   7.814   2.867  1.00  0.00     0.231 C
HETATM    8  O5  UNL     1      22.044   7.956   2.843  1.00  0.00    -0.197 OA
HETATM    9  O6  UNL     1      22.424   9.167   2.598  1.00  0.00    -0.232 OA
ENDROOT
BRANCH   7  10
HETATM   10  O2  UNL     1      20.138   9.136   2.836  1.00  0.00    -0.361 OA
ATOM     11  H2  UNL     1      19.946   9.329   1.926  1.00  0.00     0.213 HD
ENDBRANCH   7  10
BRANCH   7  12
HETATM   12  C12 UNL     1      20.210   7.260   4.152  1.00  0.00     0.194 C
HETATM   13  C13 UNL     1      21.035   7.455   5.357  1.00  0.00     0.046 C
BRANCH  12  14
HETATM   14  O3  UNL     1      19.910   5.873   4.083  1.00  0.00    -0.307 OA
BRANCH  14  15
HETATM   15  C14 UNL     1      18.884   5.256   4.768  1.00  0.00     0.283 C
HETATM   16  O4  UNL     1      17.846   5.930   4.980  1.00  0.00    -0.260 OA
BRANCH  15  17
HETATM   17  C15 UNL     1      18.998   3.885   5.227  1.00  0.00     0.079 C
HETATM   18  C16 UNL     1      19.230   3.657   6.502  1.00  0.00    -0.012 C
BRANCH  18  19
HETATM   19  C17 UNL     1      19.361   2.277   7.056  1.00  0.00    -0.034 C
HETATM   20  C18 UNL     1      19.652   1.353   5.903  1.00  0.00     0.018 C
HETATM   21  C19 UNL     1      20.513   2.219   8.035  1.00  0.00     0.018 C
HETATM   22  C20 UNL     1      18.111   1.853   7.753  1.00  0.00     0.018 C
ENDBRANCH  18  19
ENDBRANCH  15  17
ENDBRANCH  14  15
ENDBRANCH  12  14
ENDBRANCH   7  12
BRANCH   3  23
HETATM   23  O1  UNL     1      22.086   6.925   0.127  1.00  0.00    -0.395 OA
ATOM     24  H1  UNL     1      22.588   7.425  -0.506  1.00  0.00     0.210 HD
ENDBRANCH   3  23
BRANCH   1  25
HETATM   25  C4  UNL     1      23.201  10.674   0.882  1.00  0.00     0.039 C
BRANCH  25  26
HETATM   26  C2  UNL     1      23.763  10.751  -0.498  1.00  0.00    -0.020 C
HETATM   27  C1  UNL     1      23.249  11.996  -1.184  1.00  0.00     0.009 C
HETATM   28  C3  UNL     1      25.259  10.789  -0.538  1.00  0.00     0.009 C
ENDBRANCH  25  26
ENDBRANCH   1  25
TORSDOF 9
ENDMDL