MODEL 4
REMARK VINA RESULT: -4.835272340      1.977      8.379
REMARK  6 active torsions:
REMARK  status: ('A' for Active; 'I' for Inactive)
REMARK    1  A    between atoms: O1_2  and  C2_3
REMARK    2  A    between atoms: C2_3  and  C3_5
REMARK    3  A    between atoms: C7_9  and  N1_10
REMARK       I    between atoms: N1_10  and  C8_12
REMARK       I    between atoms: C8_12  and  N2_14
REMARK    4  A    between atoms: N2_14  and  C9_16
REMARK    5  A    between atoms: C17_25  and  C18_26
REMARK    6  A    between atoms: C18_26  and  O6_28
ROOT
HETATM    1  N1  UNL     1      22.194   6.864   2.246  1.00  0.00    -0.308 N
ATOM      2  H1  UNL     1      22.973   6.733   2.891  1.00  0.00     0.170 HD
HETATM    3  C8  UNL     1      20.955   6.329   2.591  1.00  0.00     0.322 C
HETATM    4  O3  UNL     1      19.926   6.445   1.891  1.00  0.00    -0.247 OA
HETATM    5  N2  UNL     1      20.812   5.587   3.829  1.00  0.00    -0.316 N
ATOM      6  H2  UNL     1      21.626   5.468   4.433  1.00  0.00     0.166 HD
ENDROOT
BRANCH   1   7
HETATM    7  C7  UNL     1      22.430   7.578   1.050  1.00  0.00     0.053 A
HETATM    8  C6  UNL     1      22.902   6.949  -0.075  1.00  0.00     0.030 A
HETATM    9  C5  UNL     1      23.302   7.669  -1.178  1.00  0.00     0.003 A
HETATM   10  C4  UNL     1      23.227   9.028  -1.143  1.00  0.00     0.019 A
HETATM   11  C3  UNL     1      22.749   9.756  -0.015  1.00  0.00     0.058 A
HETATM   12  C17 UNL     1      22.352   8.998   1.067  1.00  0.00     0.082 A
BRANCH  11  13
HETATM   13  C2  UNL     1      22.802  11.194  -0.089  1.00  0.00     0.294 C
HETATM   14  O2  UNL     1      21.901  12.012  -0.131  1.00  0.00    -0.259 OA
BRANCH  13  15
HETATM   15  O1  UNL     1      24.090  11.780  -0.122  1.00  0.00    -0.322 OA
HETATM   16  C1  UNL     1      25.184  11.155   0.511  1.00  0.00     0.213 C
ENDBRANCH  13  15
ENDBRANCH  11  13
BRANCH  12  17
HETATM   17  C18 UNL     1      21.649   9.602   2.172  1.00  0.00     0.296 C
HETATM   18  O5  UNL     1      20.368   9.791   2.062  1.00  0.00    -0.259 OA
BRANCH  17  19
HETATM   19  O6  UNL     1      22.092  10.042   3.386  1.00  0.00    -0.322 OA
HETATM   20  C19 UNL     1      22.592   9.166   4.400  1.00  0.00     0.213 C
ENDBRANCH  17  19
ENDBRANCH  12  17
ENDBRANCH   1   7
BRANCH   5  21
HETATM   21  C9  UNL     1      19.545   5.011   4.235  1.00  0.00     0.224 C
HETATM   22  C10 UNL     1      18.974   5.818   5.350  1.00  0.00     0.054 C
HETATM   23  C11 UNL     1      17.640   5.480   5.840  1.00  0.00     0.004 C
HETATM   24  C12 UNL     1      17.033   4.183   5.490  1.00  0.00     0.000 C
HETATM   25  C13 UNL     1      17.558   2.949   6.111  1.00  0.00     0.000 C
HETATM   26  C14 UNL     1      18.634   3.078   7.118  1.00  0.00     0.002 C
HETATM   27  C15 UNL     1      19.991   2.604   6.647  1.00  0.00     0.026 C
HETATM   28  C16 UNL     1      20.565   3.378   5.527  1.00  0.00     0.170 C
HETATM   29  O4  UNL     1      19.736   3.687   4.505  1.00  0.00    -0.367 OA
ENDBRANCH   5  21
TORSDOF 6
ENDMDL