MODEL 2
REMARK VINA RESULT: -7.662357046      1.654      8.085
REMARK  4 active torsions:
REMARK  status: ('A' for Active; 'I' for Inactive)
REMARK    1  A    between atoms: C6_8  and  N2_9
REMARK    2  A    between atoms: N2_9  and  C7_11
REMARK    3  A    between atoms: N3_15  and  C11_16
REMARK    4  A    between atoms: N5_24  and  C17_25
ROOT
HETATM    1  C1  UNL     1      22.412   8.475   5.007  1.00  0.00     0.018 A
HETATM    2  C2  UNL     1      22.004   7.423   5.802  1.00  0.00     0.090 A
HETATM    3  N1  UNL     1      20.996   6.624   5.427  1.00  0.00    -0.350 N
ATOM      4  H1  UNL     1      20.709   5.853   6.029  1.00  0.00     0.166 HD
HETATM    5  C3  UNL     1      20.363   6.836   4.263  1.00  0.00     0.136 A
HETATM    6  C4  UNL     1      20.746   7.877   3.448  1.00  0.00     0.055 A
HETATM    7  C5  UNL     1      21.778   8.716   3.807  1.00  0.00     0.020 A
HETATM    8  C6  UNL     1      19.907   7.828   2.337  1.00  0.00     0.130 A
HETATM    9  N4  UNL     1      19.082   6.783   2.536  1.00  0.00    -0.281 N
ATOM     10  H4  UNL     1      18.352   6.497   1.884  1.00  0.00     0.189 HD
HETATM   11  N5  UNL     1      19.333   6.177   3.674  1.00  0.00    -0.269 N
ENDROOT
BRANCH   8  12
HETATM   12  N2  UNL     1      19.979   8.737   1.243  1.00  0.00    -0.368 N
ATOM     13  H2  UNL     1      19.223   9.407   1.103  1.00  0.00     0.161 HD
BRANCH  12  14
HETATM   14  C7  UNL     1      21.095   8.732   0.324  1.00  0.00     0.111 C
HETATM   15  C8  UNL     1      21.306   7.382  -0.241  1.00  0.00     0.028 C
HETATM   16  C9  UNL     1      22.729   7.093  -0.644  1.00  0.00     0.032 C
HETATM   17  C10 UNL     1      23.314   8.448  -1.063  1.00  0.00     0.273 C
HETATM   18  N3  UNL     1      23.510   9.170   0.184  1.00  0.00     0.095 N
HETATM   19  C16 UNL     1      22.309   9.387   0.903  1.00  0.00     0.297 C
BRANCH  18  20
HETATM   20  C11 UNL     1      24.192  10.391  -0.151  1.00  0.00     0.223 C
HETATM   21  C12 UNL     1      23.310  11.570  -0.355  1.00  0.00     0.036 C
HETATM   22  C13 UNL     1      24.312  12.726  -0.399  1.00  0.00     0.002 C
HETATM   23  C14 UNL     1      25.549  12.239   0.317  1.00  0.00     0.002 C
HETATM   24  C15 UNL     1      25.190  10.852   0.870  1.00  0.00     0.036 C
ENDBRANCH  18  20
ENDBRANCH  12  14
ENDBRANCH   8  12
BRANCH  11  25
HETATM   25  C17 UNL     1      18.665   5.009   4.249  1.00  0.00     0.113 C
HETATM   26  C18 UNL     1      17.595   5.371   5.229  1.00  0.00     0.055 C
HETATM   27  C19 UNL     1      17.772   4.658   6.569  1.00  0.00     0.234 C
HETATM   28  N6  UNL     1      18.050   3.263   6.388  1.00  0.00    -0.075 N
HETATM   29  C20 UNL     1      19.235   2.983   5.636  1.00  0.00     0.234 C
ATOM     30  H62 UNL     1      18.083   2.788   7.290  1.00  0.00     0.277 HD
ATOM     31  H61 UNL     1      17.246   2.792   5.972  1.00  0.00     0.277 HD
HETATM   32  C21 UNL     1      19.749   4.162   4.866  1.00  0.00     0.055 C
ENDBRANCH  11  25
TORSDOF 4
ENDMDL