MODEL 5
REMARK VINA RESULT: -5.824056535      1.578      3.252
REMARK  7 active torsions:
REMARK  status: ('A' for Active; 'I' for Inactive)
REMARK    1  A    between atoms: C2_2  and  O1_3
REMARK    2  A    between atoms: O1_3  and  C3_4
REMARK    3  A    between atoms: C3_4  and  C4_6
REMARK    4  A    between atoms: C5_7  and  C6_8
REMARK    5  A    between atoms: C6_8  and  O4_10
REMARK    6  A    between atoms: O4_10  and  O5_11
REMARK    7  A    between atoms: N1_15  and  C9_16
ROOT
HETATM    1  C4  UNL     1      20.546   6.827   2.536  1.00  0.00     0.099 A
HETATM    2  C5  UNL     1      19.949   6.594   1.333  1.00  0.00     0.084 A
HETATM    3  C7  UNL     1      20.489   7.471   0.451  1.00  0.00     0.031 A
HETATM    4  C8  UNL     1      20.062   7.527  -0.979  1.00  0.00     0.070 C
HETATM    5  N1  UNL     1      21.415   8.245   1.098  1.00  0.00    -0.309 N
HETATM    6  C19 UNL     1      21.447   7.852   2.362  1.00  0.00     0.140 A
HETATM    7  N2  UNL     1      22.270   8.413   3.391  1.00  0.00    -0.081 NA
ENDROOT
BRANCH   5   8
HETATM    8  C9  UNL     1      22.122   9.247   0.385  1.00  0.00     0.004 C
HETATM    9  C10 UNL     1      23.320   8.753  -0.394  1.00  0.00     0.033 C
HETATM   10  C11 UNL     1      23.495   9.646  -1.634  1.00  0.00     0.015 C
HETATM   11  C15 UNL     1      24.614   8.800   0.381  1.00  0.00     0.015 C
HETATM   12  C12 UNL     1      23.637  11.062  -1.148  1.00  0.00    -0.013 C
HETATM   13  C13 UNL     1      24.973  11.159  -0.439  1.00  0.00     0.009 C
HETATM   14  C18 UNL     1      22.559  11.503  -0.206  1.00  0.00     0.015 C
HETATM   15  C14 UNL     1      24.929  10.214   0.721  1.00  0.00    -0.013 C
HETATM   16  C16 UNL     1      23.811  10.695   1.626  1.00  0.00     0.015 C
HETATM   17  C17 UNL     1      22.475  10.517   1.013  1.00  0.00     0.033 C
ENDBRANCH   5   8
BRANCH   2  18
HETATM   18  C6  UNL     1      18.909   5.582   1.025  1.00  0.00     0.325 C
HETATM   19  O3  UNL     1      19.175   4.458   0.583  1.00  0.00    -0.257 OA
BRANCH  18  20
HETATM   20  O4  UNL     1      17.571   5.922   1.245  1.00  0.00    -0.156 OA
BRANCH  20  21
HETATM   21  O5  UNL     1      17.229   7.213   1.300  1.00  0.00    -0.242 OA
ATOM     22  H5  UNL     1      17.914   7.872   1.319  1.00  0.00     0.254 HD
ENDBRANCH  20  21
ENDBRANCH  18  20
ENDBRANCH   2  18
BRANCH   1  23
HETATM   23  C3  UNL     1      20.268   6.110   3.772  1.00  0.00     0.297 C
HETATM   24  O2  UNL     1      20.973   5.123   4.096  1.00  0.00    -0.259 OA
BRANCH  23  25
HETATM   25  O1  UNL     1      19.235   6.508   4.590  1.00  0.00    -0.318 OA
BRANCH  25  26
HETATM   26  C2  UNL     1      18.013   5.807   4.649  1.00  0.00     0.174 C
HETATM   27  C1  UNL     1      18.134   4.688   5.675  1.00  0.00     0.034 C
ENDBRANCH  25  26
ENDBRANCH  23  25
ENDBRANCH   1  23
TORSDOF 7
ENDMDL