MODEL 2
REMARK VINA RESULT: -8.476618223      1.358      1.873
REMARK  6 active torsions:
REMARK  status: ('A' for Active; 'I' for Inactive)
REMARK    1  A    between atoms: C1_4  and  O1_5
REMARK    2  A    between atoms: C1_4  and  C2_7
REMARK    3  A    between atoms: C2_7  and  C3_8
REMARK    4  A    between atoms: C6_13  and  C7_14
REMARK    5  A    between atoms: N4_18  and  C9_19
REMARK    6  A    between atoms: N5_29  and  O3_30
ROOT
HETATM    1  C3  UNL     1      19.434   2.044   5.619  1.00  0.00     0.004 C
HETATM    2  C4  UNL     1      20.562   2.917   5.161  1.00  0.00     0.064 C
HETATM    3  C5  UNL     1      19.895   4.171   4.741  1.00  0.00     0.035 A
HETATM    4  N2  UNL     1      20.242   5.172   3.885  1.00  0.00    -0.356 N
ATOM      5  H2  UNL     1      21.134   5.105   3.395  1.00  0.00     0.166 HD
HETATM    6  C6  UNL     1      19.466   6.243   3.657  1.00  0.00     0.063 A
HETATM    7  C17 UNL     1      18.274   6.286   4.343  1.00  0.00     0.153 A
HETATM    8  N5  UNL     1      17.901   5.319   5.191  1.00  0.00    -0.236 N
HETATM    9  C18 UNL     1      18.699   4.255   5.402  1.00  0.00     0.062 A
HETATM   10  C19 UNL     1      18.511   3.049   6.287  1.00  0.00     0.067 C
ENDROOT
BRANCH   6  11
HETATM   11  C7  UNL     1      19.868   7.294   2.737  1.00  0.00     0.026 A
HETATM   12  C8  UNL     1      19.059   8.199   2.086  1.00  0.00     0.122 A
HETATM   13  N3  UNL     1      19.851   8.988   1.336  1.00  0.00    -0.307 N
HETATM   14  N4  UNL     1      21.098   8.654   1.461  1.00  0.00    -0.273 N
ATOM     15  H3  UNL     1      19.514   9.748   0.747  1.00  0.00     0.186 HD
HETATM   16  C16 UNL     1      21.151   7.616   2.314  1.00  0.00     0.128 A
BRANCH  14  17
HETATM   17  C9  UNL     1      22.319   9.226   0.835  1.00  0.00     0.243 C
HETATM   18  C10 UNL     1      22.724   8.146  -0.107  1.00  0.00     0.056 C
HETATM   19  C11 UNL     1      24.071   8.399  -0.860  1.00  0.00     0.004 C
HETATM   20  C12 UNL     1      24.204   9.796  -0.827  1.00  0.00     0.000 C
HETATM   21  C13 UNL     1      24.746  11.067  -1.088  1.00  0.00     0.002 C
HETATM   22  C14 UNL     1      23.814  12.027  -0.278  1.00  0.00     0.026 C
HETATM   23  C15 UNL     1      22.446  11.486  -0.014  1.00  0.00     0.170 C
HETATM   24  O2  UNL     1      22.060  10.461   0.633  1.00  0.00    -0.365 OA
ENDBRANCH  14  17
ENDBRANCH   6  11
BRANCH   8  25
HETATM   25  O3  UNL     1      16.698   5.386   5.868  1.00  0.00    -0.283 OA
ATOM     26  H3  UNL     1      16.520   4.820   6.609  1.00  0.00     0.245 HD
ENDBRANCH   8  25
BRANCH   1  27
HETATM   27  C2  UNL     1      19.893   1.068   6.688  1.00  0.00     0.088 C
BRANCH  27  28
HETATM   28  C1  UNL     1      19.823   1.760   7.991  1.00  0.00     0.109 C
HETATM   29  N1  UNL     1      20.858   2.309   8.501  1.00  0.00    -0.384 N
ATOM     30  H12 UNL     1      20.809   2.788   9.401  1.00  0.00     0.157 HD
ATOM     31  H11 UNL     1      21.734   2.255   7.981  1.00  0.00     0.157 HD
BRANCH  28  32
HETATM   32  O1  UNL     1      18.620   1.835   8.706  1.00  0.00    -0.350 OA
ATOM     33  H1  UNL     1      17.901   2.322   8.320  1.00  0.00     0.219 HD
ENDBRANCH  28  32
ENDBRANCH  27  28
ENDBRANCH   1  27
TORSDOF 6
ENDMDL