MODEL 3
REMARK VINA RESULT: -7.312698976      1.696      3.179
REMARK  6 active torsions:
REMARK  status: ('A' for Active; 'I' for Inactive)
REMARK    1  A    between atoms: C1_2  and  C2_3
REMARK    2  A    between atoms: C1_2  and  N2_12
REMARK    3  A    between atoms: C2_3  and  S2_4
REMARK    4  A    between atoms: S2_4  and  C3_5
REMARK    5  A    between atoms: N2_12  and  C7_14
REMARK    6  A    between atoms: C12_19  and  N3_20
ROOT
HETATM    1  C7  UNL     1      19.390   7.397   2.897  1.00  0.00     0.059 A
HETATM    2  C8  UNL     1      19.221   8.126   1.726  1.00  0.00     0.032 A
HETATM    3  C9  UNL     1      18.501   7.632   0.633  1.00  0.00     0.002 A
HETATM    4  C10 UNL     1      17.941   6.391   0.707  1.00  0.00     0.002 A
HETATM    5  C11 UNL     1      18.105   5.668   1.863  1.00  0.00     0.031 A
HETATM    6  C12 UNL     1      18.806   6.121   2.960  1.00  0.00     0.057 A
ENDROOT
BRANCH   1   7
HETATM    7  N2  UNL     1      20.114   7.813   4.015  1.00  0.00    -0.348 N
ATOM      8  H2  UNL     1      19.581   7.800   4.884  1.00  0.00     0.166 HD
BRANCH   7   9
HETATM    9  C1  UNL     1      21.432   8.241   4.164  1.00  0.00     0.087 C
HETATM   10  S1  UNL     1      22.364   7.374   5.313  1.00  0.00    -0.065 SA
BRANCH   9  11
HETATM   11  C2  UNL     1      22.215   9.297   3.528  1.00  0.00     0.151 C
BRANCH  11  12
HETATM   12  S2  UNL     1      22.587   8.786   1.819  1.00  0.00    -0.099 SA
BRANCH  12  13
HETATM   13  C3  UNL     1      22.925  10.197   0.780  1.00  0.00     0.103 C
HETATM   14  N1  UNL     1      21.970  10.938   0.435  1.00  0.00    -0.379 N
HETATM   15  C4  UNL     1      22.081  12.100  -0.390  1.00  0.00     0.121 C
ATOM     16  H1  UNL     1      21.040  10.690   0.773  1.00  0.00     0.160 HD
HETATM   17  C5  UNL     1      23.169  11.984  -1.421  1.00  0.00     0.030 C
HETATM   18  C6  UNL     1      24.554  11.945  -0.843  1.00  0.00     0.083 C
HETATM   19  S3  UNL     1      24.616  10.490   0.274  1.00  0.00    -0.105 SA
ENDBRANCH  12  13
ENDBRANCH  11  12
ENDBRANCH   9  11
ENDBRANCH   7   9
ENDBRANCH   1   7
BRANCH   6  20
HETATM   20  N3  UNL     1      18.895   5.340   4.142  1.00  0.00    -0.376 N
HETATM   21  C13 UNL     1      20.049   4.552   4.485  1.00  0.00     0.150 C
HETATM   22  C14 UNL     1      19.789   3.480   5.476  1.00  0.00     0.252 C
HETATM   23  N4  UNL     1      18.392   3.171   5.693  1.00  0.00    -0.072 N
HETATM   24  C15 UNL     1      17.763   4.390   6.135  1.00  0.00     0.252 C
ATOM     25  H42 UNL     1      17.939   2.757   4.878  1.00  0.00     0.277 HD
ATOM     26  H41 UNL     1      18.247   2.388   6.332  1.00  0.00     0.277 HD
HETATM   27  C16 UNL     1      17.755   5.370   5.021  1.00  0.00     0.150 C
ENDBRANCH   6  20
TORSDOF 6
ENDMDL