MODEL 3
REMARK VINA RESULT: -0.760758899      1.302      1.552
REMARK  6 active torsions:
REMARK  status: ('A' for Active; 'I' for Inactive)
REMARK    1  A    between atoms: O1_2  and  C2_3
REMARK    2  A    between atoms: C2_3  and  C3_5
REMARK    3  A    between atoms: C3_5  and  N1_6
REMARK    4  A    between atoms: N1_6  and  C4_8
REMARK    5  A    between atoms: C4_8  and  O3_9
REMARK    6  A    between atoms: C4_8  and  C5_11
ROOT
HETATM    1  C5  UNL     1      20.692   7.173   3.318  1.00  0.00     0.043 C
HETATM    2  C6  UNL     1      20.681   5.976   2.388  1.00  0.00     0.009 C
HETATM    3  C7  UNL     1      21.523   6.135   1.164  1.00  0.00     0.001 C
HETATM    4  C8  UNL     1      23.001   6.200   1.475  1.00  0.00     0.000 C
HETATM    5  C9  UNL     1      23.746   5.564   0.323  1.00  0.00     0.000 C
HETATM    6  C10 UNL     1      23.730   6.412  -0.928  1.00  0.00     0.000 C
HETATM    7  C11 UNL     1      24.876   7.399  -0.974  1.00  0.00     0.000 C
HETATM    8  C12 UNL     1      24.344   8.682  -1.614  1.00  0.00     0.000 C
HETATM    9  C13 UNL     1      24.652   9.890  -0.771  1.00  0.00     0.000 C
HETATM   10  C14 UNL     1      23.690  11.024  -0.947  1.00  0.00     0.004 C
HETATM   11  C15 UNL     1      22.774  11.184   0.267  1.00  0.00    -0.017 C
HETATM   12  C16 UNL     1      23.599  11.200   1.523  1.00  0.00     0.010 C
HETATM   13  C17 UNL     1      21.822  10.029   0.228  1.00  0.00     0.031 C
HETATM   14  C18 UNL     1      20.731  10.092   1.272  1.00  0.00     0.179 C
HETATM   15  O4  UNL     1      19.640   9.272   0.948  1.00  0.00    -0.321 OA
HETATM   16  C19 UNL     1      19.121   8.236   1.677  1.00  0.00     0.259 C
HETATM   17  O5  UNL     1      18.327   7.423   1.189  1.00  0.00    -0.265 OA
HETATM   18  C20 UNL     1      19.530   8.087   3.117  1.00  0.00     0.120 C
ENDROOT
BRANCH   1  19
HETATM   19  C4  UNL     1      20.679   6.578   4.708  1.00  0.00     0.222 C
BRANCH  19  20
HETATM   20  N1  UNL     1      19.502   6.423   5.401  1.00  0.00    -0.368 N
ATOM     21  H1  UNL     1      19.401   7.008   6.230  1.00  0.00     0.161 HD
BRANCH  20  22
HETATM   22  C3  UNL     1      18.437   5.587   5.134  1.00  0.00     0.168 C
BRANCH  22  23
HETATM   23  C2  UNL     1      18.383   4.281   5.871  1.00  0.00     0.297 C
HETATM   24  O2  UNL     1      17.627   4.067   6.838  1.00  0.00    -0.259 OA
BRANCH  23  25
HETATM   25  O1  UNL     1      19.219   3.263   5.445  1.00  0.00    -0.322 OA
HETATM   26  C1  UNL     1      19.923   2.425   6.341  1.00  0.00     0.213 C
ENDBRANCH  23  25
ENDBRANCH  22  23
ENDBRANCH  20  22
ENDBRANCH  19  20
BRANCH  19  27
HETATM   27  O3  UNL     1      21.441   5.373   4.643  1.00  0.00    -0.377 OA
ATOM     28  H3  UNL     1      20.915   4.620   4.399  1.00  0.00     0.212 HD
ENDBRANCH  19  27
ENDBRANCH   1  19
TORSDOF 6
ENDMDL