MODEL 5
REMARK VINA RESULT: -3.932181650      3.714      5.775
REMARK  6 active torsions:
REMARK  status: ('A' for Active; 'I' for Inactive)
REMARK    1  A    between atoms: C4_4  and  C5_5
REMARK    2  A    between atoms: C9_10  and  O2_11
REMARK    3  A    between atoms: C9_10  and  C10_13
REMARK    4  A    between atoms: C10_13  and  C11_15
REMARK    5  A    between atoms: C11_15  and  C12_16
REMARK    6  A    between atoms: C15_19  and  O4_20
ROOT
HETATM    1  C5  UNL     1      21.266   6.819   4.630  1.00  0.00     0.005 A
HETATM    2  C6  UNL     1      22.258   7.110   5.564  1.00  0.00     0.154 A
HETATM    3  O1  UNL     1      23.026   8.081   5.172  1.00  0.00    -0.326 OA
HETATM    4  C7  UNL     1      22.619   8.487   4.001  1.00  0.00     0.063 A
HETATM    5  C8  UNL     1      21.514   7.734   3.599  1.00  0.00     0.028 A
HETATM    6  C9  UNL     1      20.849   7.964   2.340  1.00  0.00     0.174 C
HETATM    7  C15 UNL     1      21.554   9.138   1.590  1.00  0.00     0.165 C
HETATM    8  C16 UNL     1      21.996  10.219   2.506  1.00  0.00     0.042 C
HETATM    9  C17 UNL     1      23.213   9.573   3.196  1.00  0.00     0.068 C
ENDROOT
BRANCH   6  10
HETATM   10  O2  UNL     1      19.560   8.490   2.391  1.00  0.00    -0.374 OA
ATOM     11  H2  UNL     1      19.012   8.365   1.625  1.00  0.00     0.211 HD
ENDBRANCH   6  10
BRANCH   6  12
HETATM   12  C10 UNL     1      21.020   6.904   1.288  1.00  0.00     0.169 C
HETATM   13  O3  UNL     1      21.963   6.944   0.536  1.00  0.00    -0.294 OA
BRANCH  12  14
HETATM   14  C11 UNL     1      20.028   5.812   1.188  1.00  0.00     0.086 C
BRANCH  14  15
HETATM   15  C12 UNL     1      18.847   6.154   0.338  1.00  0.00    -0.007 A
HETATM   16  C13 UNL     1      17.912   7.259   0.650  1.00  0.00     0.005 A
HETATM   17  C14 UNL     1      17.488   5.894   0.981  1.00  0.00     0.005 A
ENDBRANCH  14  15
ENDBRANCH  12  14
ENDBRANCH   6  12
BRANCH   7  18
HETATM   18  O4  UNL     1      20.725   9.654   0.614  1.00  0.00    -0.392 OA
ATOM     19  H4  UNL     1      20.741   9.103  -0.160  1.00  0.00     0.210 HD
ENDBRANCH   7  18
BRANCH   1  20
HETATM   20  C4  UNL     1      20.246   5.794   4.765  1.00  0.00    -0.038 C
HETATM   21  C3  UNL     1      19.158   6.157   5.485  1.00  0.00    -0.003 C
HETATM   22  C2  UNL     1      17.978   5.372   5.803  1.00  0.00     0.077 C
HETATM   23  C1  UNL     1      16.973   5.333   4.707  1.00  0.00     0.026 C
HETATM   24  S2  UNL     1      18.314   3.751   6.575  1.00  0.00    -0.089 SA
HETATM   25  S1  UNL     1      20.213   3.245   5.659  1.00  0.00    -0.092 SA
HETATM   26  C18 UNL     1      20.186   4.453   4.254  1.00  0.00     0.125 C
ENDBRANCH   1  20
TORSDOF 6
ENDMDL