MODEL 4
REMARK VINA RESULT: -7.280514914      1.489      1.931
REMARK  6 active torsions:
REMARK  status: ('A' for Active; 'I' for Inactive)
REMARK    1  A    between atoms: S1_2  and  C2_3
REMARK    2  A    between atoms: C3_8  and  C4_9
REMARK    3  A    between atoms: C4_9  and  N3_10
REMARK    4  A    between atoms: N3_10  and  C5_12
REMARK    5  A    between atoms: C7_18  and  O1_19
REMARK    6  A    between atoms: C7_18  and  C8_21
ROOT
HETATM    1  C5  UNL     1      20.003   7.321   3.239  1.00  0.00     0.124 A
HETATM    2  N4  UNL     1      20.627   7.412   4.411  1.00  0.00    -0.285 N
ATOM      3  H4  UNL     1      20.334   6.968   5.282  1.00  0.00     0.188 HD
HETATM    4  N5  UNL     1      21.686   8.178   4.249  1.00  0.00    -0.296 N
ATOM      5  H5  UNL     1      22.344   8.415   4.991  1.00  0.00     0.187 HD
HETATM    6  C6  UNL     1      21.788   8.615   2.954  1.00  0.00     0.087 A
HETATM    7  C7  UNL     1      22.847   9.450   2.500  1.00  0.00     0.080 C
HETATM    8  C16 UNL     1      20.720   8.075   2.294  1.00  0.00     0.014 A
HETATM    9  C17 UNL     1      20.290   8.171   0.899  1.00  0.00     0.055 C
ENDROOT
BRANCH   1  10
HETATM   10  N3  UNL     1      18.930   6.654   3.022  1.00  0.00    -0.369 N
ATOM     11  H3  UNL     1      18.761   6.298   2.081  1.00  0.00     0.161 HD
BRANCH  10  12
HETATM   12  C4  UNL     1      17.947   6.382   4.049  1.00  0.00     0.187 C
BRANCH  12  13
HETATM   13  C3  UNL     1      18.236   5.060   4.714  1.00  0.00     0.086 A
HETATM   14  N2  UNL     1      17.381   4.229   5.303  1.00  0.00    -0.295 N
HETATM   15  N1  UNL     1      17.802   3.153   5.813  1.00  0.00    -0.287 N
ATOM     16  H2  UNL     1      16.388   4.460   5.343  1.00  0.00     0.187 HD
HETATM   17  C2  UNL     1      19.097   2.857   5.756  1.00  0.00     0.128 A
ATOM     18  H1  UNL     1      17.150   2.513   6.267  1.00  0.00     0.188 HD
HETATM   19  S2  UNL     1      19.711   4.219   4.920  1.00  0.00    -0.048 SA
BRANCH  17  20
HETATM   20  S1  UNL     1      19.944   1.398   6.400  1.00  0.00    -0.108 SA
HETATM   21  C1  UNL     1      20.303   1.703   8.131  1.00  0.00     0.097 C
ENDBRANCH  17  20
ENDBRANCH  12  13
ENDBRANCH  10  12
ENDBRANCH   1  10
BRANCH   7  22
HETATM   22  O1  UNL     1      23.726   9.737   3.445  1.00  0.00    -0.362 OA
ATOM     23  H1  UNL     1      23.940  10.661   3.489  1.00  0.00     0.217 HD
ENDBRANCH   7  22
BRANCH   7  24
HETATM   24  C8  UNL     1      23.205  10.071   1.245  1.00  0.00     0.012 C
HETATM   25  C9  UNL     1      24.576  10.578   1.041  1.00  0.00     0.021 C
HETATM   26  C10 UNL     1      24.676  10.673  -0.497  1.00  0.00    -0.009 C
HETATM   27  C11 UNL     1      23.872  11.912  -0.914  1.00  0.00     0.010 C
HETATM   28  C14 UNL     1      23.566   9.851  -1.021  1.00  0.00    -0.005 C
HETATM   29  C12 UNL     1      22.649  11.008  -0.844  1.00  0.00    -0.009 C
HETATM   30  C13 UNL     1      22.150  10.937   0.604  1.00  0.00     0.021 C
HETATM   31  C15 UNL     1      23.225   8.958   0.116  1.00  0.00     0.021 C
ENDBRANCH   7  24
TORSDOF 6
ENDMDL