MODEL 2
REMARK VINA RESULT: -7.360041601      1.573      2.195
REMARK  7 active torsions:
REMARK  status: ('A' for Active; 'I' for Inactive)
REMARK    1  A    between atoms: C2_2  and  N1_3
REMARK    2  A    between atoms: N1_3  and  C3_5
REMARK    3  A    between atoms: C3_5  and  O1_6
REMARK    4  A    between atoms: C3_5  and  N2_8
REMARK       I    between atoms: N2_8  and  C4_10
REMARK    5  A    between atoms: C4_10  and  C5_12
REMARK    6  A    between atoms: C5_12  and  S1_13
REMARK    7  A    between atoms: S1_13  and  C6_14
ROOT
HETATM    1  C6  UNL     1      20.604   7.213   1.202  1.00  0.00     0.148 A
HETATM    2  N3  UNL     1      21.855   7.418   0.758  1.00  0.00    -0.334 N
ATOM      3  H3  UNL     1      22.553   6.688   0.610  1.00  0.00     0.168 HD
HETATM    4  C7  UNL     1      22.054   8.767   0.530  1.00  0.00     0.076 A
HETATM    5  C8  UNL     1      23.037   9.599   0.101  1.00  0.00    -0.015 A
HETATM    6  C9  UNL     1      22.741  10.929   0.042  1.00  0.00    -0.007 A
HETATM    7  S2  UNL     1      21.125  10.990   0.577  1.00  0.00    -0.074 SA
HETATM    8  C10 UNL     1      20.859   9.331   0.863  1.00  0.00     0.106 A
HETATM    9  N4  UNL     1      19.965   8.376   1.277  1.00  0.00    -0.324 N
HETATM   10  C11 UNL     1      18.625   8.638   1.695  1.00  0.00     0.159 C
HETATM   11  C12 UNL     1      23.550  12.118  -0.371  1.00  0.00     0.047 C
HETATM   12  C13 UNL     1      24.706  11.666  -1.200  1.00  0.00     0.005 C
HETATM   13  C14 UNL     1      25.827  11.136  -0.335  1.00  0.00     0.001 C
HETATM   14  C15 UNL     1      25.426   9.892   0.418  1.00  0.00     0.005 C
HETATM   15  C16 UNL     1      24.408   9.072  -0.299  1.00  0.00     0.042 C
ENDROOT
BRANCH   1  16
HETATM   16  S1  UNL     1      19.880   5.638   1.632  1.00  0.00    -0.084 SA
BRANCH  16  17
HETATM   17  C5  UNL     1      18.762   5.931   3.034  1.00  0.00     0.185 C
BRANCH  17  18
HETATM   18  C4  UNL     1      19.116   5.031   4.194  1.00  0.00     0.234 C
HETATM   19  N2  UNL     1      18.069   4.433   4.898  1.00  0.00    -0.292 N
ATOM     20  H2  UNL     1      17.116   4.632   4.596  1.00  0.00     0.172 HD
HETATM   21  O2  UNL     1      20.323   4.887   4.440  1.00  0.00    -0.272 OA
BRANCH  19  22
HETATM   22  C3  UNL     1      18.244   3.575   5.996  1.00  0.00     0.219 C
BRANCH  22  23
HETATM   23  N1  UNL     1      18.781   2.281   5.932  1.00  0.00    -0.357 N
ATOM     24  H1  UNL     1      18.229   1.490   5.600  1.00  0.00     0.163 HD
BRANCH  23  25
HETATM   25  C2  UNL     1      20.178   2.117   6.368  1.00  0.00     0.118 C
HETATM   26  C1  UNL     1      20.164   1.833   7.852  1.00  0.00     0.026 C
ENDBRANCH  23  25
ENDBRANCH  22  23
BRANCH  22  27
HETATM   27  O1  UNL     1      17.867   4.059   7.142  1.00  0.00    -0.332 OA
ATOM     28  H1  UNL     1      18.091   4.953   7.371  1.00  0.00     0.220 HD
ENDBRANCH  22  27
ENDBRANCH  19  22
ENDBRANCH  17  18
ENDBRANCH  16  17
ENDBRANCH   1  16
TORSDOF 7
ENDMDL