MODEL 5
REMARK VINA RESULT: -8.387442133      1.607      5.450
REMARK  5 active torsions:
REMARK  status: ('A' for Active; 'I' for Inactive)
REMARK    1  A    between atoms: C5_8  and  C6_9
REMARK    2  A    between atoms: C6_9  and  C7_10
REMARK    3  A    between atoms: C6_9  and  C15_18
REMARK    4  A    between atoms: C7_10  and  C8_11
REMARK    5  A    between atoms: C8_11  and  C9_12
ROOT
HETATM    1  C6  UNL     1      23.888  30.751   6.903  1.00  0.00     0.055 C
ENDROOT
BRANCH   1   2
HETATM    2  C5  UNL     1      23.545  32.076   6.388  1.00  0.00    -0.011 A
HETATM    3  C1  UNL     1      23.485  33.175   7.183  1.00  0.00     0.107 A
HETATM    4  S1  UNL     1      23.818  33.130   8.765  1.00  0.00    -0.060 SA
HETATM    5  N1  UNL     1      23.144  34.413   6.704  1.00  0.00    -0.357 N
HETATM    6  C2  UNL     1      22.851  34.583   5.406  1.00  0.00     0.089 A
ATOM      7  H1  UNL     1      23.113  35.211   7.339  1.00  0.00     0.166 HD
HETATM    8  C3  UNL     1      22.904  33.481   4.571  1.00  0.00     0.018 A
HETATM    9  C4  UNL     1      23.245  32.232   5.037  1.00  0.00     0.012 A
ENDBRANCH   1   2
BRANCH   1  10
HETATM   10  C7  UNL     1      24.843  29.965   6.034  1.00  0.00     0.019 C
BRANCH  10  11
HETATM   11  C8  UNL     1      26.227  30.106   6.571  1.00  0.00     0.039 C
BRANCH  11  12
HETATM   12  C9  UNL     1      26.603  29.055   7.527  1.00  0.00    -0.058 A
HETATM   13  C10 UNL     1      26.361  27.717   7.317  1.00  0.00     0.007 A
HETATM   14  C11 UNL     1      26.732  26.749   8.244  1.00  0.00     0.001 A
HETATM   15  C12 UNL     1      27.355  27.155   9.399  1.00  0.00     0.000 A
HETATM   16  C13 UNL     1      27.616  28.484   9.648  1.00  0.00     0.001 A
HETATM   17  C14 UNL     1      27.230  29.414   8.698  1.00  0.00     0.007 A
ENDBRANCH  11  12
ENDBRANCH  10  11
ENDBRANCH   1  10
BRANCH   1  18
HETATM   18  C15 UNL     1      22.723  29.904   7.240  1.00  0.00    -0.050 A
HETATM   19  C16 UNL     1      22.934  28.757   7.972  1.00  0.00     0.008 A
HETATM   20  C17 UNL     1      21.891  27.930   8.326  1.00  0.00     0.001 A
HETATM   21  C18 UNL     1      20.595  28.221   7.961  1.00  0.00     0.000 A
HETATM   22  C19 UNL     1      20.407  29.373   7.229  1.00  0.00     0.001 A
HETATM   23  C20 UNL     1      21.446  30.212   6.865  1.00  0.00     0.008 A
ENDBRANCH   1  18
TORSDOF 5
ENDMDL