MODEL 4
REMARK VINA RESULT: -8.476173950      1.653      4.132
REMARK  5 active torsions:
REMARK  status: ('A' for Active; 'I' for Inactive)
REMARK    1  A    between atoms: C3_5  and  C4_6
REMARK    2  A    between atoms: C4_6  and  C5_7
REMARK    3  A    between atoms: C5_7  and  C6_8
REMARK    4  A    between atoms: C6_8  and  C7_9
REMARK    5  A    between atoms: C7_9  and  C8_10
ROOT
HETATM    1  C8  UNL     1      21.075  30.781   5.639  1.00  0.00    -0.045 A
HETATM    2  C9  UNL     1      22.405  30.529   5.885  1.00  0.00     0.020 A
HETATM    3  C10 UNL     1      22.786  29.594   6.853  1.00  0.00    -0.023 A
HETATM    4  C11 UNL     1      24.149  29.369   7.073  1.00  0.00     0.012 A
HETATM    5  C12 UNL     1      24.570  28.458   8.017  1.00  0.00     0.001 A
HETATM    6  C13 UNL     1      23.598  27.785   8.728  1.00  0.00     0.001 A
HETATM    7  C14 UNL     1      22.246  27.977   8.542  1.00  0.00     0.014 A
HETATM    8  C15 UNL     1      21.846  28.908   7.578  1.00  0.00     0.002 A
HETATM    9  C16 UNL     1      20.512  29.154   7.336  1.00  0.00     0.054 A
HETATM   10  N2  UNL     1      19.602  28.472   8.047  1.00  0.00    -0.365 N
ATOM     11  H2  UNL     1      19.908  27.796   8.748  1.00  0.00     0.165 HD
HETATM   12  C17 UNL     1      18.291  28.673   7.842  1.00  0.00     0.088 A
HETATM   13  C18 UNL     1      17.863  29.581   6.900  1.00  0.00     0.018 A
HETATM   14  C19 UNL     1      18.818  30.286   6.167  1.00  0.00     0.015 A
HETATM   15  C20 UNL     1      20.151  30.082   6.376  1.00  0.00    -0.002 A
ENDROOT
BRANCH   1  16
HETATM   16  C7  UNL     1      20.682  31.770   4.657  1.00  0.00     0.039 C
BRANCH  16  17
HETATM   17  C6  UNL     1      21.830  32.729   4.463  1.00  0.00     0.005 C
BRANCH  17  18
HETATM   18  C5  UNL     1      21.541  34.112   5.043  1.00  0.00     0.006 C
BRANCH  18  19
HETATM   19  C4  UNL     1      22.838  34.589   5.630  1.00  0.00     0.057 C
BRANCH  19  20
HETATM   20  C3  UNL     1      23.197  33.967   6.912  1.00  0.00     0.009 A
HETATM   21  N1  UNL     1      24.198  33.117   7.144  1.00  0.00    -0.369 N
HETATM   22  C2  UNL     1      24.206  32.763   8.437  1.00  0.00     0.088 A
ATOM     23  H1  UNL     1      24.859  32.785   6.443  1.00  0.00     0.165 HD
HETATM   24  C1  UNL     1      23.163  33.419   9.055  1.00  0.00     0.019 A
HETATM   25  C21 UNL     1      22.538  34.168   8.097  1.00  0.00     0.026 A
ENDBRANCH  19  20
ENDBRANCH  18  19
ENDBRANCH  17  18
ENDBRANCH  16  17
ENDBRANCH   1  16
TORSDOF 5
ENDMDL