MODEL 3
REMARK VINA RESULT: -9.249502750      1.022      1.703
REMARK  5 active torsions:
REMARK  status: ('A' for Active; 'I' for Inactive)
REMARK    1  A    between atoms: C4_4  and  C5_5
REMARK    2  A    between atoms: C5_5  and  C6_6
REMARK    3  A    between atoms: C6_6  and  C7_7
REMARK    4  A    between atoms: C7_7  and  C8_8
REMARK    5  A    between atoms: C7_7  and  C12_13
ROOT
HETATM    1  C7  UNL     1      24.245  30.004   7.216  1.00  0.00     0.078 C
ENDROOT
BRANCH   1   2
HETATM    2  C6  UNL     1      23.182  29.085   7.771  1.00  0.00     0.021 C
BRANCH   2   3
HETATM    3  C5  UNL     1      22.399  28.381   6.719  1.00  0.00     0.039 C
BRANCH   3   4
HETATM    4  C4  UNL     1      20.995  28.923   6.783  1.00  0.00    -0.058 A
HETATM    5  C3  UNL     1      20.547  29.863   5.873  1.00  0.00     0.007 A
HETATM    6  C2  UNL     1      19.263  30.370   5.918  1.00  0.00     0.001 A
HETATM    7  C1  UNL     1      18.390  29.939   6.892  1.00  0.00     0.000 A
HETATM    8  C21 UNL     1      18.823  29.002   7.807  1.00  0.00     0.001 A
HETATM    9  C20 UNL     1      20.113  28.497   7.754  1.00  0.00     0.007 A
ENDBRANCH   3   4
ENDBRANCH   2   3
ENDBRANCH   1   2
BRANCH   1  10
HETATM   10  C8  UNL     1      25.584  29.570   7.689  1.00  0.00     0.061 A
HETATM   11  C9  UNL     1      26.790  30.048   7.223  1.00  0.00     0.035 A
HETATM   12  C10 UNL     1      27.786  29.400   7.911  1.00  0.00     0.027 A
HETATM   13  C11 UNL     1      27.152  28.542   8.778  1.00  0.00     0.142 A
HETATM   14  O1  UNL     1      25.864  28.682   8.607  1.00  0.00    -0.326 OA
ENDBRANCH   1  10
BRANCH   1  15
HETATM   15  C12 UNL     1      23.973  31.429   7.391  1.00  0.00    -0.020 A
HETATM   16  C13 UNL     1      24.154  32.150   8.548  1.00  0.00     0.097 A
HETATM   17  N1  UNL     1      23.792  33.421   8.293  1.00  0.00    -0.365 N
HETATM   18  C14 UNL     1      23.385  33.579   7.040  1.00  0.00     0.042 A
ATOM     19  H1  UNL     1      23.825  34.173   8.982  1.00  0.00     0.165 HD
HETATM   20  C15 UNL     1      22.933  34.690   6.364  1.00  0.00     0.030 A
HETATM   21  C19 UNL     1      23.491  32.317   6.443  1.00  0.00    -0.001 A
HETATM   22  C16 UNL     1      22.573  34.553   5.048  1.00  0.00     0.002 A
HETATM   23  C17 UNL     1      22.672  33.323   4.443  1.00  0.00     0.001 A
HETATM   24  C18 UNL     1      23.122  32.228   5.130  1.00  0.00     0.014 A
ENDBRANCH   1  15
TORSDOF 5
ENDMDL