MODEL 3
REMARK VINA RESULT: -9.784669274      1.581      2.767
REMARK  5 active torsions:
REMARK  status: ('A' for Active; 'I' for Inactive)
REMARK    1  A    between atoms: C9_11  and  C10_12
REMARK    2  A    between atoms: C10_12  and  C11_13
REMARK    3  A    between atoms: C11_13  and  C12_14
REMARK    4  A    between atoms: C12_14  and  C13_15
REMARK    5  A    between atoms: C13_15  and  C14_16
ROOT
HETATM    1  C1  UNL     1      28.271  25.227  11.435  1.00  0.00     0.002 A
HETATM    2  C2  UNL     1      27.314  24.683  10.610  1.00  0.00     0.001 A
HETATM    3  C3  UNL     1      26.745  25.426   9.583  1.00  0.00     0.014 A
HETATM    4  C4  UNL     1      27.136  26.727   9.376  1.00  0.00     0.003 A
HETATM    5  C5  UNL     1      28.094  27.274  10.201  1.00  0.00     0.043 A
HETATM    6  C6  UNL     1      28.666  26.534  11.231  1.00  0.00     0.030 A
HETATM    7  N1  UNL     1      28.285  28.535   9.785  1.00  0.00    -0.355 N
ATOM      8  H1  UNL     1      28.941  29.193  10.206  1.00  0.00     0.166 HD
HETATM    9  C7  UNL     1      27.491  28.808   8.735  1.00  0.00     0.044 A
HETATM   10  C8  UNL     1      27.296  29.934   7.944  1.00  0.00     0.037 A
HETATM   11  C9  UNL     1      26.409  29.991   6.897  1.00  0.00    -0.056 A
HETATM   12  C19 UNL     1      25.681  28.815   6.653  1.00  0.00     0.008 A
HETATM   13  C20 UNL     1      25.836  27.674   7.406  1.00  0.00     0.015 A
HETATM   14  C21 UNL     1      26.747  27.671   8.455  1.00  0.00     0.003 A
ENDROOT
BRANCH  11  15
HETATM   15  C10 UNL     1      26.191  31.187   6.037  1.00  0.00     0.038 C
BRANCH  15  16
HETATM   16  C11 UNL     1      25.509  30.904   4.754  1.00  0.00     0.005 C
BRANCH  16  17
HETATM   17  C12 UNL     1      24.260  31.630   4.454  1.00  0.00     0.005 C
BRANCH  17  18
HETATM   18  C13 UNL     1      23.104  31.337   5.363  1.00  0.00     0.038 C
BRANCH  18  19
HETATM   19  C14 UNL     1      23.050  32.367   6.421  1.00  0.00    -0.056 A
HETATM   20  C15 UNL     1      23.001  33.718   6.141  1.00  0.00     0.024 A
HETATM   21  C16 UNL     1      22.950  34.678   7.123  1.00  0.00     0.088 A
HETATM   22  N2  UNL     1      22.949  34.297   8.400  1.00  0.00    -0.375 N
HETATM   23  C17 UNL     1      22.997  33.000   8.743  1.00  0.00     0.088 A
ATOM     24  H2  UNL     1      22.913  35.007   9.132  1.00  0.00     0.164 HD
HETATM   25  C18 UNL     1      23.048  32.012   7.752  1.00  0.00     0.024 A
ENDBRANCH  18  19
ENDBRANCH  17  18
ENDBRANCH  16  17
ENDBRANCH  15  16
ENDBRANCH  11  15
TORSDOF 5
ENDMDL