MODEL 5
REMARK VINA RESULT: -8.053874611      2.115      4.772
REMARK  5 active torsions:
REMARK  status: ('A' for Active; 'I' for Inactive)
REMARK    1  A    between atoms: C4_4  and  O1_5
REMARK    2  A    between atoms: O1_5  and  C5_6
REMARK    3  A    between atoms: C5_6  and  C6_7
REMARK    4  A    between atoms: C6_7  and  C7_8
REMARK    5  A    between atoms: C7_8  and  C8_9
ROOT
HETATM    1  C8  UNL     1      21.316  29.170   6.662  1.00  0.00    -0.029 A
HETATM    2  C9  UNL     1      20.963  28.178   7.589  1.00  0.00     0.096 A
HETATM    3  N1  UNL     1      22.055  27.812   8.263  1.00  0.00    -0.365 N
ATOM      4  H1  UNL     1      22.076  27.105   8.999  1.00  0.00     0.165 HD
HETATM    5  C10 UNL     1      23.123  28.505   7.836  1.00  0.00     0.043 A
HETATM    6  C11 UNL     1      24.432  28.476   8.219  1.00  0.00     0.031 A
HETATM    7  C12 UNL     1      25.335  29.299   7.615  1.00  0.00     0.014 A
HETATM    8  C13 UNL     1      24.928  30.152   6.626  1.00  0.00    -0.025 A
HETATM    9  C14 UNL     1      25.825  30.989   6.004  1.00  0.00     0.012 A
HETATM   10  C15 UNL     1      25.408  31.841   5.012  1.00  0.00     0.001 A
HETATM   11  C16 UNL     1      24.098  31.897   4.600  1.00  0.00     0.001 A
HETATM   12  C17 UNL     1      23.182  31.038   5.238  1.00  0.00     0.013 A
HETATM   13  C18 UNL     1      23.600  30.188   6.229  1.00  0.00    -0.013 A
HETATM   14  C19 UNL     1      22.645  29.359   6.825  1.00  0.00     0.009 A
ENDROOT
BRANCH   1  15
HETATM   15  C7  UNL     1      20.365  29.780   5.774  1.00  0.00     0.043 C
BRANCH  15  16
HETATM   16  C6  UNL     1      19.093  30.239   6.523  1.00  0.00     0.031 C
BRANCH  16  17
HETATM   17  C5  UNL     1      19.501  31.294   7.564  1.00  0.00     0.176 C
BRANCH  17  18
HETATM   18  O1  UNL     1      19.957  32.414   6.882  1.00  0.00    -0.351 OA
BRANCH  18  19
HETATM   19  C4  UNL     1      21.197  32.960   7.267  1.00  0.00     0.068 A
HETATM   20  C3  UNL     1      21.925  32.443   8.316  1.00  0.00     0.037 A
HETATM   21  C2  UNL     1      23.141  32.964   8.709  1.00  0.00     0.003 A
HETATM   22  C1  UNL     1      23.669  34.045   8.039  1.00  0.00     0.000 A
HETATM   23  C21 UNL     1      22.947  34.569   6.989  1.00  0.00     0.003 A
HETATM   24  C20 UNL     1      21.728  34.044   6.598  1.00  0.00     0.037 A
ENDBRANCH  18  19
ENDBRANCH  17  18
ENDBRANCH  16  17
ENDBRANCH  15  16
ENDBRANCH   1  15
TORSDOF 5
ENDMDL