MODEL 2
REMARK VINA RESULT: -10.521355676      4.201      6.375
REMARK  5 active torsions:
REMARK  status: ('A' for Active; 'I' for Inactive)
REMARK    1  A    between atoms: C6_6  and  C7_7
REMARK    2  A    between atoms: C7_7  and  C8_8
REMARK    3  A    between atoms: C8_8  and  C9_9
REMARK    4  A    between atoms: C9_9  and  O1_10
REMARK    5  A    between atoms: O1_10  and  C10_11
ROOT
HETATM    1  C8  UNL     1      26.143  28.897   8.229  1.00  0.00     0.031 C
ENDROOT
BRANCH   1   2
HETATM    2  C7  UNL     1      26.789  29.817   7.239  1.00  0.00     0.041 C
BRANCH   2   3
HETATM    3  C6  UNL     1      25.891  30.792   6.628  1.00  0.00    -0.057 A
HETATM    4  C5  UNL     1      25.226  31.668   7.464  1.00  0.00     0.019 A
HETATM    5  C4  UNL     1      24.353  32.632   7.009  1.00  0.00    -0.025 A
HETATM    6  C3  UNL     1      23.692  33.504   7.854  1.00  0.00     0.012 A
HETATM    7  C20 UNL     1      24.126  32.735   5.651  1.00  0.00    -0.026 A
HETATM    8  C2  UNL     1      22.818  34.469   7.400  1.00  0.00     0.001 A
HETATM    9  C1  UNL     1      22.604  34.556   6.027  1.00  0.00     0.001 A
HETATM   10  C21 UNL     1      23.253  33.696   5.172  1.00  0.00     0.012 A
HETATM   11  C19 UNL     1      24.792  31.859   4.813  1.00  0.00     0.013 A
HETATM   12  C18 UNL     1      25.663  30.898   5.268  1.00  0.00     0.008 A
ENDBRANCH   2   3
ENDBRANCH   1   2
BRANCH   1  13
HETATM   13  C9  UNL     1      25.023  28.169   7.513  1.00  0.00     0.176 C
BRANCH  13  14
HETATM   14  O1  UNL     1      23.871  28.105   8.341  1.00  0.00    -0.351 OA
BRANCH  14  15
HETATM   15  C10 UNL     1      22.624  28.498   7.900  1.00  0.00     0.069 A
HETATM   16  C11 UNL     1      21.526  27.810   8.359  1.00  0.00     0.039 A
HETATM   17  C12 UNL     1      20.270  28.203   7.918  1.00  0.00     0.033 A
HETATM   18  C13 UNL     1      20.090  29.256   7.039  1.00  0.00     0.042 A
HETATM   19  N1  UNL     1      19.013  29.836   6.462  1.00  0.00    -0.365 N
HETATM   20  C16 UNL     1      21.224  29.915   6.607  1.00  0.00    -0.005 A
HETATM   21  C14 UNL     1      19.403  30.853   5.666  1.00  0.00     0.089 A
ATOM     22  H1  UNL     1      18.045  29.547   6.607  1.00  0.00     0.165 HD
HETATM   23  C15 UNL     1      20.775  30.903   5.755  1.00  0.00     0.030 A
HETATM   24  C17 UNL     1      22.490  29.551   7.025  1.00  0.00     0.050 A
ENDBRANCH  14  15
ENDBRANCH  13  14
ENDBRANCH   1  13
TORSDOF 5
ENDMDL