MODEL 1
REMARK VINA RESULT: -9.808373689      0.000      0.000
REMARK  5 active torsions:
REMARK  status: ('A' for Active; 'I' for Inactive)
REMARK    1  A    between atoms: C2_2  and  C3_3
REMARK    2  A    between atoms: C3_3  and  C4_4
REMARK    3  A    between atoms: C4_4  and  C5_5
REMARK    4  A    between atoms: C5_5  and  C6_6
REMARK    5  A    between atoms: C6_6  and  C7_7
ROOT
HETATM    1  C7  UNL     1      21.487  31.796   5.273  1.00  0.00    -0.030 A
HETATM    2  C8  UNL     1      20.204  31.445   5.593  1.00  0.00     0.021 A
HETATM    3  C9  UNL     1      19.867  30.395   6.398  1.00  0.00    -0.024 A
HETATM    4  C10 UNL     1      18.547  30.089   6.684  1.00  0.00     0.012 A
HETATM    5  C11 UNL     1      18.201  29.036   7.492  1.00  0.00     0.001 A
HETATM    6  C12 UNL     1      19.187  28.264   8.031  1.00  0.00     0.001 A
HETATM    7  C13 UNL     1      20.533  28.571   7.742  1.00  0.00     0.013 A
HETATM    8  C14 UNL     1      20.893  29.622   6.936  1.00  0.00    -0.012 A
HETATM    9  C15 UNL     1      22.211  29.921   6.654  1.00  0.00     0.016 A
HETATM   10  C16 UNL     1      22.489  31.012   5.821  1.00  0.00     0.051 A
HETATM   11  N1  UNL     1      23.826  31.089   5.703  1.00  0.00    -0.354 N
ATOM     12  H1  UNL     1      24.327  31.788   5.155  1.00  0.00     0.166 HD
HETATM   13  C17 UNL     1      24.403  30.110   6.414  1.00  0.00     0.046 A
HETATM   14  C18 UNL     1      25.755  29.834   6.561  1.00  0.00     0.047 A
HETATM   15  C19 UNL     1      26.063  28.757   7.358  1.00  0.00     0.090 A
HETATM   16  N2  UNL     1      25.108  28.033   7.945  1.00  0.00    -0.374 N
ATOM     17  H2  UNL     1      25.391  27.243   8.526  1.00  0.00     0.164 HD
HETATM   18  C20 UNL     1      23.777  28.290   7.811  1.00  0.00     0.102 A
HETATM   19  C21 UNL     1      23.421  29.354   7.027  1.00  0.00     0.019 A
ENDROOT
BRANCH   1  20
HETATM   20  C6  UNL     1      21.791  32.960   4.393  1.00  0.00     0.041 C
BRANCH  20  21
HETATM   21  C5  UNL     1      21.748  34.189   5.242  1.00  0.00     0.005 C
BRANCH  21  22
HETATM   22  C4  UNL     1      22.945  34.440   6.068  1.00  0.00     0.000 C
BRANCH  22  23
HETATM   23  C3  UNL     1      22.683  34.695   7.520  1.00  0.00    -0.000 C
BRANCH  23  24
HETATM   24  C2  UNL     1      22.860  33.433   8.338  1.00  0.00    -0.005 C
HETATM   25  C1  UNL     1      24.296  33.134   8.653  1.00  0.00     0.005 C
ENDBRANCH  23  24
ENDBRANCH  22  23
ENDBRANCH  21  22
ENDBRANCH  20  21
ENDBRANCH   1  20
TORSDOF 5
ENDMDL