MODEL 5
REMARK VINA RESULT: -8.150970168      3.890      7.623
REMARK  6 active torsions:
REMARK  status: ('A' for Active; 'I' for Inactive)
REMARK    1  A    between atoms: C4_4  and  C5_5
REMARK    2  A    between atoms: C5_5  and  C6_6
REMARK    3  A    between atoms: C6_6  and  C7_7
REMARK    4  A    between atoms: C7_7  and  C8_8
REMARK    5  A    between atoms: C8_8  and  C9_9
REMARK    6  A    between atoms: C9_9  and  N1_10
ROOT
HETATM    1  N1  UNL     1      27.180  27.845   9.417  1.00  0.00    -0.292 N
HETATM    2  N2  UNL     1      28.194  28.495   9.912  1.00  0.00    -0.308 N
ATOM      3  H2  UNL     1      28.324  29.501   9.814  1.00  0.00     0.186 HD
HETATM    4  C10 UNL     1      29.053  27.694  10.569  1.00  0.00     0.122 A
HETATM    5  C11 UNL     1      28.551  26.438  10.487  1.00  0.00     0.020 A
HETATM    6  C12 UNL     1      28.689  25.082  10.809  1.00  0.00    -0.012 A
HETATM    7  C13 UNL     1      29.679  24.461  11.513  1.00  0.00     0.013 A
HETATM    8  C14 UNL     1      29.637  23.091  11.728  1.00  0.00     0.001 A
HETATM    9  C15 UNL     1      28.565  22.369  11.209  1.00  0.00     0.001 A
HETATM   10  C16 UNL     1      27.562  22.998  10.496  1.00  0.00     0.012 A
HETATM   11  C17 UNL     1      27.618  24.376  10.288  1.00  0.00    -0.023 A
HETATM   12  C18 UNL     1      26.789  25.263   9.634  1.00  0.00     0.044 A
HETATM   13  C19 UNL     1      27.312  26.533   9.726  1.00  0.00     0.064 A
ENDROOT
BRANCH   1  14
HETATM   14  C9  UNL     1      26.043  28.350   8.644  1.00  0.00     0.149 C
BRANCH  14  15
HETATM   15  C8  UNL     1      26.473  28.379   7.205  1.00  0.00     0.022 C
BRANCH  15  16
HETATM   16  C7  UNL     1      25.606  29.225   6.341  1.00  0.00     0.002 C
BRANCH  16  17
HETATM   17  C6  UNL     1      25.966  30.670   6.305  1.00  0.00     0.005 C
BRANCH  17  18
HETATM   18  C5  UNL     1      24.977  31.444   5.484  1.00  0.00     0.038 C
BRANCH  18  19
HETATM   19  C4  UNL     1      24.298  32.490   6.320  1.00  0.00    -0.058 A
HETATM   20  C3  UNL     1      23.564  33.517   5.761  1.00  0.00     0.007 A
HETATM   21  C2  UNL     1      22.942  34.477   6.529  1.00  0.00     0.001 A
HETATM   22  C1  UNL     1      23.031  34.448   7.898  1.00  0.00     0.000 A
HETATM   23  C21 UNL     1      23.761  33.430   8.477  1.00  0.00     0.001 A
HETATM   24  C20 UNL     1      24.384  32.466   7.695  1.00  0.00     0.007 A
ENDBRANCH  18  19
ENDBRANCH  17  18
ENDBRANCH  16  17
ENDBRANCH  15  16
ENDBRANCH  14  15
ENDBRANCH   1  14
TORSDOF 6
ENDMDL