MODEL 3
REMARK VINA RESULT: -10.718911725      0.766      2.107
REMARK  5 active torsions:
REMARK  status: ('A' for Active; 'I' for Inactive)
REMARK    1  A    between atoms: C5_5  and  C6_6
REMARK    2  A    between atoms: C6_6  and  C7_7
REMARK    3  A    between atoms: C7_7  and  C8_8
REMARK    4  A    between atoms: C8_8  and  N1_9
REMARK    5  A    between atoms: N1_9  and  C9_11
ROOT
HETATM    1  C8  UNL     1      20.785  31.835   3.874  1.00  0.00     0.120 C
ENDROOT
BRANCH   1   2
HETATM    2  C7  UNL     1      22.074  32.318   3.287  1.00  0.00     0.024 C
BRANCH   2   3
HETATM    3  C6  UNL     1      22.860  33.217   4.225  1.00  0.00     0.041 C
BRANCH   3   4
HETATM    4  C5  UNL     1      23.878  32.487   5.010  1.00  0.00    -0.047 A
HETATM    5  C4  UNL     1      24.103  32.707   6.370  1.00  0.00    -0.020 A
HETATM    6  C3  UNL     1      23.329  33.605   7.039  1.00  0.00     0.013 A
HETATM    7  C22 UNL     1      25.105  32.009   7.052  1.00  0.00    -0.025 A
HETATM    8  C2  UNL     1      23.559  33.806   8.398  1.00  0.00     0.001 A
HETATM    9  C1  UNL     1      24.552  33.117   9.079  1.00  0.00     0.001 A
HETATM   10  C23 UNL     1      25.320  32.215   8.386  1.00  0.00     0.012 A
HETATM   11  C21 UNL     1      25.887  31.090   6.402  1.00  0.00     0.012 A
HETATM   12  C20 UNL     1      25.663  30.877   5.075  1.00  0.00     0.001 A
HETATM   13  C19 UNL     1      24.680  31.559   4.388  1.00  0.00     0.008 A
ENDBRANCH   3   4
ENDBRANCH   2   3
ENDBRANCH   1   2
BRANCH   1  14
HETATM   14  N1  UNL     1      20.755  31.785   5.316  1.00  0.00    -0.389 N
ATOM     15  H1  UNL     1      21.215  32.544   5.818  1.00  0.00     0.159 HD
BRANCH  14  16
HETATM   16  C9  UNL     1      20.149  30.788   6.084  1.00  0.00     0.039 A
HETATM   17  C10 UNL     1      18.777  30.696   6.103  1.00  0.00     0.030 A
HETATM   18  C11 UNL     1      18.150  29.685   6.847  1.00  0.00     0.003 A
HETATM   19  C12 UNL     1      18.875  28.773   7.563  1.00  0.00     0.012 A
HETATM   20  C13 UNL     1      20.247  28.866   7.543  1.00  0.00    -0.024 A
HETATM   21  C14 UNL     1      20.951  27.942   8.271  1.00  0.00     0.012 A
HETATM   22  C18 UNL     1      20.866  29.866   6.809  1.00  0.00     0.001 A
HETATM   23  C15 UNL     1      22.325  27.983   8.293  1.00  0.00     0.001 A
HETATM   24  C16 UNL     1      22.985  28.949   7.586  1.00  0.00     0.001 A
HETATM   25  C17 UNL     1      22.243  29.877   6.854  1.00  0.00     0.014 A
ENDBRANCH  14  16
ENDBRANCH   1  14
TORSDOF 5
ENDMDL