MODEL 5
REMARK VINA RESULT: -9.058058134      3.496      3.785
REMARK  5 active torsions:
REMARK  status: ('A' for Active; 'I' for Inactive)
REMARK    1  A    between atoms: C10_11  and  C11_12
REMARK    2  A    between atoms: C11_12  and  C12_13
REMARK    3  A    between atoms: C12_13  and  C13_14
REMARK    4  A    between atoms: C13_14  and  C14_15
REMARK    5  A    between atoms: C14_15  and  C15_16
ROOT
HETATM    1  C1  UNL     1      18.115  29.184   7.316  1.00  0.00     0.001 A
HETATM    2  C2  UNL     1      19.077  28.425   7.940  1.00  0.00     0.001 A
HETATM    3  C3  UNL     1      20.418  28.611   7.764  1.00  0.00     0.013 A
HETATM    4  C4  UNL     1      20.825  29.623   6.909  1.00  0.00    -0.014 A
HETATM    5  C5  UNL     1      19.881  30.394   6.275  1.00  0.00    -0.025 A
HETATM    6  C6  UNL     1      18.522  30.183   6.471  1.00  0.00     0.012 A
HETATM    7  C7  UNL     1      20.171  31.428   5.402  1.00  0.00     0.013 A
HETATM    8  C8  UNL     1      21.508  31.664   5.185  1.00  0.00     0.021 A
HETATM    9  C9  UNL     1      22.478  30.883   5.828  1.00  0.00     0.016 A
HETATM   10  S1  UNL     1      24.201  30.893   5.796  1.00  0.00    -0.094 SA
HETATM   11  C10 UNL     1      24.494  29.610   6.870  1.00  0.00    -0.016 A
HETATM   12  C18 UNL     1      23.241  29.204   7.228  1.00  0.00     0.028 A
HETATM   13  C19 UNL     1      22.198  29.865   6.688  1.00  0.00    -0.007 A
ENDROOT
BRANCH  11  14
HETATM   14  C11 UNL     1      25.818  29.076   7.301  1.00  0.00     0.046 C
BRANCH  14  15
HETATM   15  C12 UNL     1      25.550  28.012   8.334  1.00  0.00     0.005 C
BRANCH  15  16
HETATM   16  C13 UNL     1      26.792  27.629   9.104  1.00  0.00     0.006 C
BRANCH  16  17
HETATM   17  C14 UNL     1      26.938  26.128   8.983  1.00  0.00     0.058 C
BRANCH  17  18
HETATM   18  C15 UNL     1      27.547  25.546  10.210  1.00  0.00     0.025 A
HETATM   19  C16 UNL     1      28.211  26.203  11.223  1.00  0.00     0.113 A
HETATM   20  N1  UNL     1      28.612  25.307  12.162  1.00  0.00    -0.360 N
HETATM   21  C17 UNL     1      28.188  24.109  11.710  1.00  0.00     0.180 A
ATOM     22  H1  UNL     1      29.124  25.499  13.023  1.00  0.00     0.166 HD
HETATM   23  N2  UNL     1      27.548  24.244  10.538  1.00  0.00    -0.355 N
ATOM     24  H2  UNL     1      27.134  23.489   9.991  1.00  0.00     0.166 HD
ENDBRANCH  17  18
ENDBRANCH  16  17
ENDBRANCH  15  16
ENDBRANCH  14  15
ENDBRANCH  11  14
TORSDOF 5
ENDMDL