MODEL 2
REMARK VINA RESULT: -4.969712753      1.787      4.371
REMARK  16 active torsions:
REMARK  status: ('A' for Active; 'I' for Inactive)
REMARK    1  A    between atoms: C1_4  and  N2_5
REMARK    2  A    between atoms: C1_4  and  C7_30
REMARK    3  A    between atoms: N2_5  and  O1_7
REMARK    4  A    between atoms: O1_7  and  C2_8
REMARK    5  A    between atoms: C3_10  and  N3_11
REMARK    6  A    between atoms: C4_16  and  N6_17
REMARK    7  A    between atoms: N7_20  and  N8_21
REMARK    8  A    between atoms: C5_24  and  O3_25
REMARK    9  A    between atoms: C6_27  and  O4_28
REMARK   10  A    between atoms: C8_35  and  N11_36
REMARK   11  A    between atoms: N11_36  and  C9_38
REMARK   12  A    between atoms: C9_38  and  C10_39
REMARK   13  A    between atoms: C10_39  and  C11_40
REMARK   14  A    between atoms: C11_40  and  O5_41
REMARK   15  A    between atoms: N12_43  and  N13_45
REMARK   16  A    between atoms: N13_45  and  N14_47
ROOT
HETATM    1  N1  UNL     1      21.700  -5.950  11.636  1.00  0.00    -0.381 N
ATOM      2  H11 UNL     1      21.857  -6.564  12.436  1.00  0.00     0.157 HD
ATOM      3  H12 UNL     1      21.705  -6.340  10.693  1.00  0.00     0.157 HD
HETATM    4  C1  UNL     1      21.500  -4.696  11.854  1.00  0.00     0.166 C
ENDROOT
BRANCH   4   5
HETATM    5  N2  UNL     1      21.283  -3.842  10.741  1.00  0.00    -0.245 N
ATOM      6  H2  UNL     1      21.037  -4.266   9.847  1.00  0.00     0.196 HD
BRANCH   5   7
HETATM    7  O1  UNL     1      21.384  -2.516  10.804  1.00  0.00    -0.243 OA
BRANCH   7   8
HETATM    8  C2  UNL     1      22.614  -2.016  10.480  1.00  0.00     0.322 C
HETATM    9  O2  UNL     1      22.576  -1.682   9.106  1.00  0.00    -0.326 OA
HETATM   10  C3  UNL     1      23.743  -0.906   9.019  1.00  0.00     0.301 C
HETATM   11  C5  UNL     1      23.496   0.125  10.073  1.00  0.00     0.204 C
HETATM   12  C6  UNL     1      22.999  -0.774  11.220  1.00  0.00     0.208 C
BRANCH  10  13
HETATM   13  N3  UNL     1      24.012  -0.421   7.724  1.00  0.00    -0.150 N
HETATM   14  N4  UNL     1      24.380   0.851   7.489  1.00  0.00    -0.207 N
HETATM   15  N5  UNL     1      24.565   1.032   6.212  1.00  0.00    -0.113 N
ATOM     16  H4  UNL     1      24.498   1.568   8.204  1.00  0.00     0.211 HD
HETATM   17  C4  UNL     1      24.320  -0.126   5.583  1.00  0.00     0.729 A
ATOM     18  H5  UNL     1      24.848   1.905   5.766  1.00  0.00     0.207 HD
HETATM   19  N7  UNL     1      23.982  -0.999   6.535  1.00  0.00    -0.005 N
BRANCH  17  20
HETATM   20  N6  UNL     1      24.387  -0.368   4.337  1.00  0.00    -0.230 N
ATOM     21  H62 UNL     1      25.214  -0.263   3.750  1.00  0.00     0.174 HD
ATOM     22  H61 UNL     1      23.645  -0.705   3.723  1.00  0.00     0.174 HD
ENDBRANCH  17  20
BRANCH  19  23
HETATM   23  N8  UNL     1      23.645  -2.325   6.348  1.00  0.00    -0.308 N
ATOM     24  H82 UNL     1      23.767  -3.081   7.021  1.00  0.00     0.179 HD
ATOM     25  H81 UNL     1      23.228  -2.679   5.486  1.00  0.00     0.179 HD
ENDBRANCH  19  23
ENDBRANCH  10  13
BRANCH  11  26
HETATM   26  O3  UNL     1      24.669   0.711  10.523  1.00  0.00    -0.388 OA
ATOM     27  H3  UNL     1      25.357   0.692   9.869  1.00  0.00     0.210 HD
ENDBRANCH  11  26
BRANCH  12  28
HETATM   28  O4  UNL     1      24.031  -1.006  12.141  1.00  0.00    -0.388 OA
ATOM     29  H4  UNL     1      24.122  -0.294  12.763  1.00  0.00     0.210 HD
ENDBRANCH  12  28
ENDBRANCH   7   8
ENDBRANCH   5   7
ENDBRANCH   4   5
BRANCH   4  30
HETATM   30  C7  UNL     1      21.493  -4.138  13.202  1.00  0.00     0.181 A
HETATM   31  N9  UNL     1      20.737  -4.563  14.226  1.00  0.00    -0.268 N
HETATM   32  N10 UNL     1      20.991  -3.823  15.309  1.00  0.00    -0.130 N
ATOM     33  H9  UNL     1      20.070  -5.334  14.184  1.00  0.00     0.189 HD
HETATM   34  C8  UNL     1      21.929  -2.898  14.991  1.00  0.00     0.700 A
ATOM     35  H10 UNL     1      20.552  -3.935  16.223  1.00  0.00     0.205 HD
HETATM   36  N15 UNL     1      22.215  -3.117  13.696  1.00  0.00    -0.170 N
ATOM     37  H15 UNL     1      22.893  -2.578  13.157  1.00  0.00     0.186 HD
BRANCH  34  38
HETATM   38  N11 UNL     1      22.453  -1.987  15.754  1.00  0.00    -0.178 N
ATOM     39  H11 UNL     1      22.957  -2.271  16.594  1.00  0.00     0.185 HD
BRANCH  38  40
HETATM   40  C9  UNL     1      22.343  -0.622  15.453  1.00  0.00     0.115 C
HETATM   41  N12 UNL     1      23.264  -0.101  14.686  1.00  0.00    -0.274 N
ATOM     42  H12 UNL     1      24.015  -0.700  14.342  1.00  0.00     0.189 HD
BRANCH  40  43
HETATM   43  C10 UNL     1      21.246   0.217  15.964  1.00  0.00     0.104 C
BRANCH  43  44
HETATM   44  C11 UNL     1      21.423   0.565  17.429  1.00  0.00     0.171 C
BRANCH  44  45
HETATM   45  O5  UNL     1      22.472  -0.166  17.944  1.00  0.00    -0.400 OA
ATOM     46  H5  UNL     1      22.344  -0.279  18.878  1.00  0.00     0.209 HD
ENDBRANCH  44  45
ENDBRANCH  43  44
ENDBRANCH  40  43
BRANCH  41  47
HETATM   47  N13 UNL     1      23.255   1.234  14.325  1.00  0.00    -0.248 N
ATOM     48  H13 UNL     1      22.550   1.837  14.751  1.00  0.00     0.207 HD
BRANCH  47  49
HETATM   49  N14 UNL     1      24.147   1.814  13.417  1.00  0.00    -0.331 N
ATOM     50 2H14 UNL     1      25.002   1.294  13.220  1.00  0.00     0.178 HD
ATOM     51 1H14 UNL     1      23.995   2.708  12.950  1.00  0.00     0.178 HD
ENDBRANCH  47  49
ENDBRANCH  41  47
ENDBRANCH  38  40
ENDBRANCH  34  38
ENDBRANCH   4  30
TORSDOF 16
ENDMDL