MODEL 4
REMARK VINA RESULT: -6.934020307      1.707      2.242
REMARK  13 active torsions:
REMARK  status: ('A' for Active; 'I' for Inactive)
REMARK    1  A    between atoms: N1_1  and  N2_4
REMARK    2  A    between atoms: N2_4  and  O1_5
REMARK    3  A    between atoms: O1_5  and  C1_6
REMARK    4  A    between atoms: C1_6  and  O2_7
REMARK    5  A    between atoms: C1_6  and  C2_9
REMARK    6  A    between atoms: N3_10  and  O3_11
REMARK    7  A    between atoms: C3_13  and  N4_14
REMARK       I    between atoms: N4_14  and  C4_16
REMARK    8  A    between atoms: C5_19  and  O5_20
REMARK    9  A    between atoms: C7_23  and  O6_24
REMARK   10  A    between atoms: C7_23  and  C8_26
REMARK       I    between atoms: C8_26  and  N6_28
REMARK   11  A    between atoms: N6_28  and  C9_30
REMARK   12  A    between atoms: C12_35  and  O10_36
REMARK   13  A    between atoms: C13_38  and  O11_39
ROOT
HETATM    1  C2  UNL     1      22.596  -0.670  13.514  1.00  0.00     0.189 C
HETATM    2  N3  UNL     1      23.478  -0.093  12.553  1.00  0.00    -0.161 NA
HETATM    3  C3  UNL     1      23.513  -0.731  11.267  1.00  0.00     0.216 C
HETATM    4  C5  UNL     1      22.906  -2.089  11.204  1.00  0.00     0.160 C
HETATM    5  C6  UNL     1      23.281  -2.828  12.465  1.00  0.00     0.085 C
HETATM    6  C7  UNL     1      22.840  -2.126  13.706  1.00  0.00     0.163 C
ENDROOT
BRANCH   6   7
HETATM    7  O6  UNL     1      23.893  -2.249  14.643  1.00  0.00    -0.378 OA
ATOM      8  H6  UNL     1      24.169  -3.158  14.633  1.00  0.00     0.211 HD
ENDBRANCH   6   7
BRANCH   6   9
HETATM    9  C8  UNL     1      21.697  -2.856  14.272  1.00  0.00     0.260 C
HETATM   10  O7  UNL     1      21.448  -2.694  15.494  1.00  0.00    -0.270 OA
HETATM   11  N6  UNL     1      20.854  -3.730  13.549  1.00  0.00    -0.302 N
ATOM     12  H6  UNL     1      21.035  -3.879  12.556  1.00  0.00     0.171 HD
BRANCH  11  13
HETATM   13  C9  UNL     1      19.764  -4.408  14.156  1.00  0.00     0.190 A
HETATM   14  O8  UNL     1      19.984  -5.490  14.905  1.00  0.00    -0.255 OA
HETATM   15  C10 UNL     1      18.977  -6.095  15.450  1.00  0.00     0.292 A
HETATM   16  O9  UNL     1      19.114  -7.136  16.177  1.00  0.00    -0.260 OA
HETATM   17  C11 UNL     1      17.678  -5.665  15.289  1.00  0.00     0.122 A
HETATM   18  C12 UNL     1      17.426  -4.547  14.519  1.00  0.00     0.109 A
HETATM   19  C13 UNL     1      18.488  -3.924  13.955  1.00  0.00     0.151 A
BRANCH  18  20
HETATM   20  O10 UNL     1      16.125  -4.100  14.348  1.00  0.00    -0.358 OA
ATOM     21  H10 UNL     1      15.740  -3.501  14.978  1.00  0.00     0.217 HD
ENDBRANCH  18  20
BRANCH  19  22
HETATM   22  O11 UNL     1      18.303  -2.778  13.158  1.00  0.00    -0.355 OA
ATOM     23  H11 UNL     1      17.469  -2.325  13.181  1.00  0.00     0.218 HD
ENDBRANCH  19  22
ENDBRANCH  11  13
ENDBRANCH   6   9
BRANCH   1  24
HETATM   24  C1  UNL     1      22.805   0.094  14.810  1.00  0.00     0.306 C
BRANCH  24  25
HETATM   25  O1  UNL     1      21.885   1.088  15.028  1.00  0.00    -0.233 OA
BRANCH  25  26
HETATM   26  N2  UNL     1      21.208   0.890  16.176  1.00  0.00     0.016 NA
BRANCH  26  27
HETATM   27  N1  UNL     1      21.893  -0.048  16.939  1.00  0.00    -0.323 N
ATOM     28  H12 UNL     1      22.451  -0.813  16.560  1.00  0.00     0.174 HD
ATOM     29  H11 UNL     1      21.742   0.162  17.926  1.00  0.00     0.174 HD
ENDBRANCH  26  27
ENDBRANCH  25  26
ENDBRANCH  24  25
BRANCH  24  30
HETATM   30  O2  UNL     1      24.096   0.605  14.901  1.00  0.00    -0.368 OA
ATOM     31  H2  UNL     1      24.515   0.299  15.696  1.00  0.00     0.212 HD
ENDBRANCH  24  30
ENDBRANCH   1  24
BRANCH   2  32
HETATM   32  O3  UNL     1      23.269   1.239  12.387  1.00  0.00    -0.310 OA
ATOM     33  H3  UNL     1      23.250   1.711  13.211  1.00  0.00     0.237 HD
ENDBRANCH   2  32
BRANCH   4  34
HETATM   34  O5  UNL     1      23.506  -2.767  10.125  1.00  0.00    -0.392 OA
ATOM     35  H5  UNL     1      23.223  -3.673  10.168  1.00  0.00     0.210 HD
ENDBRANCH   4  34
BRANCH   3  36
HETATM   36  N4  UNL     1      22.892   0.135  10.291  1.00  0.00    -0.324 N
HETATM   37  C4  UNL     1      23.449   0.328   8.998  1.00  0.00     0.330 C
HETATM   38  N5  UNL     1      22.820   1.184   8.055  1.00  0.00    -0.040 NA
HETATM   39  O4  UNL     1      24.511  -0.270   8.692  1.00  0.00    -0.251 OA
ATOM     40  H4  UNL     1      22.030   0.620  10.537  1.00  0.00     0.165 HD
ENDBRANCH   3  36
TORSDOF 13
ENDMDL