MODEL 3
REMARK VINA RESULT: -6.661482897      1.796      2.207
REMARK  15 active torsions:
REMARK  status: ('A' for Active; 'I' for Inactive)
REMARK    1  A    between atoms: N1_1  and  N2_4
REMARK    2  A    between atoms: N2_4  and  C1_5
REMARK    3  A    between atoms: C2_9  and  S1_10
REMARK    4  A    between atoms: S1_10  and  S2_11
REMARK    5  A    between atoms: S2_11  and  C3_12
REMARK    6  A    between atoms: C4_13  and  C5_14
REMARK    7  A    between atoms: C5_14  and  O1_15
REMARK    8  A    between atoms: C5_14  and  O2_17
REMARK    9  A    between atoms: C6_20  and  O4_21
REMARK   10  A    between atoms: C6_20  and  C7_23
REMARK   11  A    between atoms: C7_23  and  O5_24
REMARK   12  A    between atoms: C8_26  and  O6_27
REMARK   13  A    between atoms: C9_30  and  C10_31
REMARK       I    between atoms: C10_31  and  N4_33
REMARK   14  A    between atoms: N4_33  and  N5_34
REMARK   15  A    between atoms: N4_33  and  O9_37
ROOT
HETATM    1  C1  UNL     1      24.111   1.436  12.563  1.00  0.00     0.502 C
HETATM    2  N3  UNL     1      24.067   0.153  11.828  1.00  0.00     0.006 N
ATOM      3  H31 UNL     1      24.832  -0.476  12.075  1.00  0.00     0.285 HD
ATOM      4  H32 UNL     1      24.293   0.252  10.838  1.00  0.00     0.285 HD
HETATM    5  C2  UNL     1      22.775  -0.421  12.051  1.00  0.00     0.403 C
HETATM    6  O7  UNL     1      22.554  -0.650  13.400  1.00  0.00    -0.310 OA
HETATM    7  C9  UNL     1      22.555   0.680  14.085  1.00  0.00     0.419 C
HETATM    8  N6  UNL     1      23.923   1.045  13.941  1.00  0.00     0.005 N
ATOM      9  H61 UNL     1      24.219   1.761  14.605  1.00  0.00     0.285 HD
ATOM     10  H62 UNL     1      24.566   0.314  14.241  1.00  0.00     0.285 HD
ENDROOT
BRANCH   5  11
HETATM   11  S1  UNL     1      22.318  -1.799  11.033  1.00  0.00    -0.032 SA
BRANCH  11  12
HETATM   12  S2  UNL     1      23.715  -2.374   9.656  1.00  0.00    -0.052 SA
BRANCH  12  13
HETATM   13  C3  UNL     1      24.284  -1.080   8.567  1.00  0.00     0.058 C
HETATM   14  C4  UNL     1      25.490  -0.561   8.650  1.00  0.00     0.121 C
HETATM   15  O3  UNL     1      25.726   0.399   7.713  1.00  0.00    -0.307 OA
HETATM   16  C6  UNL     1      24.499   0.724   7.087  1.00  0.00     0.220 C
HETATM   17  C8  UNL     1      23.526  -0.270   7.576  1.00  0.00     0.226 C
BRANCH  14  18
HETATM   18  C5  UNL     1      26.546  -0.966   9.650  1.00  0.00     0.313 C
BRANCH  18  19
HETATM   19  O1  UNL     1      27.766  -1.178   8.967  1.00  0.00    -0.365 OA
ATOM     20  H1  UNL     1      28.473  -1.204   9.600  1.00  0.00     0.213 HD
ENDBRANCH  18  19
BRANCH  18  21
HETATM   21  O2  UNL     1      26.619   0.025  10.597  1.00  0.00    -0.365 OA
ATOM     22  H2  UNL     1      26.095   0.754  10.287  1.00  0.00     0.213 HD
ENDBRANCH  18  21
ENDBRANCH  14  18
BRANCH  16  23
HETATM   23  O4  UNL     1      24.253   2.047   7.585  1.00  0.00    -0.361 OA
ATOM     24  H4  UNL     1      23.413   2.252   7.193  1.00  0.00     0.213 HD
ENDBRANCH  16  23
BRANCH  16  25
HETATM   25  C7  UNL     1      24.593   0.869   5.595  1.00  0.00     0.236 C
BRANCH  25  26
HETATM   26  O5  UNL     1      24.888   2.198   5.217  1.00  0.00    -0.395 OA
ATOM     27  H5  UNL     1      24.386   2.467   4.456  1.00  0.00     0.209 HD
ENDBRANCH  25  26
ENDBRANCH  16  25
BRANCH  17  28
HETATM   28  O6  UNL     1      22.444   0.367   8.231  1.00  0.00    -0.385 OA
ATOM     29  H6  UNL     1      21.736   0.490   7.610  1.00  0.00     0.210 HD
ENDBRANCH  17  28
ENDBRANCH  12  13
ENDBRANCH  11  12
ENDBRANCH   5  11
BRANCH   1  30
HETATM   30  N2  UNL     1      25.377   2.073  12.343  1.00  0.00    -0.087 NA
BRANCH  30  31
HETATM   31  N1  UNL     1      25.598   3.050  13.306  1.00  0.00    -0.345 N
ATOM     32  H12 UNL     1      25.044   3.150  14.157  1.00  0.00     0.172 HD
ATOM     33  H11 UNL     1      26.385   3.641  13.037  1.00  0.00     0.172 HD
ENDBRANCH  30  31
ENDBRANCH   1  30
BRANCH   7  34
HETATM   34  C10 UNL     1      22.178   0.279  15.468  1.00  0.00     0.298 C
HETATM   35  O8  UNL     1      21.133   0.699  15.939  1.00  0.00    -0.271 OA
HETATM   36  N4  UNL     1      22.930  -0.593  16.303  1.00  0.00    -0.037 NA
BRANCH  36  37
HETATM   37  N5  UNL     1      22.198  -1.796  16.527  1.00  0.00    -0.333 NA
ATOM     38  H52 UNL     1      22.022  -1.864  17.529  1.00  0.00     0.173 HD
ATOM     39  H51 UNL     1      22.735  -2.594  16.187  1.00  0.00     0.173 HD
ENDBRANCH  36  37
BRANCH  36  40
HETATM   40  O9  UNL     1      24.112  -0.936  15.728  1.00  0.00    -0.287 OA
ATOM     41  H9  UNL     1      24.689  -1.365  16.348  1.00  0.00     0.239 HD
ENDBRANCH  36  40
ENDBRANCH   7  34
TORSDOF 15
ENDMDL