MODEL 2
REMARK VINA RESULT: -8.058254454      2.329      5.034
REMARK  12 active torsions:
REMARK  status: ('A' for Active; 'I' for Inactive)
REMARK    1  A    between atoms: C4_5  and  S1_6
REMARK    2  A    between atoms: S1_6  and  N2_9
REMARK    3  A    between atoms: N2_9  and  C5_11
REMARK    4  A    between atoms: C6_17  and  C7_18
REMARK    5  A    between atoms: C7_18  and  O4_19
REMARK    6  A    between atoms: C7_18  and  O5_21
REMARK    7  A    between atoms: O5_21  and  N5_22
REMARK    8  A    between atoms: C8_25  and  O6_26
REMARK    9  A    between atoms: C8_25  and  O7_28
REMARK   10  A    between atoms: C9_30  and  O8_31
REMARK   11  A    between atoms: C10_33  and  O9_34
REMARK   12  A    between atoms: C11_36  and  O10_37
ROOT
HETATM    1  C5  UNL     1      24.510  -2.390  10.532  1.00  0.00     0.167 A
HETATM    2  N3  UNL     1      25.042  -3.320  11.321  1.00  0.00    -0.223 N
ATOM      3  H3  UNL     1      25.551  -3.153  12.188  1.00  0.00     0.198 HD
HETATM    4  O3  UNL     1      24.799  -4.473  10.790  1.00  0.00    -0.155 OA
HETATM    5  N4  UNL     1      24.130  -4.357   9.688  1.00  0.00    -0.237 N
ATOM      6  H4  UNL     1      23.818  -5.121   9.088  1.00  0.00     0.197 HD
HETATM    7  C6  UNL     1      23.920  -3.044   9.479  1.00  0.00     0.137 A
ENDROOT
BRANCH   1   8
HETATM    8  N2  UNL     1      24.520  -1.157  10.685  1.00  0.00    -0.262 N
ATOM      9  H2  UNL     1      25.150  -0.603  10.104  1.00  0.00     0.180 HD
BRANCH   8  10
HETATM   10  S1  UNL     1      23.368  -0.207  12.005  1.00  0.00     0.267 S
HETATM   11  O1  UNL     1      22.483   0.053  11.444  1.00  0.00    -0.200 OA
HETATM   12  O2  UNL     1      24.188   1.212  12.749  1.00  0.00    -0.200 OA
BRANCH  10  13
HETATM   13  C4  UNL     1      22.790  -1.585  13.432  1.00  0.00     0.115 A
HETATM   14  C3  UNL     1      22.019  -2.633  13.135  1.00  0.00     0.030 A
HETATM   15  C2  UNL     1      21.589  -3.510  14.143  1.00  0.00     0.031 A
HETATM   16  C1  UNL     1      21.975  -3.269  15.422  1.00  0.00     0.082 A
HETATM   17  N1  UNL     1      21.558  -4.135  16.457  1.00  0.00    -0.099 NA
HETATM   18  C11 UNL     1      22.770  -2.180  15.688  1.00  0.00     0.124 A
HETATM   19  C10 UNL     1      23.198  -1.302  14.669  1.00  0.00     0.124 A
BRANCH  18  20
HETATM   20  O10 UNL     1      23.148  -1.961  17.005  1.00  0.00    -0.356 OA
ATOM     21  H10 UNL     1      22.679  -1.297  17.497  1.00  0.00     0.218 HD
ENDBRANCH  18  20
BRANCH  19  22
HETATM   22  O9  UNL     1      23.979  -0.261  15.067  1.00  0.00    -0.356 OA
ATOM     23  H9  UNL     1      24.324  -0.096  15.936  1.00  0.00     0.218 HD
ENDBRANCH  19  22
ENDBRANCH  10  13
ENDBRANCH   8  10
ENDBRANCH   1   8
BRANCH   7  24
HETATM   24  C7  UNL     1      23.180  -2.441   8.310  1.00  0.00     0.338 C
BRANCH  24  25
HETATM   25  O4  UNL     1      22.045  -3.262   8.147  1.00  0.00    -0.364 OA
ATOM     26  H4  UNL     1      21.685  -3.008   7.305  1.00  0.00     0.213 HD
ENDBRANCH  24  25
BRANCH  24  27
HETATM   27  O5  UNL     1      22.796  -1.137   8.542  1.00  0.00    -0.244 OA
BRANCH  27  28
HETATM   28  N5  UNL     1      22.887  -0.334   7.472  1.00  0.00    -0.052 NA
HETATM   29  N6  UNL     1      23.570  -0.996   6.442  1.00  0.00    -0.023 NA
HETATM   30  N7  UNL     1      24.126   0.012   5.646  1.00  0.00    -0.058 NA
HETATM   31  C8  UNL     1      24.591   0.976   6.597  1.00  0.00     0.299 C
HETATM   32  C9  UNL     1      23.572   0.895   7.708  1.00  0.00     0.321 C
BRANCH  31  33
HETATM   33  O6  UNL     1      24.680   2.241   6.049  1.00  0.00    -0.348 OA
ATOM     34  H6  UNL     1      24.920   2.894   6.697  1.00  0.00     0.214 HD
ENDBRANCH  31  33
BRANCH  31  35
HETATM   35  O7  UNL     1      25.852   0.629   7.091  1.00  0.00    -0.348 OA
ATOM     36  H7  UNL     1      26.469   0.483   6.383  1.00  0.00     0.214 HD
ENDBRANCH  31  35
BRANCH  32  37
HETATM   37  O8  UNL     1      24.202   0.999   8.929  1.00  0.00    -0.371 OA
ATOM     38  H8  UNL     1      25.117   0.743   8.940  1.00  0.00     0.212 HD
ENDBRANCH  32  37
ENDBRANCH  27  28
ENDBRANCH  24  27
ENDBRANCH   7  24
TORSDOF 12
ENDMDL