MODEL 5
REMARK VINA RESULT: -5.329541974      2.892      5.551
REMARK  13 active torsions:
REMARK  status: ('A' for Active; 'I' for Inactive)
REMARK    1  A    between atoms: S1_2  and  C2_3
REMARK    2  A    between atoms: C2_3  and  C3_4
REMARK    3  A    between atoms: C4_8  and  C5_9
REMARK    4  A    between atoms: C5_9  and  O1_10
REMARK    5  A    between atoms: C6_12  and  N2_13
REMARK    6  A    between atoms: N2_13  and  C7_15
REMARK    7  A    between atoms: C8_18  and  N4_19
REMARK    8  A    between atoms: N7_25  and  N8_26
REMARK    9  A    between atoms: N9_28  and  N10_30
REMARK   10  A    between atoms: C9_31  and  O2_32
REMARK   11  A    between atoms: C10_34  and  O3_35
REMARK   12  A    between atoms: C11_38  and  N11_39
REMARK   13  A    between atoms: C12_42  and  O5_43
ROOT
HETATM    1  C7  UNL     1      24.331  -1.976  10.936  1.00  0.00     0.713 C
HETATM    2  N3  UNL     1      25.001  -2.131   9.830  1.00  0.00    -0.179 N
ATOM      3  H3  UNL     1      25.066  -3.038   9.368  1.00  0.00     0.181 HD
HETATM    4  C8  UNL     1      25.647  -0.958   9.289  1.00  0.00     0.409 C
HETATM    5  N5  UNL     1      26.243  -0.272  10.435  1.00  0.00    -0.069 NA
HETATM    6  N6  UNL     1      25.202   0.264  11.177  1.00  0.00     0.013 NA
HETATM    7  N7  UNL     1      24.261  -0.699  11.551  1.00  0.00     0.007 N
ENDROOT
BRANCH   1   8
HETATM    8  N2  UNL     1      23.660  -3.056  11.554  1.00  0.00    -0.214 N
ATOM      9  H2  UNL     1      23.697  -3.165  12.568  1.00  0.00     0.178 HD
BRANCH   8  10
HETATM   10  C6  UNL     1      22.937  -3.987  10.772  1.00  0.00     0.163 C
HETATM   11  C4  UNL     1      21.509  -3.681  10.492  1.00  0.00     0.235 C
HETATM   12  N1  UNL     1      20.802  -4.970  10.463  1.00  0.00    -0.059 N
HETATM   13  C3  UNL     1      21.855  -5.988  10.441  1.00  0.00     0.226 C
ATOM     14  H12 UNL     1      20.132  -5.056   9.699  1.00  0.00     0.278 HD
ATOM     15  H11 UNL     1      20.132  -5.089  11.222  1.00  0.00     0.278 HD
HETATM   16  C12 UNL     1      22.831  -5.364  11.419  1.00  0.00     0.174 C
BRANCH  11  17
HETATM   17  C5  UNL     1      20.814  -2.851  11.530  1.00  0.00     0.199 C
BRANCH  17  18
HETATM   18  O1  UNL     1      20.912  -1.505  11.101  1.00  0.00    -0.399 OA
ATOM     19  H1  UNL     1      21.287  -1.527  10.228  1.00  0.00     0.209 HD
ENDBRANCH  17  18
ENDBRANCH  11  17
BRANCH  13  20
HETATM   20  C2  UNL     1      21.341  -7.326  10.824  1.00  0.00     0.109 C
BRANCH  20  21
HETATM   21  S1  UNL     1      19.592  -7.351  11.170  1.00  0.00    -0.171 SA
HETATM   22  C1  UNL     1      19.194  -7.160  12.903  1.00  0.00     0.089 C
ENDBRANCH  20  21
ENDBRANCH  13  20
BRANCH  16  23
HETATM   23  O5  UNL     1      22.249  -5.270  12.682  1.00  0.00    -0.391 OA
ATOM     24  H5  UNL     1      22.369  -4.395  13.033  1.00  0.00     0.210 HD
ENDBRANCH  16  23
ENDBRANCH   8  10
ENDBRANCH   1   8
BRANCH   7  25
HETATM   25  N8  UNL     1      23.264  -0.409  12.518  1.00  0.00    -0.193 N
HETATM   26  N9  UNL     1      23.539  -0.707  13.695  1.00  0.00    -0.214 N
ATOM     27  H9  UNL     1      24.452  -1.131  13.857  1.00  0.00     0.210 HD
ATOM     28  H8  UNL     1      22.373   0.018  12.265  1.00  0.00     0.212 HD
BRANCH  26  29
HETATM   29  N10 UNL     1      22.728  -0.522  14.816  1.00  0.00    -0.176 N
HETATM   30  C9  UNL     1      22.137   0.630  15.232  1.00  0.00     0.226 A
HETATM   31  C10 UNL     1      21.417   0.393  16.385  1.00  0.00     0.240 A
HETATM   32  O4  UNL     1      21.579  -0.886  16.646  1.00  0.00    -0.251 OA
HETATM   33  C11 UNL     1      22.351  -1.440  15.728  1.00  0.00     0.249 A
BRANCH  30  34
HETATM   34  O2  UNL     1      22.283   1.833  14.550  1.00  0.00    -0.341 OA
ATOM     35  H2  UNL     1      22.954   2.468  14.772  1.00  0.00     0.219 HD
ENDBRANCH  30  34
BRANCH  31  36
HETATM   36  O3  UNL     1      20.668   1.335  17.116  1.00  0.00    -0.337 OA
ATOM     37  H3  UNL     1      19.851   1.177  17.573  1.00  0.00     0.220 HD
ENDBRANCH  31  36
BRANCH  33  38
HETATM   38  N11 UNL     1      22.665  -2.687  15.755  1.00  0.00    -0.363 N
ATOM     39 2H11 UNL     1      23.538  -3.038  15.361  1.00  0.00     0.159 HD
ATOM     40 1H11 UNL     1      22.119  -3.454  16.149  1.00  0.00     0.159 HD
ENDBRANCH  33  38
ENDBRANCH  26  29
ENDBRANCH   7  25
BRANCH   4  41
HETATM   41  N4  UNL     1      26.658  -1.298   8.307  1.00  0.00    -0.042 N
ATOM     42  H43 UNL     1      26.673  -2.302   8.124  1.00  0.00     0.278 HD
ATOM     43  H42 UNL     1      26.397  -0.969   7.377  1.00  0.00     0.278 HD
ATOM     44  H41 UNL     1      27.581  -0.957   8.574  1.00  0.00     0.278 HD
ENDBRANCH   4  41
TORSDOF 13
ENDMDL