MODEL 4
REMARK VINA RESULT: -5.742319962      4.329      7.711
REMARK  11 active torsions:
REMARK  status: ('A' for Active; 'I' for Inactive)
REMARK    1  A    between atoms: N1_1  and  C1_5
REMARK    2  A    between atoms: C1_5  and  C2_6
REMARK    3  A    between atoms: C3_8  and  C4_9
REMARK    4  A    between atoms: C5_15  and  N5_16
REMARK    5  A    between atoms: C6_23  and  C7_24
REMARK       I    between atoms: C7_24  and  N7_26
REMARK    6  A    between atoms: N7_26  and  C8_28
REMARK    7  A    between atoms: C9_29  and  O3_30
REMARK    8  A    between atoms: C11_36  and  C12_37
REMARK    9  A    between atoms: C12_37  and  N9_38
REMARK   10  A    between atoms: C12_37  and  O4_42
REMARK   11  A    between atoms: C13_45  and  O6_46
ROOT
HETATM    1  C7  UNL     1      24.053  -3.145  11.094  1.00  0.00     0.269 C
HETATM    2  O2  UNL     1      24.984  -3.896  11.008  1.00  0.00    -0.266 OA
HETATM    3  N7  UNL     1      23.684  -2.250  10.215  1.00  0.00    -0.344 N
ATOM      4  H7  UNL     1      22.831  -1.758  10.481  1.00  0.00     0.163 HD
ENDROOT
BRANCH   1   5
HETATM    5  C6  UNL     1      23.287  -3.270  12.324  1.00  0.00     0.116 A
HETATM    6  C2  UNL     1      22.376  -4.220  12.448  1.00  0.00     0.042 A
HETATM    7  S1  UNL     1      21.894  -4.039  14.157  1.00  0.00    -0.073 SA
HETATM    8  C3  UNL     1      22.978  -2.676  14.531  1.00  0.00     0.099 A
HETATM    9  N6  UNL     1      23.555  -2.527  13.362  1.00  0.00    -0.345 N
ATOM     10  H6  UNL     1      24.253  -1.790  13.258  1.00  0.00     0.166 HD
BRANCH   6  11
HETATM   11  C1  UNL     1      21.821  -5.082  11.392  1.00  0.00     0.278 C
BRANCH  11  12
HETATM   12  N1  UNL     1      22.812  -6.187  11.303  1.00  0.00    -0.075 N
ATOM     13  H13 UNL     1      22.460  -7.098  11.599  1.00  0.00     0.274 HD
ATOM     14  H12 UNL     1      23.049  -6.471  10.353  1.00  0.00     0.274 HD
ATOM     15  H11 UNL     1      23.598  -5.837  11.852  1.00  0.00     0.274 HD
ENDBRANCH  11  12
ENDBRANCH   6  11
BRANCH   8  16
HETATM   16  C4  UNL     1      23.112  -1.953  15.794  1.00  0.00     0.297 C
HETATM   17  N2  UNL     1      24.000  -0.844  15.736  1.00  0.00    -0.086 NA
HETATM   18  N3  UNL     1      23.530   0.226  14.988  1.00  0.00    -0.245 N
HETATM   19  N4  UNL     1      22.223   0.566  15.178  1.00  0.00    -0.273 N
ATOM     20  H3  UNL     1      24.129   0.730  14.333  1.00  0.00     0.203 HD
HETATM   21  C5  UNL     1      21.327  -0.525  15.454  1.00  0.00     0.443 C
ATOM     22  H4  UNL     1      21.901   1.532  15.128  1.00  0.00     0.186 HD
HETATM   23  O1  UNL     1      21.888  -1.501  16.255  1.00  0.00    -0.313 OA
BRANCH  21  24
HETATM   24  N5  UNL     1      20.163   0.037  16.135  1.00  0.00    -0.033 N
ATOM     25  H53 UNL     1      19.779  -0.584  16.847  1.00  0.00     0.279 HD
ATOM     26  H52 UNL     1      20.398   0.815  16.751  1.00  0.00     0.279 HD
ATOM     27  H51 UNL     1      19.486   0.287  15.415  1.00  0.00     0.279 HD
ENDBRANCH  21  24
ENDBRANCH   8  16
ENDBRANCH   1   5
BRANCH   3  28
HETATM   28  C8  UNL     1      24.217  -1.810   8.960  1.00  0.00     0.170 C
HETATM   29  C9  UNL     1      23.722  -2.782   7.921  1.00  0.00     0.171 C
HETATM   30  C10 UNL     1      24.617  -2.767   6.736  1.00  0.00     0.269 C
HETATM   31  N8  UNL     1      25.293  -1.510   6.676  1.00  0.00    -0.042 N
HETATM   32  C11 UNL     1      24.337  -0.487   6.380  1.00  0.00     0.379 C
ATOM     33  H82 UNL     1      25.826  -1.312   7.523  1.00  0.00     0.280 HD
ATOM     34  H81 UNL     1      26.072  -1.517   6.017  1.00  0.00     0.280 HD
HETATM   35  O5  UNL     1      23.292  -0.346   7.228  1.00  0.00    -0.323 OA
HETATM   36  C13 UNL     1      23.616  -0.444   8.573  1.00  0.00     0.284 C
BRANCH  29  37
HETATM   37  O3  UNL     1      22.388  -2.473   7.604  1.00  0.00    -0.392 OA
ATOM     38  H3  UNL     1      22.300  -2.415   6.660  1.00  0.00     0.210 HD
ENDBRANCH  29  37
BRANCH  32  39
HETATM   39  C12 UNL     1      25.052   0.791   6.048  1.00  0.00     0.373 C
BRANCH  39  40
HETATM   40  N9  UNL     1      25.044   0.883   4.571  1.00  0.00    -0.049 N
ATOM     41  H93 UNL     1      25.261   0.002   4.104  1.00  0.00     0.277 HD
ATOM     42  H92 UNL     1      24.112   1.006   4.174  1.00  0.00     0.277 HD
ATOM     43  H91 UNL     1      25.689   1.638   4.338  1.00  0.00     0.277 HD
ENDBRANCH  39  40
BRANCH  39  44
HETATM   44  O4  UNL     1      24.340   1.928   6.452  1.00  0.00    -0.367 OA
ATOM     45  H4  UNL     1      23.881   2.345   5.734  1.00  0.00     0.212 HD
ENDBRANCH  39  44
ENDBRANCH  32  39
BRANCH  36  46
HETATM   46  O6  UNL     1      24.575   0.544   8.839  1.00  0.00    -0.369 OA
ATOM     47  H6  UNL     1      24.224   1.380   8.552  1.00  0.00     0.212 HD
ENDBRANCH  36  46
ENDBRANCH   3  28
TORSDOF 11
ENDMDL