MODEL 3
REMARK VINA RESULT: -5.415674615      2.232      3.801
REMARK  13 active torsions:
REMARK  status: ('A' for Active; 'I' for Inactive)
REMARK    1  A    between atoms: N1_1  and  C1_4
REMARK    2  A    between atoms: C2_7  and  N3_8
REMARK    3  A    between atoms: N5_15  and  C5_16
REMARK    4  A    between atoms: C6_17  and  C7_18
REMARK    5  A    between atoms: C7_18  and  O1_19
REMARK    6  A    between atoms: C8_22  and  N6_23
REMARK    7  A    between atoms: C9_24  and  N7_25
REMARK    8  A    between atoms: C10_30  and  N9_31
REMARK    9  A    between atoms: N10_34  and  C11_35
REMARK   10  A    between atoms: C11_35  and  O3_36
REMARK   11  A    between atoms: O3_36  and  N11_37
REMARK   12  A    between atoms: C12_40  and  O4_41
REMARK   13  A    between atoms: C12_40  and  O5_43
ROOT
HETATM    1  C5  UNL     1      23.651  -1.144   9.911  1.00  0.00     0.094 C
HETATM    2  C6  UNL     1      22.772  -2.311   9.834  1.00  0.00     0.200 C
HETATM    3  O2  UNL     1      22.886  -2.827  11.154  1.00  0.00    -0.345 OA
HETATM    4  C8  UNL     1      22.935  -1.640  11.957  1.00  0.00     0.332 C
HETATM    5  C12 UNL     1      24.230  -1.122  11.326  1.00  0.00     0.251 C
ENDROOT
BRANCH   1   6
HETATM    6  N5  UNL     1      24.346  -0.609   8.842  1.00  0.00    -0.291 N
HETATM    7  C4  UNL     1      23.903   0.368   7.980  1.00  0.00     0.190 A
HETATM    8  N4  UNL     1      24.786   0.681   7.054  1.00  0.00    -0.346 N
HETATM    9  C3  UNL     1      25.857  -0.090   7.280  1.00  0.00     0.123 A
ATOM     10  H4  UNL     1      24.676   1.374   6.313  1.00  0.00     0.167 HD
HETATM   11  C2  UNL     1      27.084  -0.186   6.619  1.00  0.00     0.145 A
HETATM   12  C13 UNL     1      25.594  -0.885   8.377  1.00  0.00     0.159 A
HETATM   13  N2  UNL     1      27.972  -1.071   7.092  1.00  0.00    -0.175 N
HETATM   14  C1  UNL     1      27.700  -1.839   8.162  1.00  0.00     0.679 A
ATOM     15  H2  UNL     1      28.876  -1.165   6.629  1.00  0.00     0.186 HD
HETATM   16  N12 UNL     1      26.525  -1.758   8.810  1.00  0.00    -0.174 N
ATOM     17  H12 UNL     1      26.339  -2.351   9.619  1.00  0.00     0.186 HD
BRANCH  11  18
HETATM   18  N3  UNL     1      27.269   0.583   5.602  1.00  0.00    -0.383 N
ATOM     19  H32 UNL     1      28.108   1.164   5.601  1.00  0.00     0.157 HD
ATOM     20  H31 UNL     1      26.644   0.658   4.799  1.00  0.00     0.157 HD
ENDBRANCH  11  18
BRANCH  14  21
HETATM   21  N1  UNL     1      28.577  -2.679   8.589  1.00  0.00    -0.234 N
ATOM     22  H12 UNL     1      29.558  -2.513   8.361  1.00  0.00     0.174 HD
ATOM     23  H11 UNL     1      28.284  -3.484   9.141  1.00  0.00     0.174 HD
ENDBRANCH  14  21
ENDBRANCH   1   6
BRANCH   2  24
HETATM   24  C7  UNL     1      22.929  -3.320   8.776  1.00  0.00     0.202 C
BRANCH  24  25
HETATM   25  O1  UNL     1      22.205  -2.941   7.672  1.00  0.00    -0.398 OA
ATOM     26  H1  UNL     1      22.798  -2.687   6.976  1.00  0.00     0.209 HD
ENDBRANCH  24  25
ENDBRANCH   2  24
BRANCH   5  27
HETATM   27  O4  UNL     1      24.518   0.192  11.587  1.00  0.00    -0.357 OA
ATOM     28  H4  UNL     1      24.387   0.302  12.522  1.00  0.00     0.213 HD
ENDBRANCH   5  27
BRANCH   5  29
HETATM   29  O5  UNL     1      25.169  -2.015  11.648  1.00  0.00    -0.357 OA
ATOM     30  H5  UNL     1      25.130  -2.429  12.502  1.00  0.00     0.213 HD
ENDBRANCH   5  29
BRANCH   4  31
HETATM   31  N6  UNL     1      22.968  -2.058  13.298  1.00  0.00    -0.069 N
HETATM   32  C9  UNL     1      23.013  -3.292  13.849  1.00  0.00     0.710 A
HETATM   33  N8  UNL     1      23.001  -3.234  15.193  1.00  0.00    -0.020 N
HETATM   34  C10 UNL     1      22.949  -1.941  15.477  1.00  0.00     0.710 A
ATOM     35  H8  UNL     1      23.026  -4.014  15.849  1.00  0.00     0.203 HD
HETATM   36  N10 UNL     1      22.930  -1.216  14.318  1.00  0.00    -0.078 N
BRANCH  32  37
HETATM   37  N7  UNL     1      23.075  -4.389  13.222  1.00  0.00    -0.233 N
ATOM     38  H72 UNL     1      22.243  -4.863  12.870  1.00  0.00     0.174 HD
ATOM     39  H71 UNL     1      23.923  -4.916  13.013  1.00  0.00     0.174 HD
ENDBRANCH  32  37
BRANCH  34  40
HETATM   40  N9  UNL     1      22.921  -1.476  16.687  1.00  0.00    -0.233 N
ATOM     41  H92 UNL     1      23.630  -1.604  17.410  1.00  0.00     0.174 HD
ATOM     42  H91 UNL     1      22.155  -0.912  17.055  1.00  0.00     0.174 HD
ENDBRANCH  34  40
BRANCH  36  43
HETATM   43  C11 UNL     1      22.871   0.236  14.424  1.00  0.00     0.369 C
BRANCH  43  44
HETATM   44  O3  UNL     1      24.121   0.845  14.480  1.00  0.00    -0.265 OA
BRANCH  44  45
HETATM   45  N11 UNL     1      24.217   1.960  13.764  1.00  0.00    -0.309 N
ATOM     46 2H11 UNL     1      23.722   2.080  12.880  1.00  0.00     0.184 HD
ATOM     47 1H11 UNL     1      24.823   2.671  14.175  1.00  0.00     0.184 HD
ENDBRANCH  44  45
ENDBRANCH  43  44
ENDBRANCH  36  43
ENDBRANCH   4  31
TORSDOF 13
ENDMDL