MODEL 5
REMARK VINA RESULT: -6.114243719      0.853      1.376
REMARK  15 active torsions:
REMARK  status: ('A' for Active; 'I' for Inactive)
REMARK    1  A    between atoms: C4_7  and  C5_8
REMARK    2  A    between atoms: C5_8  and  O1_9
REMARK    3  A    between atoms: C5_8  and  C6_11
REMARK    4  A    between atoms: C7_13  and  N3_14
REMARK    5  A    between atoms: N3_14  and  C8_17
REMARK    6  A    between atoms: C8_17  and  O3_18
REMARK    7  A    between atoms: C8_17  and  C9_20
REMARK    8  A    between atoms: C10_23  and  O6_24
REMARK    9  A    between atoms: C10_23  and  C11_26
REMARK   10  A    between atoms: C12_27  and  N4_28
REMARK   11  A    between atoms: N4_28  and  O7_29
REMARK   12  A    between atoms: N4_28  and  N5_31
REMARK   13  A    between atoms: N5_31  and  O8_32
REMARK   14  A    between atoms: C13_34  and  O9_35
REMARK   15  A    between atoms: C14_39  and  N7_40
ROOT
HETATM    1  N1  UNL     1      24.937   1.763   5.637  1.00  0.00    -0.190 NA
HETATM    2  C1  UNL     1      24.675   1.085   6.558  1.00  0.00     0.121 C
HETATM    3  C2  UNL     1      24.349   0.272   7.700  1.00  0.00     0.157 A
HETATM    4  N2  UNL     1      23.126   0.326   8.259  1.00  0.00    -0.352 N
ATOM      5  H2  UNL     1      22.409   0.944   7.879  1.00  0.00     0.166 HD
HETATM    6  C3  UNL     1      22.862  -0.456   9.337  1.00  0.00     0.117 A
HETATM    7  C4  UNL     1      23.810  -1.300   9.869  1.00  0.00     0.058 A
HETATM    8  N6  UNL     1      25.036  -1.365   9.321  1.00  0.00    -0.340 N
ATOM      9  H6  UNL     1      25.752  -1.984   9.701  1.00  0.00     0.167 HD
HETATM   10  C14 UNL     1      25.288  -0.579   8.246  1.00  0.00     0.137 A
ENDROOT
BRANCH  10  11
HETATM   11  N7  UNL     1      26.446  -0.637   7.724  1.00  0.00    -0.383 N
ATOM     12  H72 UNL     1      26.526  -1.010   6.778  1.00  0.00     0.157 HD
ATOM     13  H71 UNL     1      27.248  -0.311   8.263  1.00  0.00     0.157 HD
ENDBRANCH  10  11
BRANCH   7  14
HETATM   14  C5  UNL     1      23.511  -2.152  11.056  1.00  0.00     0.201 C
BRANCH  14  15
HETATM   15  O1  UNL     1      24.408  -1.820  12.072  1.00  0.00    -0.387 OA
ATOM     16  H1  UNL     1      23.982  -1.969  12.908  1.00  0.00     0.210 HD
ENDBRANCH  14  15
BRANCH  14  17
HETATM   17  C6  UNL     1      22.123  -1.855  11.585  1.00  0.00     0.192 C
HETATM   18  O2  UNL     1      22.257  -1.468  12.904  1.00  0.00    -0.345 OA
HETATM   19  C7  UNL     1      21.807  -2.468  13.722  1.00  0.00     0.375 C
HETATM   20  C10 UNL     1      20.588  -2.966  12.944  1.00  0.00     0.203 C
HETATM   21  C13 UNL     1      21.246  -3.106  11.569  1.00  0.00     0.201 C
BRANCH  19  22
HETATM   22  N3  UNL     1      21.484  -2.078  15.047  1.00  0.00    -0.008 N
ATOM     23  H32 UNL     1      21.294  -1.078  15.108  1.00  0.00     0.284 HD
ATOM     24  H31 UNL     1      20.568  -2.428  15.329  1.00  0.00     0.284 HD
BRANCH  22  25
HETATM   25  C8  UNL     1      22.511  -2.478  15.973  1.00  0.00     0.424 C
BRANCH  25  26
HETATM   26  O3  UNL     1      23.400  -3.394  15.425  1.00  0.00    -0.362 OA
ATOM     27  H3  UNL     1      23.838  -3.919  16.084  1.00  0.00     0.212 HD
ENDBRANCH  25  26
BRANCH  25  28
HETATM   28  C9  UNL     1      23.251  -1.284  16.450  1.00  0.00     0.232 C
HETATM   29  O4  UNL     1      23.983  -0.632  15.635  1.00  0.00    -0.645 OA
HETATM   30  O5  UNL     1      23.193  -0.825  17.758  1.00  0.00    -0.645 OA
ENDBRANCH  25  28
ENDBRANCH  22  25
ENDBRANCH  19  22
BRANCH  20  31
HETATM   31  O6  UNL     1      19.605  -1.983  12.875  1.00  0.00    -0.371 OA
ATOM     32  H6  UNL     1      18.958  -2.194  12.213  1.00  0.00     0.212 HD
ENDBRANCH  20  31
BRANCH  20  33
HETATM   33  C11 UNL     1      20.123  -4.218  13.476  1.00  0.00    -0.034 C
HETATM   34  C12 UNL     1      19.749  -5.270  13.938  1.00  0.00     0.061 C
BRANCH  34  35
HETATM   35  N4  UNL     1      19.319  -6.481  14.495  1.00  0.00    -0.094 N
BRANCH  35  36
HETATM   36  O7  UNL     1      19.334  -6.715  15.833  1.00  0.00    -0.262 OA
ATOM     37  H7  UNL     1      20.136  -6.890  16.311  1.00  0.00     0.247 HD
ENDBRANCH  35  36
BRANCH  35  38
HETATM   38  N5  UNL     1      18.856  -7.490  13.648  1.00  0.00     0.056 NA
BRANCH  38  39
HETATM   39  O8  UNL     1      17.668  -7.193  13.093  1.00  0.00    -0.275 OA
ATOM     40  H8  UNL     1      17.218  -6.491  13.549  1.00  0.00     0.240 HD
ENDBRANCH  38  39
ENDBRANCH  35  38
ENDBRANCH  34  35
ENDBRANCH  20  33
BRANCH  21  41
HETATM   41  O9  UNL     1      20.337  -3.112  10.545  1.00  0.00    -0.389 OA
ATOM     42  H9  UNL     1      19.559  -3.621  10.740  1.00  0.00     0.210 HD
ENDBRANCH  21  41
ENDBRANCH  14  17
ENDBRANCH   7  14
TORSDOF 15
ENDMDL