MODEL 1
REMARK VINA RESULT: -7.741156072      0.000      0.000
REMARK  11 active torsions:
REMARK  status: ('A' for Active; 'I' for Inactive)
REMARK    1  A    between atoms: C1_2  and  S1_4
REMARK    2  A    between atoms: S1_4  and  C2_7
REMARK    3  A    between atoms: C4_9  and  O4_10
REMARK    4  A    between atoms: C5_12  and  N2_13
REMARK    5  A    between atoms: N2_13  and  C6_15
REMARK    6  A    between atoms: C6_15  and  N3_16
REMARK    7  A    between atoms: C6_15  and  C9_29
REMARK    8  A    between atoms: N3_16  and  C7_18
REMARK    9  A    between atoms: C8_23  and  O5_24
REMARK   10  A    between atoms: C8_23  and  O6_26
REMARK   11  A    between atoms: C10_32  and  O10_33
ROOT
HETATM    1  N2  UNL     1      21.927  -2.860  12.868  1.00  0.00    -0.356 N
ATOM      2  H2  UNL     1      21.122  -2.376  13.266  1.00  0.00     0.162 HD
ENDROOT
BRANCH   1   3
HETATM    3  C5  UNL     1      22.638  -2.201  11.841  1.00  0.00     0.099 A
HETATM    4  C4  UNL     1      22.342  -2.589  10.519  1.00  0.00     0.096 A
HETATM    5  C3  UNL     1      22.984  -2.050   9.431  1.00  0.00     0.065 A
HETATM    6  C2  UNL     1      23.969  -1.081   9.621  1.00  0.00     0.098 A
HETATM    7  C11 UNL     1      24.272  -0.692  10.903  1.00  0.00     0.103 A
HETATM    8  C10 UNL     1      23.604  -1.256  12.002  1.00  0.00     0.120 A
HETATM    9  N7  UNL     1      25.269   0.297  11.094  1.00  0.00    -0.098 NA
BRANCH   4  10
HETATM   10  O4  UNL     1      21.384  -3.536  10.300  1.00  0.00    -0.358 OA
ATOM     11  H4  UNL     1      20.503  -3.365  10.612  1.00  0.00     0.217 HD
ENDBRANCH   4  10
BRANCH   6  12
HETATM   12  S1  UNL     1      24.782  -0.404   8.231  1.00  0.00     0.260 S
HETATM   13  O2  UNL     1      26.206  -0.058   8.602  1.00  0.00    -0.213 OA
HETATM   14  O3  UNL     1      24.777  -1.490   7.165  1.00  0.00    -0.213 OA
BRANCH  12  15
HETATM   15  C1  UNL     1      23.945   0.993   7.598  1.00  0.00     0.354 C
HETATM   16  N1  UNL     1      24.499   1.857   6.612  1.00  0.00    -0.046 NA
HETATM   17  O1  UNL     1      22.794   1.253   8.030  1.00  0.00    -0.258 OA
ENDBRANCH  12  15
ENDBRANCH   6  12
BRANCH   8  18
HETATM   18  O10 UNL     1      23.974  -0.816  13.244  1.00  0.00    -0.357 OA
ATOM     19  H10 UNL     1      24.197  -1.423  13.941  1.00  0.00     0.218 HD
ENDBRANCH   8  18
ENDBRANCH   1   3
BRANCH   1  20
HETATM   20  C6  UNL     1      22.251  -4.184  13.409  1.00  0.00     0.284 C
BRANCH  20  21
HETATM   21  N3  UNL     1      22.715  -3.975  14.736  1.00  0.00    -0.353 N
ATOM     22  H3  UNL     1      23.207  -4.730  15.213  1.00  0.00     0.159 HD
BRANCH  21  23
HETATM   23  C7  UNL     1      22.518  -2.768  15.407  1.00  0.00     0.343 C
HETATM   24  N4  UNL     1      21.161  -2.374  15.710  1.00  0.00    -0.073 NA
HETATM   25  N5  UNL     1      21.195  -0.948  15.748  1.00  0.00    -0.025 NA
HETATM   26  N6  UNL     1      22.128  -0.487  16.640  1.00  0.00    -0.240 N
HETATM   27  C8  UNL     1      23.278  -1.272  16.885  1.00  0.00     0.388 C
ATOM     28  H6  UNL     1      21.995   0.404  17.118  1.00  0.00     0.185 HD
HETATM   29  O7  UNL     1      23.216  -2.613  16.618  1.00  0.00    -0.273 OA
BRANCH  27  30
HETATM   30  O5  UNL     1      23.638  -1.054  18.238  1.00  0.00    -0.324 OA
ATOM     31  H5  UNL     1      24.562  -1.261  18.311  1.00  0.00     0.217 HD
ENDBRANCH  27  30
BRANCH  27  32
HETATM   32  O6  UNL     1      24.395  -0.777  16.164  1.00  0.00    -0.324 OA
ATOM     33  H6  UNL     1      24.740   0.009  16.569  1.00  0.00     0.217 HD
ENDBRANCH  27  32
ENDBRANCH  21  23
ENDBRANCH  20  21
BRANCH  20  34
HETATM   34  C9  UNL     1      21.100  -5.071  13.277  1.00  0.00     0.217 C
HETATM   35  O8  UNL     1      20.694  -5.574  12.218  1.00  0.00    -0.645 OA
HETATM   36  O9  UNL     1      20.361  -5.414  14.436  1.00  0.00    -0.645 OA
ENDBRANCH  20  34
ENDBRANCH   1  20
TORSDOF 11
ENDMDL