MODEL 1
REMARK VINA RESULT: -6.444901999      0.000      0.000
REMARK  12 active torsions:
REMARK  status: ('A' for Active; 'I' for Inactive)
REMARK    1  A    between atoms: C2_2  and  O1_3
REMARK    2  A    between atoms: C2_2  and  C3_5
REMARK    3  A    between atoms: C3_5  and  S1_6
REMARK    4  A    between atoms: C3_5  and  C12_41
REMARK    5  A    between atoms: S1_6  and  C4_7
REMARK    6  A    between atoms: C5_11  and  O3_12
REMARK    7  A    between atoms: C5_11  and  O4_14
REMARK    8  A    between atoms: C6_16  and  N2_17
REMARK    9  A    between atoms: C8_23  and  N5_24
REMARK   10  A    between atoms: C9_29  and  N7_30
REMARK   11  A    between atoms: C11_36  and  O5_37
REMARK   12  A    between atoms: C11_36  and  O6_39
ROOT
HETATM    1  C4  UNL     1      23.932  -0.917   8.264  1.00  0.00     0.279 C
HETATM    2  O2  UNL     1      22.839  -1.672   7.848  1.00  0.00    -0.259 OA
HETATM    3  N1  UNL     1      22.807  -2.835   8.473  1.00  0.00    -0.240 N
ATOM      4  H1  UNL     1      22.699  -3.704   7.949  1.00  0.00     0.193 HD
HETATM    5  C5  UNL     1      22.925  -2.852   9.884  1.00  0.00     0.293 C
HETATM    6  C6  UNL     1      23.743  -1.768  10.503  1.00  0.00     0.279 C
HETATM    7  C11 UNL     1      23.601  -0.513   9.687  1.00  0.00     0.230 C
ENDROOT
BRANCH   6   8
HETATM    8  N2  UNL     1      23.363  -1.581  11.883  1.00  0.00    -0.214 N
HETATM    9  N3  UNL     1      22.891  -0.474  12.431  1.00  0.00    -0.265 N
HETATM   10  C7  UNL     1      22.640  -0.642  13.740  1.00  0.00     0.169 A
ATOM     11  H3  UNL     1      22.736   0.397  11.923  1.00  0.00     0.190 HD
HETATM   12  N4  UNL     1      22.162   0.153  14.728  1.00  0.00    -0.173 N
HETATM   13  C10 UNL     1      22.986  -1.957  14.014  1.00  0.00     0.140 A
HETATM   14  C8  UNL     1      22.018  -0.316  15.979  1.00  0.00     0.679 A
ATOM     15  H4  UNL     1      21.910   1.119  14.519  1.00  0.00     0.186 HD
HETATM   16  N6  UNL     1      22.361  -1.604  16.235  1.00  0.00    -0.175 N
HETATM   17  C9  UNL     1      22.836  -2.425  15.291  1.00  0.00     0.147 A
ATOM     18  H6  UNL     1      22.253  -1.960  17.185  1.00  0.00     0.186 HD
HETATM   19  N8  UNL     1      23.421  -2.479  12.848  1.00  0.00    -0.276 N
ATOM     20  H8  UNL     1      23.749  -3.437  12.729  1.00  0.00     0.189 HD
BRANCH  14  21
HETATM   21  N5  UNL     1      21.562   0.439  16.924  1.00  0.00    -0.234 N
ATOM     22  H52 UNL     1      22.003   1.337  17.124  1.00  0.00     0.174 HD
ATOM     23  H51 UNL     1      20.759   0.153  17.483  1.00  0.00     0.174 HD
ENDBRANCH  14  21
BRANCH  17  24
HETATM   24  N7  UNL     1      23.154  -3.645  15.562  1.00  0.00    -0.383 N
ATOM     25  H72 UNL     1      22.900  -4.040  16.467  1.00  0.00     0.157 HD
ATOM     26  H71 UNL     1      23.654  -4.225  14.888  1.00  0.00     0.157 HD
ENDBRANCH  17  24
ENDBRANCH   6   8
BRANCH   5  27
HETATM   27  O3  UNL     1      23.522  -4.075  10.276  1.00  0.00    -0.346 OA
ATOM     28  H3  UNL     1      24.303  -3.885  10.783  1.00  0.00     0.215 HD
ENDBRANCH   5  27
BRANCH   5  29
HETATM   29  O4  UNL     1      21.646  -2.843  10.435  1.00  0.00    -0.346 OA
ATOM     30  H4  UNL     1      21.603  -2.153  11.087  1.00  0.00     0.215 HD
ENDBRANCH   5  29
BRANCH   7  31
HETATM   31  O5  UNL     1      24.398   0.524  10.144  1.00  0.00    -0.361 OA
ATOM     32  H5  UNL     1      24.732   1.066   9.439  1.00  0.00     0.213 HD
ENDBRANCH   7  31
BRANCH   7  33
HETATM   33  O6  UNL     1      22.231  -0.169   9.687  1.00  0.00    -0.361 OA
ATOM     34  H6  UNL     1      22.045   0.166  10.557  1.00  0.00     0.213 HD
ENDBRANCH   7  33
BRANCH   1  35
HETATM   35  S1  UNL     1      24.270   0.519   7.256  1.00  0.00    -0.111 SA
BRANCH  35  36
HETATM   36  C3  UNL     1      25.365   0.206   5.875  1.00  0.00     0.179 C
BRANCH  36  37
HETATM   37  C2  UNL     1      25.423   1.347   4.891  1.00  0.00     0.138 C
HETATM   38  C1  UNL     1      24.633   0.986   3.657  1.00  0.00     0.041 C
BRANCH  37  39
HETATM   39  O1  UNL     1      24.884   2.483   5.450  1.00  0.00    -0.394 OA
ATOM     40  H1  UNL     1      24.900   2.398   6.396  1.00  0.00     0.210 HD
ENDBRANCH  37  39
ENDBRANCH  36  37
BRANCH  36  41
HETATM   41  C12 UNL     1      26.724  -0.139   6.358  1.00  0.00     0.189 C
HETATM   42  O7  UNL     1      27.369  -1.020   5.768  1.00  0.00    -0.647 OA
HETATM   43  O8  UNL     1      27.253   0.518   7.451  1.00  0.00    -0.647 OA
ENDBRANCH  36  41
ENDBRANCH  35  36
ENDBRANCH   1  35
TORSDOF 12
ENDMDL