MODEL 5
REMARK VINA RESULT: -9.824158563      2.919     10.015
REMARK  7 active torsions:
REMARK  status: ('A' for Active; 'I' for Inactive)
REMARK       I    between atoms: C1_2  and  N1_3
REMARK    1  A    between atoms: C1_2  and  C10_13
REMARK    2  A    between atoms: N1_3  and  C2_5
REMARK    3  A    between atoms: C2_5  and  C3_6
REMARK    4  A    between atoms: C14_17  and  C15_18
REMARK    5  A    between atoms: C15_18  and  N2_19
REMARK       I    between atoms: N2_19  and  C16_21
REMARK    6  A    between atoms: C16_21  and  C17_23
REMARK    7  A    between atoms: C17_23  and  C18_24
ROOT
HETATM    1  C10 UNL     1      32.705  22.386   8.242  1.00  0.00     0.032 A
HETATM    2  C11 UNL     1      31.950  21.896   7.174  1.00  0.00     0.017 A
HETATM    3  C12 UNL     1      32.521  21.863   5.911  1.00  0.00     0.002 A
HETATM    4  C13 UNL     1      33.796  22.301   5.726  1.00  0.00     0.009 A
HETATM    5  C14 UNL     1      34.559  22.790   6.783  1.00  0.00    -0.040 A
HETATM    6  C26 UNL     1      34.013  22.833   8.037  1.00  0.00     0.026 A
ENDROOT
BRANCH   5   7
HETATM    7  C15 UNL     1      35.947  23.216   6.497  1.00  0.00     0.161 C
BRANCH   7   8
HETATM    8  N2  UNL     1      36.333  24.132   7.539  1.00  0.00    -0.356 N
HETATM    9  C16 UNL     1      37.261  25.205   7.403  1.00  0.00     0.227 C
HETATM   10  O2  UNL     1      37.844  25.459   6.327  1.00  0.00    -0.273 OA
ATOM     11  H2  UNL     1      35.904  24.001   8.456  1.00  0.00     0.162 HD
BRANCH   9  12
HETATM   12  C17 UNL     1      37.569  26.082   8.588  1.00  0.00     0.044 A
HETATM   13  C24 UNL     1      37.527  25.310   9.875  1.00  0.00     0.021 A
HETATM   14  C25 UNL     1      38.795  25.934   9.375  1.00  0.00     0.021 A
BRANCH  12  15
HETATM   15  C18 UNL     1      36.766  27.370   8.608  1.00  0.00     0.003 C
HETATM   16  C19 UNL     1      37.607  28.561   8.276  1.00  0.00     0.006 C
HETATM   17  C20 UNL     1      36.821  29.828   8.421  1.00  0.00     0.000 C
HETATM   18  C21 UNL     1      35.495  29.829   7.719  1.00  0.00     0.000 C
HETATM   19  C22 UNL     1      34.767  28.526   7.836  1.00  0.00     0.000 C
HETATM   20  C23 UNL     1      35.648  27.336   7.569  1.00  0.00     0.006 C
ENDBRANCH  12  15
ENDBRANCH   9  12
ENDBRANCH   7   8
ENDBRANCH   5   7
BRANCH   1  21
HETATM   21  C1  UNL     1      32.088  22.419   9.565  1.00  0.00     0.251 C
HETATM   22  O1  UNL     1      32.424  23.327  10.372  1.00  0.00    -0.268 OA
HETATM   23  N1  UNL     1      31.129  21.441   9.925  1.00  0.00    -0.356 N
ATOM     24  H1  UNL     1      30.874  20.724   9.245  1.00  0.00     0.162 HD
BRANCH  23  25
HETATM   25  C2  UNL     1      30.490  21.427  11.243  1.00  0.00     0.128 C
BRANCH  25  26
HETATM   26  C3  UNL     1      30.009  20.009  11.444  1.00  0.00     0.008 C
HETATM   27  C4  UNL     1      28.512  20.004  11.794  1.00  0.00     0.011 C
HETATM   28  C5  UNL     1      28.389  19.145  13.008  1.00  0.00    -0.014 C
HETATM   29  C6  UNL     1      28.920  19.919  14.186  1.00  0.00     0.005 C
HETATM   30  C9  UNL     1      29.554  18.170  12.772  1.00  0.00     0.010 C
HETATM   31  C7  UNL     1      30.418  19.998  13.906  1.00  0.00     0.005 C
HETATM   32  C8  UNL     1      30.614  19.282  12.590  1.00  0.00    -0.009 C
ENDBRANCH  25  26
ENDBRANCH  23  25
ENDBRANCH   1  21
TORSDOF 7
ENDMDL