MODEL 4
REMARK VINA RESULT: -7.621487333      1.880      4.735
REMARK  11 active torsions:
REMARK  status: ('A' for Active; 'I' for Inactive)
REMARK    1  A    between atoms: C2_2  and  C3_3
REMARK    2  A    between atoms: C3_3  and  N1_4
REMARK    3  A    between atoms: N1_4  and  N2_5
REMARK       I    between atoms: N1_4  and  C11_17
REMARK    4  A    between atoms: N2_5  and  C4_7
REMARK    5  A    between atoms: C4_7  and  N3_9
REMARK    6  A    between atoms: N3_9  and  C5_11
REMARK    7  A    between atoms: C5_11  and  C6_12
REMARK    8  A    between atoms: C6_12  and  C7_13
REMARK    9  A    between atoms: C11_17  and  C12_19
REMARK   10  A    between atoms: C12_19  and  C13_20
REMARK   11  A    between atoms: C15_22  and  C16_23
ROOT
HETATM    1  N1  UNL     1      36.879  23.288   4.497  1.00  0.00    -0.259 N
HETATM    2  C11 UNL     1      36.058  22.356   5.175  1.00  0.00     0.238 C
HETATM    3  O1  UNL     1      36.516  21.177   5.326  1.00  0.00    -0.272 OA
ENDROOT
BRANCH   1   4
HETATM    4  C3  UNL     1      38.188  22.891   4.005  1.00  0.00     0.152 C
BRANCH   4   5
HETATM    5  C2  UNL     1      39.243  22.871   5.068  1.00  0.00     0.017 C
HETATM    6  C1  UNL     1      40.396  23.818   4.707  1.00  0.00     0.007 C
ENDBRANCH   4   5
ENDBRANCH   1   4
BRANCH   1   7
HETATM    7  N2  UNL     1      36.527  24.606   4.232  1.00  0.00    -0.272 N
ATOM      8  H2  UNL     1      35.795  24.780   3.543  1.00  0.00     0.189 HD
BRANCH   7   9
HETATM    9  C4  UNL     1      37.127  25.715   4.862  1.00  0.00     0.186 C
HETATM   10  S1  UNL     1      37.511  27.047   4.009  1.00  0.00    -0.040 SA
BRANCH   9  11
HETATM   11  N3  UNL     1      37.431  25.723   6.256  1.00  0.00    -0.366 N
ATOM     12  H3  UNL     1      37.980  24.948   6.629  1.00  0.00     0.161 HD
BRANCH  11  13
HETATM   13  C5  UNL     1      37.015  26.746   7.165  1.00  0.00     0.123 C
BRANCH  13  14
HETATM   14  C6  UNL     1      35.516  26.905   7.125  1.00  0.00     0.028 C
BRANCH  14  15
HETATM   15  C7  UNL     1      35.106  28.353   7.275  1.00  0.00    -0.050 C
HETATM   16  C8  UNL     1      33.922  28.603   6.376  1.00  0.00     0.014 C
HETATM   17  C9  UNL     1      34.716  28.665   8.707  1.00  0.00     0.014 C
HETATM   18  C10 UNL     1      36.235  29.290   6.913  1.00  0.00     0.014 C
ENDBRANCH  14  15
ENDBRANCH  13  14
ENDBRANCH  11  13
ENDBRANCH   9  11
ENDBRANCH   7   9
ENDBRANCH   1   7
BRANCH   2  19
HETATM   19  C12 UNL     1      34.728  22.636   5.714  1.00  0.00     0.109 C
BRANCH  19  20
HETATM   20  C13 UNL     1      34.589  22.363   7.181  1.00  0.00    -0.001 C
HETATM   21  C14 UNL     1      34.350  23.557   8.040  1.00  0.00     0.015 C
HETATM   22  C15 UNL     1      33.846  23.157   9.408  1.00  0.00    -0.040 C
HETATM   23  C18 UNL     1      32.360  23.198   9.554  1.00  0.00     0.014 C
HETATM   24  C22 UNL     1      34.313  21.747   9.690  1.00  0.00     0.014 C
HETATM   25  C19 UNL     1      31.646  22.109   8.790  1.00  0.00    -0.013 C
HETATM   26  C20 UNL     1      32.135  20.736   9.238  1.00  0.00     0.010 C
HETATM   27  C24 UNL     1      32.133  22.120   7.351  1.00  0.00     0.010 C
HETATM   28  C21 UNL     1      33.587  20.799   8.767  1.00  0.00    -0.009 C
HETATM   29  C23 UNL     1      33.445  21.384   7.392  1.00  0.00    -0.005 C
BRANCH  22  30
HETATM   30  C16 UNL     1      34.441  24.118  10.434  1.00  0.00     0.005 C
HETATM   31  C17 UNL     1      35.817  24.506   9.944  1.00  0.00     0.006 C
ENDBRANCH  22  30
ENDBRANCH  19  20
ENDBRANCH   2  19
TORSDOF 11
ENDMDL