MODEL 5
REMARK VINA RESULT: -8.119681529      2.755      3.382
REMARK  8 active torsions:
REMARK  status: ('A' for Active; 'I' for Inactive)
REMARK    1  A    between atoms: C2_2  and  C3_3
REMARK    2  A    between atoms: C3_3  and  C11_14
REMARK    3  A    between atoms: C4_4  and  C5_5
REMARK       I    between atoms: C5_5  and  N1_7
REMARK    4  A    between atoms: N1_7  and  C6_9
REMARK    5  A    between atoms: C6_9  and  C7_10
REMARK    6  A    between atoms: C7_10  and  C9_12
REMARK    7  A    between atoms: C15_18  and  C16_19
REMARK    8  A    between atoms: N2_23  and  C20_25
ROOT
HETATM    1  C11 UNL     1      35.128  23.051   7.468  1.00  0.00     0.023 C
HETATM    2  C12 UNL     1      35.129  24.527   7.791  1.00  0.00     0.010 C
HETATM    3  C13 UNL     1      36.547  24.835   7.233  1.00  0.00     0.007 C
HETATM    4  C14 UNL     1      36.517  24.093   5.927  1.00  0.00     0.004 C
HETATM    5  C15 UNL     1      37.779  23.791   5.260  1.00  0.00     0.039 C
HETATM    6  C19 UNL     1      37.717  22.564   4.418  1.00  0.00    -0.006 C
HETATM    7  N2  UNL     1      37.998  22.452   3.197  1.00  0.00    -0.342 N
ATOM      8  H2  UNL     1      37.877  21.504   2.842  1.00  0.00     0.167 HD
HETATM    9  C21 UNL     1      37.211  21.352   5.116  1.00  0.00     0.054 C
HETATM   10  C22 UNL     1      35.861  21.644   5.621  1.00  0.00     0.016 C
HETATM   11  C23 UNL     1      35.471  22.990   6.046  1.00  0.00    -0.032 C
HETATM   12  C24 UNL     1      34.256  23.367   5.160  1.00  0.00     0.016 C
ENDROOT
BRANCH   1  13
HETATM   13  C3  UNL     1      34.010  22.292   8.047  1.00  0.00    -0.070 C
HETATM   14  C4  UNL     1      32.953  22.729   8.608  1.00  0.00     0.077 C
BRANCH  13  15
HETATM   15  C2  UNL     1      34.231  20.806   7.891  1.00  0.00     0.030 C
HETATM   16  C1  UNL     1      33.176  20.228   6.954  1.00  0.00     0.010 C
ENDBRANCH  13  15
BRANCH  14  17
HETATM   17  C5  UNL     1      31.812  22.054   9.182  1.00  0.00     0.241 C
HETATM   18  O1  UNL     1      30.604  22.225   8.884  1.00  0.00    -0.269 OA
HETATM   19  N1  UNL     1      32.004  21.059  10.215  1.00  0.00    -0.357 N
ATOM     20  H1  UNL     1      32.944  20.833  10.541  1.00  0.00     0.162 HD
BRANCH  19  21
HETATM   21  C6  UNL     1      30.878  20.398  10.775  1.00  0.00     0.127 C
BRANCH  21  22
HETATM   22  C7  UNL     1      31.245  19.282  11.716  1.00  0.00    -0.001 C
HETATM   23  C8  UNL     1      30.806  19.720  13.110  1.00  0.00     0.011 C
BRANCH  22  24
HETATM   24  C9  UNL     1      30.420  18.037  11.395  1.00  0.00     0.001 C
HETATM   25  C10 UNL     1      29.378  17.864  12.480  1.00  0.00     0.005 C
ENDBRANCH  22  24
ENDBRANCH  21  22
ENDBRANCH  19  21
ENDBRANCH  14  17
ENDBRANCH   1  13
BRANCH   5  26
HETATM   26  C16 UNL     1      39.051  23.788   6.055  1.00  0.00    -0.013 C
HETATM   27  C17 UNL     1      39.507  25.248   6.305  1.00  0.00     0.010 C
HETATM   28  C18 UNL     1      40.240  23.139   5.462  1.00  0.00     0.010 C
ENDBRANCH   5  26
BRANCH   7  29
HETATM   29  C20 UNL     1      38.437  23.342   2.234  1.00  0.00     0.185 C
HETATM   30  N3  UNL     1      37.711  24.374   1.612  1.00  0.00    -0.070 NA
HETATM   31  S1  UNL     1      40.012  23.181   1.729  1.00  0.00    -0.044 SA
ENDBRANCH   7  29
TORSDOF 8
ENDMDL