MODEL 1
REMARK VINA RESULT: -9.225220229      0.000      0.000
REMARK  9 active torsions:
REMARK  status: ('A' for Active; 'I' for Inactive)
REMARK    1  A    between atoms: C2_2  and  N1_3
REMARK    2  A    between atoms: C2_2  and  C22_29
REMARK    3  A    between atoms: C3_5  and  N2_6
REMARK    4  A    between atoms: C3_5  and  C18_23
REMARK    5  A    between atoms: N2_6  and  C4_8
REMARK    6  A    between atoms: N3_11  and  C7_12
REMARK    7  A    between atoms: C7_12  and  C8_13
REMARK    8  A    between atoms: C8_13  and  C9_14
REMARK    9  A    between atoms: C9_14  and  C10_15
ROOT
HETATM    1  N2  UNL     1      34.982  22.878   4.870  1.00  0.00    -0.369 N
ATOM      2  H2  UNL     1      34.701  22.592   3.932  1.00  0.00     0.161 HD
ENDROOT
BRANCH   1   3
HETATM    3  C3  UNL     1      36.079  23.815   5.023  1.00  0.00     0.124 C
HETATM    4  N1  UNL     1      35.974  24.931   5.586  1.00  0.00    -0.370 N
ATOM      5  H1  UNL     1      35.033  25.119   5.933  1.00  0.00     0.161 HD
BRANCH   4   6
HETATM    6  C2  UNL     1      36.867  25.969   5.839  1.00  0.00     0.083 C
HETATM    7  C1  UNL     1      36.193  27.346   5.511  1.00  0.00     0.032 C
BRANCH   6   8
HETATM    8  C22 UNL     1      37.514  26.136   7.149  1.00  0.00     0.008 C
HETATM    9  C23 UNL     1      37.026  25.212   8.242  1.00  0.00     0.007 C
HETATM   10  C24 UNL     1      37.997  25.520   9.381  1.00  0.00     0.000 C
HETATM   11  C25 UNL     1      39.232  26.116   8.739  1.00  0.00     0.000 C
HETATM   12  C26 UNL     1      38.997  25.936   7.239  1.00  0.00     0.007 C
ENDBRANCH   6   8
ENDBRANCH   4   6
BRANCH   3  13
HETATM   13  C18 UNL     1      37.350  23.351   4.441  1.00  0.00     0.076 A
HETATM   14  C19 UNL     1      38.486  22.904   5.071  1.00  0.00     0.035 A
HETATM   15  C20 UNL     1      39.378  22.632   4.042  1.00  0.00     0.019 A
HETATM   16  C21 UNL     1      38.776  22.915   2.846  1.00  0.00     0.088 A
HETATM   17  N4  UNL     1      37.525  23.358   3.099  1.00  0.00    -0.363 N
ATOM     18  H4  UNL     1      36.836  23.645   2.404  1.00  0.00     0.165 HD
ENDBRANCH   3  13
ENDBRANCH   1   3
BRANCH   1  19
HETATM   19  C4  UNL     1      34.288  22.351   5.989  1.00  0.00     0.092 C
HETATM   20  C5  UNL     1      34.833  21.012   6.401  1.00  0.00     0.070 C
HETATM   21  C6  UNL     1      34.248  20.510   7.683  1.00  0.00     0.065 C
HETATM   22  N3  UNL     1      32.911  20.849   7.900  1.00  0.00    -0.374 N
HETATM   23  C16 UNL     1      32.231  21.821   7.141  1.00  0.00     0.065 C
HETATM   24  C17 UNL     1      32.792  22.156   5.784  1.00  0.00     0.070 C
BRANCH  22  25
HETATM   25  C7  UNL     1      32.609  21.051   9.323  1.00  0.00     0.127 C
BRANCH  25  26
HETATM   26  C8  UNL     1      31.246  21.540   9.608  1.00  0.00     0.021 C
BRANCH  26  27
HETATM   27  C9  UNL     1      30.851  21.316  11.036  1.00  0.00     0.006 C
BRANCH  27  28
HETATM   28  C10 UNL     1      29.907  20.165  11.258  1.00  0.00    -0.014 C
HETATM   29  C11 UNL     1      30.732  18.899  11.268  1.00  0.00     0.004 C
HETATM   30  C12 UNL     1      29.969  17.716  11.813  1.00  0.00     0.000 C
HETATM   31  C13 UNL     1      29.198  18.010  13.066  1.00  0.00     0.000 C
HETATM   32  C14 UNL     1      28.233  19.146  12.744  1.00  0.00     0.000 C
HETATM   33  C15 UNL     1      29.130  20.378  12.513  1.00  0.00     0.004 C
ENDBRANCH  27  28
ENDBRANCH  26  27
ENDBRANCH  25  26
ENDBRANCH  22  25
ENDBRANCH   1  19
TORSDOF 9
ENDMDL