MODEL 2
REMARK VINA RESULT: -8.738640413      2.361      3.698
REMARK  8 active torsions:
REMARK  status: ('A' for Active; 'I' for Inactive)
REMARK    1  A    between atoms: C2_2  and  C4_4
REMARK    2  A    between atoms: C4_4  and  N1_5
REMARK    3  A    between atoms: N1_5  and  C5_8
REMARK    4  A    between atoms: C5_8  and  C6_9
REMARK    5  A    between atoms: C6_9  and  C7_10
REMARK    6  A    between atoms: C7_10  and  N2_11
REMARK    7  A    between atoms: N2_11  and  O1_12
REMARK       I    between atoms: N2_11  and  C8_14
REMARK    8  A    between atoms: C8_14  and  C9_16
ROOT
HETATM    1  C9  UNL     1      37.025  25.760   7.915  1.00  0.00     0.002 C
HETATM    2  C10 UNL     1      36.272  25.986   6.646  1.00  0.00     0.044 C
HETATM    3  C11 UNL     1      36.708  25.257   5.425  1.00  0.00    -0.021 C
HETATM    4  C12 UNL     1      36.260  24.004   5.434  1.00  0.00    -0.020 C
HETATM    5  C13 UNL     1      35.513  23.883   6.702  1.00  0.00    -0.014 C
HETATM    6  C14 UNL     1      34.954  25.230   6.782  1.00  0.00     0.027 C
HETATM    7  C15 UNL     1      36.608  23.461   7.653  1.00  0.00     0.023 C
HETATM    8  C16 UNL     1      36.680  24.563   8.715  1.00  0.00     0.022 C
HETATM    9  C17 UNL     1      35.493  24.436   9.534  1.00  0.00     0.010 C
HETATM   10  C18 UNL     1      34.718  23.121   9.360  1.00  0.00     0.007 C
HETATM   11  C19 UNL     1      33.885  22.958   8.169  1.00  0.00     0.002 C
HETATM   12  C20 UNL     1      32.807  21.906   8.434  1.00  0.00    -0.043 C
HETATM   13  C21 UNL     1      33.215  20.938   9.532  1.00  0.00     0.015 C
HETATM   14  C22 UNL     1      31.524  22.557   8.983  1.00  0.00     0.015 C
HETATM   15  C23 UNL     1      32.438  21.120   7.239  1.00  0.00     0.009 C
HETATM   16  C24 UNL     1      32.445  21.811   5.931  1.00  0.00     0.002 C
HETATM   17  C25 UNL     1      33.379  22.977   5.805  1.00  0.00     0.010 C
HETATM   18  C26 UNL     1      34.506  22.784   6.824  1.00  0.00    -0.029 C
HETATM   19  C27 UNL     1      35.198  21.498   6.551  1.00  0.00     0.016 C
ENDROOT
BRANCH   1  20
HETATM   20  C8  UNL     1      37.181  27.000   8.678  1.00  0.00     0.270 C
HETATM   21  N2  UNL     1      38.378  27.723   8.894  1.00  0.00    -0.225 N
HETATM   22  O2  UNL     1      36.124  27.473   9.199  1.00  0.00    -0.266 OA
BRANCH  21  23
HETATM   23  C7  UNL     1      39.692  27.365   8.435  1.00  0.00     0.161 C
BRANCH  23  24
HETATM   24  C6  UNL     1      40.140  27.979   7.158  1.00  0.00     0.050 C
BRANCH  24  25
HETATM   25  C5  UNL     1      39.957  27.026   5.972  1.00  0.00     0.234 C
BRANCH  25  26
HETATM   26  N1  UNL     1      40.253  25.662   6.288  1.00  0.00    -0.072 N
ATOM     27  H12 UNL     1      39.424  25.121   6.533  1.00  0.00     0.277 HD
ATOM     28  H11 UNL     1      40.747  25.558   7.175  1.00  0.00     0.277 HD
BRANCH  26  29
HETATM   29  C4  UNL     1      40.986  25.100   5.159  1.00  0.00     0.265 C
BRANCH  29  30
HETATM   30  C2  UNL     1      40.114  24.071   4.563  1.00  0.00    -0.068 C
HETATM   31  C1  UNL     1      39.798  22.956   5.193  1.00  0.00     0.015 C
HETATM   32  C3  UNL     1      39.566  24.290   3.197  1.00  0.00     0.044 C
ENDBRANCH  29  30
ENDBRANCH  26  29
ENDBRANCH  25  26
ENDBRANCH  24  25
ENDBRANCH  23  24
ENDBRANCH  21  23
BRANCH  21  33
HETATM   33  O1  UNL     1      38.351  28.908   9.612  1.00  0.00    -0.285 OA
ATOM     34  H1  UNL     1      39.204  29.166   9.943  1.00  0.00     0.245 HD
ENDBRANCH  21  33
ENDBRANCH   1  20
TORSDOF 8
ENDMDL