MODEL 5
REMARK VINA RESULT: -8.003705273      4.392      6.767
REMARK  8 active torsions:
REMARK  status: ('A' for Active; 'I' for Inactive)
REMARK    1  A    between atoms: C3_3  and  C5_5
REMARK    2  A    between atoms: C5_5  and  C6_6
REMARK    3  A    between atoms: C5_5  and  N2_27
REMARK    4  A    between atoms: C7_7  and  C8_8
REMARK    5  A    between atoms: C10_10  and  C11_11
REMARK    6  A    between atoms: N1_18  and  C18_19
REMARK    7  A    between atoms: C18_19  and  C20_21
REMARK    8  A    between atoms: N2_27  and  C23_29
ROOT
HETATM    1  C11 UNL     1      38.180  23.881   4.731  1.00  0.00     0.026 C
HETATM    2  C12 UNL     1      39.255  24.211   5.758  1.00  0.00    -0.010 C
HETATM    3  C13 UNL     1      38.563  24.732   7.008  1.00  0.00     0.010 C
HETATM    4  C14 UNL     1      40.267  25.191   5.272  1.00  0.00     0.005 C
HETATM    5  C15 UNL     1      39.822  26.068   4.152  1.00  0.00     0.007 C
HETATM    6  C16 UNL     1      39.144  25.368   3.027  1.00  0.00     0.017 C
HETATM    7  C17 UNL     1      40.096  25.173   1.839  1.00  0.00     0.132 C
HETATM    8  N1  UNL     1      40.839  24.012   2.290  1.00  0.00    -0.337 N
HETATM    9  C21 UNL     1      40.029  23.230   3.192  1.00  0.00     0.225 C
HETATM   10  O3  UNL     1      40.439  22.157   3.700  1.00  0.00    -0.273 OA
HETATM   11  C22 UNL     1      38.760  23.954   3.325  1.00  0.00     0.091 C
ENDROOT
BRANCH   1  12
HETATM   12  C10 UNL     1      37.588  22.570   4.948  1.00  0.00    -0.014 C
HETATM   13  C8  UNL     1      36.369  22.320   5.398  1.00  0.00    -0.066 C
HETATM   14  C9  UNL     1      36.062  20.856   5.515  1.00  0.00     0.048 C
BRANCH  13  15
HETATM   15  C7  UNL     1      35.450  23.373   5.738  1.00  0.00     0.005 C
HETATM   16  C6  UNL     1      34.902  23.753   6.836  1.00  0.00     0.003 C
BRANCH  16  17
HETATM   17  C5  UNL     1      34.975  23.275   8.221  1.00  0.00     0.128 C
BRANCH  17  18
HETATM   18  C3  UNL     1      35.173  24.429   9.172  1.00  0.00    -0.062 C
HETATM   19  C2  UNL     1      35.434  25.654   8.763  1.00  0.00    -0.026 C
HETATM   20  C1  UNL     1      35.635  26.810   9.640  1.00  0.00     0.036 C
HETATM   21  C4  UNL     1      35.068  24.154  10.619  1.00  0.00     0.045 C
ENDBRANCH  17  18
BRANCH  17  22
HETATM   22  N2  UNL     1      34.015  22.353   8.648  1.00  0.00    -0.407 N
ATOM     23  H2  UNL     1      34.231  21.844   9.505  1.00  0.00     0.154 HD
BRANCH  22  24
HETATM   24  C23 UNL     1      32.817  22.051   8.053  1.00  0.00     0.069 C
HETATM   25  C24 UNL     1      31.541  22.222   8.847  1.00  0.00     0.031 C
HETATM   26  C25 UNL     1      32.661  20.738   7.314  1.00  0.00     0.031 C
ENDBRANCH  22  24
ENDBRANCH  17  22
ENDBRANCH  16  17
ENDBRANCH  13  15
ENDBRANCH   1  12
BRANCH   8  27
HETATM   27  C18 UNL     1      42.196  23.723   1.872  1.00  0.00     0.184 C
HETATM   28  C19 UNL     1      42.861  25.023   1.423  1.00  0.00     0.044 C
BRANCH  27  29
HETATM   29  C20 UNL     1      42.222  22.773   0.740  1.00  0.00     0.196 C
HETATM   30  O1  UNL     1      42.410  21.562   0.973  1.00  0.00    -0.646 OA
HETATM   31  O2  UNL     1      42.042  23.215  -0.554  1.00  0.00    -0.646 OA
ENDBRANCH  27  29
ENDBRANCH   8  27
TORSDOF 8
ENDMDL