MODEL 1
REMARK VINA RESULT: -8.869053530      0.000      0.000
REMARK  8 active torsions:
REMARK  status: ('A' for Active; 'I' for Inactive)
REMARK    1  A    between atoms: C3_3  and  C4_4
REMARK    2  A    between atoms: C5_5  and  C7_7
REMARK    3  A    between atoms: C7_7  and  C8_8
REMARK    4  A    between atoms: C8_8  and  C9_9
REMARK    5  A    between atoms: C9_9  and  C10_10
REMARK    6  A    between atoms: C10_10  and  C12_12
REMARK    7  A    between atoms: C18_20  and  C19_21
REMARK    8  A    between atoms: C21_23  and  C22_24
REMARK       I    between atoms: C22_24  and  N1_26
ROOT
HETATM    1  C1  UNL     1      28.793  21.318  14.513  1.00  0.00     0.112 C
HETATM    2  C2  UNL     1      29.490  20.970  13.258  1.00  0.00    -0.106 C
HETATM    3  C3  UNL     1      30.076  20.690  12.244  1.00  0.00    -0.079 C
ENDROOT
BRANCH   3   4
HETATM    4  C4  UNL     1      30.791  20.373  11.044  1.00  0.00     0.067 C
HETATM    5  C5  UNL     1      31.230  21.368  10.297  1.00  0.00    -0.076 C
HETATM    6  C6  UNL     1      30.992  22.776  10.686  1.00  0.00     0.044 C
BRANCH   5   7
HETATM    7  C7  UNL     1      31.961  21.077   9.068  1.00  0.00     0.034 C
BRANCH   7   8
HETATM    8  C8  UNL     1      33.379  21.702   9.071  1.00  0.00     0.005 C
BRANCH   8   9
HETATM    9  C9  UNL     1      33.354  22.761   8.054  1.00  0.00     0.011 C
BRANCH   9  10
HETATM   10  C10 UNL     1      34.106  22.549   6.769  1.00  0.00     0.039 C
HETATM   11  C11 UNL     1      33.129  22.013   5.814  1.00  0.00     0.017 C
BRANCH  10  12
HETATM   12  C12 UNL     1      34.985  23.676   6.409  1.00  0.00     0.064 C
HETATM   13  O1  UNL     1      35.160  24.467   7.567  1.00  0.00    -0.279 OA
HETATM   14  C13 UNL     1      36.203  24.452   8.458  1.00  0.00     0.287 C
HETATM   15  O2  UNL     1      36.043  24.295   9.702  1.00  0.00    -0.260 OA
HETATM   16  C14 UNL     1      37.607  24.616   8.077  1.00  0.00     0.079 C
HETATM   17  C15 UNL     1      38.089  24.656   6.849  1.00  0.00    -0.006 C
HETATM   18  C16 UNL     1      37.303  24.539   5.618  1.00  0.00     0.007 C
HETATM   19  C17 UNL     1      36.834  25.899   5.195  1.00  0.00     0.025 C
HETATM   20  C18 UNL     1      38.107  23.936   4.487  1.00  0.00     0.031 C
HETATM   21  C26 UNL     1      36.167  23.534   5.633  1.00  0.00    -0.037 C
HETATM   22  C24 UNL     1      38.293  22.538   5.039  1.00  0.00     0.015 C
HETATM   23  C25 UNL     1      36.848  22.205   5.451  1.00  0.00     0.038 C
BRANCH  20  24
HETATM   24  C19 UNL     1      39.370  24.579   4.135  1.00  0.00    -0.073 C
HETATM   25  C20 UNL     1      39.517  25.661   3.152  1.00  0.00     0.044 C
HETATM   26  C21 UNL     1      40.445  24.120   4.710  1.00  0.00     0.076 C
BRANCH  26  27
HETATM   27  C22 UNL     1      41.771  24.641   4.479  1.00  0.00     0.241 C
HETATM   28  O3  UNL     1      42.270  25.676   4.986  1.00  0.00    -0.269 OA
HETATM   29  N1  UNL     1      42.679  23.947   3.575  1.00  0.00    -0.362 N
HETATM   30  C23 UNL     1      43.985  24.468   3.353  1.00  0.00     0.149 C
ATOM     31  H1  UNL     1      42.381  23.092   3.105  1.00  0.00     0.162 HD
ENDBRANCH  26  27
ENDBRANCH  20  24
ENDBRANCH  10  12
ENDBRANCH   9  10
ENDBRANCH   8   9
ENDBRANCH   7   8
ENDBRANCH   5   7
ENDBRANCH   3   4
TORSDOF 8
ENDMDL