MODEL 1
REMARK VINA RESULT: -8.195259287      0.000      0.000
REMARK  7 active torsions:
REMARK  status: ('A' for Active; 'I' for Inactive)
REMARK    1  A    between atoms: C2_2  and  C3_3
REMARK       I    between atoms: C3_3  and  N1_5
REMARK    2  A    between atoms: N1_5  and  C4_7
REMARK    3  A    between atoms: C4_7  and  C5_8
REMARK    4  A    between atoms: C5_8  and  N2_9
REMARK    5  A    between atoms: C8_15  and  C9_16
REMARK    6  A    between atoms: C9_16  and  C10_17
REMARK    7  A    between atoms: C18_25  and  C19_26
ROOT
HETATM    1  C4  UNL     1      36.936  24.984   5.853  1.00  0.00     0.065 C
HETATM    2  C16 UNL     1      38.333  25.521   5.538  1.00  0.00     0.037 C
HETATM    3  C17 UNL     1      39.422  24.557   5.419  1.00  0.00     0.008 C
HETATM    4  C18 UNL     1      39.145  23.144   5.102  1.00  0.00    -0.011 C
HETATM    5  C22 UNL     1      37.704  22.786   4.962  1.00  0.00     0.008 C
HETATM    6  C23 UNL     1      36.760  23.868   4.755  1.00  0.00     0.037 C
ENDROOT
BRANCH   1   7
HETATM    7  N1  UNL     1      36.018  26.021   5.464  1.00  0.00    -0.347 N
HETATM    8  C3  UNL     1      35.971  27.345   5.915  1.00  0.00     0.218 C
HETATM    9  O1  UNL     1      36.783  27.814   6.753  1.00  0.00    -0.274 OA
ATOM     10  H1  UNL     1      35.315  25.759   4.774  1.00  0.00     0.163 HD
BRANCH   8  11
HETATM   11  C2  UNL     1      34.923  28.275   5.401  1.00  0.00     0.098 C
HETATM   12  C1  UNL     1      33.983  28.587   6.520  1.00  0.00     0.014 C
ENDBRANCH   8  11
ENDBRANCH   1   7
BRANCH   1  13
HETATM   13  C5  UNL     1      36.818  24.302   7.118  1.00  0.00     0.098 C
BRANCH  13  14
HETATM   14  N2  UNL     1      36.358  24.831   8.348  1.00  0.00    -0.329 N
HETATM   15  C6  UNL     1      37.119  25.775   9.143  1.00  0.00     0.174 C
HETATM   16  S1  UNL     1      38.727  25.934   9.186  1.00  0.00    -0.041 SA
HETATM   17  N3  UNL     1      36.184  26.546   9.887  1.00  0.00    -0.365 N
HETATM   18  C7  UNL     1      34.925  25.803   9.986  1.00  0.00     0.147 C
ATOM     19  H3  UNL     1      36.361  27.468  10.288  1.00  0.00     0.161 HD
HETATM   20  C8  UNL     1      35.120  24.636   9.104  1.00  0.00     0.109 C
BRANCH  20  21
HETATM   21  C9  UNL     1      35.056  23.287   9.723  1.00  0.00     0.032 C
BRANCH  21  22
HETATM   22  C10 UNL     1      33.969  22.360   9.389  1.00  0.00    -0.013 C
HETATM   23  C11 UNL     1      32.589  22.916   9.257  1.00  0.00     0.005 C
HETATM   24  C12 UNL     1      31.717  21.979   8.383  1.00  0.00     0.000 C
HETATM   25  C13 UNL     1      32.156  21.979   6.959  1.00  0.00     0.000 C
HETATM   26  C14 UNL     1      33.628  22.303   6.904  1.00  0.00     0.000 C
HETATM   27  C15 UNL     1      34.332  21.663   8.079  1.00  0.00     0.005 C
ENDBRANCH  21  22
ENDBRANCH  20  21
ENDBRANCH  13  14
ENDBRANCH   1  13
BRANCH   4  28
HETATM   28  C19 UNL     1      39.965  22.579   3.955  1.00  0.00    -0.019 C
HETATM   29  C20 UNL     1      41.072  23.490   3.535  1.00  0.00     0.010 C
HETATM   30  C21 UNL     1      39.152  22.143   2.781  1.00  0.00     0.010 C
ENDBRANCH   4  28
TORSDOF 7
ENDMDL