MODEL 5
REMARK VINA RESULT: -7.760710186      2.505      5.909
REMARK  9 active torsions:
REMARK  status: ('A' for Active; 'I' for Inactive)
REMARK    1  A    between atoms: C2_2  and  C3_3
REMARK    2  A    between atoms: C3_3  and  C4_4
REMARK    3  A    between atoms: C4_4  and  C5_5
REMARK    4  A    between atoms: C5_5  and  C6_6
REMARK    5  A    between atoms: C6_6  and  C7_7
REMARK    6  A    between atoms: C7_7  and  C8_8
REMARK       I    between atoms: C8_8  and  N1_10
REMARK    7  A    between atoms: C11_13  and  N2_14
REMARK       I    between atoms: N3_21  and  C18_23
REMARK    8  A    between atoms: N5_25  and  C19_27
REMARK    9  A    between atoms: C19_27  and  C20_31
ROOT
HETATM    1  C8  UNL     1      34.786  21.848   6.665  1.00  0.00     0.220 C
HETATM    2  O1  UNL     1      34.654  21.474   5.481  1.00  0.00    -0.273 OA
HETATM    3  N1  UNL     1      35.494  23.049   6.935  1.00  0.00    -0.347 N
HETATM    4  C9  UNL     1      35.664  23.497   8.278  1.00  0.00     0.128 C
HETATM    5  C10 UNL     1      36.809  24.416   8.536  1.00  0.00     0.062 C
HETATM    6  C11 UNL     1      36.940  25.486   7.443  1.00  0.00     0.271 C
HETATM    7  C17 UNL     1      37.101  24.706   6.176  1.00  0.00     0.040 C
HETATM    8  N3  UNL     1      38.126  24.780   5.404  1.00  0.00    -0.334 N
ATOM      9  H3  UNL     1      38.889  25.407   5.657  1.00  0.00     0.168 HD
HETATM   10  C18 UNL     1      38.231  24.017   4.209  1.00  0.00     0.193 C
HETATM   11  N4  UNL     1      37.472  24.395   3.078  1.00  0.00    -0.063 NA
HETATM   12  N5  UNL     1      38.999  22.993   4.128  1.00  0.00    -0.320 N
ATOM     13  H5  UNL     1      39.527  22.763   4.971  1.00  0.00     0.169 HD
HETATM   14  C22 UNL     1      36.017  23.772   5.776  1.00  0.00     0.180 C
ENDROOT
BRANCH   6  15
HETATM   15  N2  UNL     1      38.053  26.351   7.687  1.00  0.00     0.098 N
HETATM   16  C12 UNL     1      38.560  26.166   9.041  1.00  0.00     0.273 C
HETATM   17  C13 UNL     1      39.772  27.112   9.129  1.00  0.00     0.030 C
HETATM   18  C14 UNL     1      39.197  28.487   9.335  1.00  0.00     0.003 C
HETATM   19  C15 UNL     1      37.898  28.612   8.654  1.00  0.00     0.030 C
HETATM   20  C16 UNL     1      37.624  27.719   7.493  1.00  0.00     0.273 C
ENDBRANCH   6  15
BRANCH  12  21
HETATM   21  C19 UNL     1      39.202  22.156   3.034  1.00  0.00     0.076 C
HETATM   22  N6  UNL     1      38.338  21.229   2.783  1.00  0.00    -0.389 N
ATOM     23  H62 UNL     1      37.534  21.150   3.406  1.00  0.00     0.157 HD
ATOM     24  H61 UNL     1      38.487  20.616   1.982  1.00  0.00     0.157 HD
BRANCH  21  25
HETATM   25  C20 UNL     1      40.383  22.271   2.119  1.00  0.00     0.071 C
HETATM   26  C21 UNL     1      41.518  22.872   2.915  1.00  0.00     0.013 C
ENDBRANCH  21  25
ENDBRANCH  12  21
BRANCH   1  27
HETATM   27  C7  UNL     1      34.231  21.082   7.796  1.00  0.00     0.103 C
BRANCH  27  28
HETATM   28  C6  UNL     1      32.764  20.803   7.696  1.00  0.00     0.009 C
BRANCH  28  29
HETATM   29  C5  UNL     1      31.981  22.069   7.628  1.00  0.00     0.000 C
BRANCH  29  30
HETATM   30  C4  UNL     1      31.187  22.265   8.905  1.00  0.00     0.000 C
BRANCH  30  31
HETATM   31  C3  UNL     1      31.955  23.035   9.947  1.00  0.00    -0.000 C
BRANCH  31  32
HETATM   32  C2  UNL     1      31.061  23.296  11.145  1.00  0.00    -0.005 C
HETATM   33  C1  UNL     1      31.728  24.222  12.137  1.00  0.00     0.005 C
ENDBRANCH  31  32
ENDBRANCH  30  31
ENDBRANCH  29  30
ENDBRANCH  28  29
ENDBRANCH  27  28
ENDBRANCH   1  27
TORSDOF 9
ENDMDL