MODEL 5
REMARK VINA RESULT: -9.468717826      1.267      2.357
REMARK  7 active torsions:
REMARK  status: ('A' for Active; 'I' for Inactive)
REMARK    1  A    between atoms: C4_4  and  C5_5
REMARK       I    between atoms: C5_5  and  N1_7
REMARK    2  A    between atoms: N1_7  and  C6_9
REMARK    3  A    between atoms: C6_9  and  C7_10
REMARK    4  A    between atoms: C6_9  and  C11_14
REMARK    5  A    between atoms: C7_10  and  C8_11
REMARK    6  A    between atoms: C16_19  and  C17_20
REMARK       I    between atoms: C17_20  and  N2_22
REMARK    7  A    between atoms: N2_22  and  C18_24
ROOT
HETATM    1  C1  UNL     1      32.038  21.735   6.222  1.00  0.00     0.049 C
HETATM    2  C2  UNL     1      32.589  22.238   7.488  1.00  0.00    -0.045 A
HETATM    3  C3  UNL     1      31.757  22.195   8.585  1.00  0.00     0.024 A
HETATM    4  C4  UNL     1      32.146  22.676   9.823  1.00  0.00     0.032 A
HETATM    5  C14 UNL     1      33.404  23.208   9.920  1.00  0.00     0.018 A
HETATM    6  C15 UNL     1      34.229  23.244   8.809  1.00  0.00     0.018 A
HETATM    7  C16 UNL     1      33.849  22.758   7.554  1.00  0.00     0.037 A
ENDROOT
BRANCH   7   8
HETATM    8  C17 UNL     1      34.852  22.782   6.521  1.00  0.00     0.252 C
HETATM    9  O2  UNL     1      34.597  22.073   5.483  1.00  0.00    -0.268 OA
HETATM   10  N2  UNL     1      36.043  23.534   6.619  1.00  0.00    -0.348 N
ATOM     11  H2  UNL     1      36.181  24.089   7.463  1.00  0.00     0.163 HD
BRANCH  10  12
HETATM   12  C18 UNL     1      37.085  23.580   5.610  1.00  0.00     0.034 C
HETATM   13  C19 UNL     1      36.639  24.369   4.409  1.00  0.00     0.035 C
HETATM   14  C20 UNL     1      37.811  24.621   3.483  1.00  0.00    -0.012 C
HETATM   15  C21 UNL     1      38.946  25.346   4.187  1.00  0.00     0.009 C
HETATM   16  C25 UNL     1      38.268  23.269   2.981  1.00  0.00     0.009 C
HETATM   17  C22 UNL     1      39.435  24.446   5.289  1.00  0.00    -0.012 C
HETATM   18  C23 UNL     1      39.878  23.086   4.794  1.00  0.00     0.009 C
HETATM   19  C27 UNL     1      38.321  24.230   6.254  1.00  0.00     0.035 C
HETATM   20  C24 UNL     1      38.677  22.421   4.170  1.00  0.00    -0.012 C
HETATM   21  C26 UNL     1      37.535  22.222   5.148  1.00  0.00     0.035 C
ENDBRANCH  10  12
ENDBRANCH   7   8
BRANCH   4  22
HETATM   22  C5  UNL     1      31.278  22.601  10.975  1.00  0.00     0.252 C
HETATM   23  O1  UNL     1      30.842  23.681  11.440  1.00  0.00    -0.268 OA
HETATM   24  N1  UNL     1      30.920  21.390  11.565  1.00  0.00    -0.352 N
ATOM     25  H1  UNL     1      31.273  20.505  11.203  1.00  0.00     0.163 HD
BRANCH  24  26
HETATM   26  C6  UNL     1      30.023  21.428  12.722  1.00  0.00     0.089 C
BRANCH  26  27
HETATM   27  C7  UNL     1      30.844  21.527  13.986  1.00  0.00     0.030 C
BRANCH  27  28
HETATM   28  C8  UNL     1      30.376  22.703  14.799  1.00  0.00    -0.013 A
HETATM   29  C9  UNL     1      31.223  23.165  15.933  1.00  0.00     0.005 A
HETATM   30  C10 UNL     1      31.066  24.003  14.706  1.00  0.00     0.005 A
ENDBRANCH  27  28
ENDBRANCH  26  27
BRANCH  26  31
HETATM   31  C11 UNL     1      29.219  20.141  12.797  1.00  0.00     0.008 A
HETATM   32  C12 UNL     1      29.492  19.104  11.788  1.00  0.00     0.007 A
HETATM   33  C13 UNL     1      28.233  19.907  11.693  1.00  0.00     0.007 A
ENDBRANCH  26  31
ENDBRANCH  24  26
ENDBRANCH   4  22
TORSDOF 7
ENDMDL