MODEL 5
REMARK VINA RESULT: -5.462161932      0.946      1.726
REMARK  5 active torsions:
REMARK  status: ('A' for Active; 'I' for Inactive)
REMARK    1  A    between atoms: N1_2  and  C2_4
REMARK    2  A    between atoms: C3_7  and  N3_8
REMARK    3  A    between atoms: C10_19  and  N6_20
REMARK    4  A    between atoms: C11_23  and  C12_24
REMARK    5  A    between atoms: C12_24  and  O2_26
ROOT
HETATM    1  C2  UNL     1      61.858  65.271  25.228  1.00  0.00     0.136 A
HETATM    2  N2  UNL     1      60.691  65.052  24.533  1.00  0.00    -0.175 N
ATOM      3  H2  UNL     1      60.716  64.466  23.698  1.00  0.00     0.186 HD
HETATM    4  C3  UNL     1      59.533  65.579  24.917  1.00  0.00     0.689 A
HETATM    5  N5  UNL     1      59.529  66.344  26.018  1.00  0.00    -0.175 N
ATOM      6  H5  UNL     1      58.651  66.758  26.328  1.00  0.00     0.186 HD
HETATM    7  C10 UNL     1      60.639  66.583  26.724  1.00  0.00     0.135 A
HETATM    8  C11 UNL     1      61.879  66.045  26.350  1.00  0.00     0.127 A
ENDROOT
BRANCH   4   9
HETATM    9  N3  UNL     1      58.312  65.328  24.190  1.00  0.00    -0.170 N
HETATM   10  C4  UNL     1      57.855  64.053  23.685  1.00  0.00     0.179 C
HETATM   11  C5  UNL     1      56.789  64.431  22.710  1.00  0.00     0.041 C
HETATM   12  C6  UNL     1      55.501  63.664  22.934  1.00  0.00     0.039 C
HETATM   13  C7  UNL     1      57.315  64.196  21.332  1.00  0.00     0.039 C
HETATM   14  N4  UNL     1      56.489  65.815  23.004  1.00  0.00    -0.369 N
HETATM   15  C8  UNL     1      57.345  66.302  23.830  1.00  0.00     0.092 C
ATOM     16  H4  UNL     1      55.705  66.335  22.609  1.00  0.00     0.161 HD
HETATM   17  C9  UNL     1      57.369  67.715  24.374  1.00  0.00     0.089 C
ENDBRANCH   4   9
BRANCH   1  18
HETATM   18  N1  UNL     1      63.053  64.678  24.760  1.00  0.00    -0.379 N
HETATM   19  C1  UNL     1      63.299  63.286  25.112  1.00  0.00     0.147 C
ATOM     20  H1  UNL     1      63.718  65.206  24.195  1.00  0.00     0.160 HD
ENDBRANCH   1  18
BRANCH   7  21
HETATM   21  N6  UNL     1      60.601  67.334  27.796  1.00  0.00    -0.384 N
ATOM     22  H62 UNL     1      59.857  68.029  27.861  1.00  0.00     0.157 HD
ATOM     23  H61 UNL     1      61.295  67.223  28.535  1.00  0.00     0.157 HD
ENDBRANCH   7  21
BRANCH   8  24
HETATM   24  C12 UNL     1      63.027  66.367  27.175  1.00  0.00     0.300 C
HETATM   25  O1  UNL     1      64.122  66.738  26.609  1.00  0.00    -0.259 OA
BRANCH  24  26
HETATM   26  O2  UNL     1      63.102  66.327  28.541  1.00  0.00    -0.322 OA
HETATM   27  C13 UNL     1      64.138  66.979  29.247  1.00  0.00     0.213 C
ENDBRANCH  24  26
ENDBRANCH   8  24
TORSDOF 5
ENDMDL