MODEL 2
REMARK VINA RESULT: -5.343721352      2.451      6.205
REMARK  5 active torsions:
REMARK  status: ('A' for Active; 'I' for Inactive)
REMARK    1  A    between atoms: N1_2  and  C2_4
REMARK    2  A    between atoms: C4_8  and  C5_9
REMARK    3  A    between atoms: C5_9  and  O2_11
REMARK    4  A    between atoms: C10_20  and  C11_21
REMARK    5  A    between atoms: C11_21  and  O5_23
ROOT
HETATM    1  C2  UNL     1      57.314  66.341  24.198  1.00  0.00     0.124 A
HETATM    2  N2  UNL     1      58.367  66.558  25.056  1.00  0.00    -0.325 N
ATOM      3  H2  UNL     1      58.240  67.213  25.827  1.00  0.00     0.169 HD
HETATM    4  C3  UNL     1      59.551  65.947  24.923  1.00  0.00     0.150 A
HETATM    5  C4  UNL     1      60.711  66.031  25.670  1.00  0.00     0.109 A
HETATM    6  C7  UNL     1      61.609  65.176  25.068  1.00  0.00     0.043 A
HETATM    7  C8  UNL     1      62.994  64.941  25.528  1.00  0.00     0.071 C
HETATM    8  N3  UNL     1      61.009  64.611  24.014  1.00  0.00    -0.293 N
ATOM      9  H3  UNL     1      61.441  63.934  23.385  1.00  0.00     0.187 HD
HETATM   10  N4  UNL     1      59.753  65.069  23.910  1.00  0.00    -0.202 N
HETATM   11  C9  UNL     1      58.750  64.849  23.074  1.00  0.00     0.288 A
HETATM   12  O3  UNL     1      58.925  64.036  22.129  1.00  0.00    -0.265 OA
HETATM   13  C10 UNL     1      57.483  65.468  23.172  1.00  0.00     0.152 A
ENDROOT
BRANCH   5  14
HETATM   14  C5  UNL     1      60.943  66.860  26.860  1.00  0.00     0.298 C
HETATM   15  O1  UNL     1      61.717  67.849  26.779  1.00  0.00    -0.259 OA
BRANCH  14  16
HETATM   16  O2  UNL     1      60.365  66.631  28.090  1.00  0.00    -0.322 OA
HETATM   17  C6  UNL     1      60.099  65.306  28.554  1.00  0.00     0.213 C
ENDBRANCH  14  16
ENDBRANCH   5  14
BRANCH   1  18
HETATM   18  N1  UNL     1      56.129  67.039  24.441  1.00  0.00    -0.380 N
HETATM   19  C1  UNL     1      56.033  68.485  24.165  1.00  0.00     0.147 C
ATOM     20  H1  UNL     1      55.319  66.544  24.814  1.00  0.00     0.160 HD
ENDBRANCH   1  18
BRANCH  13  21
HETATM   21  C11 UNL     1      56.456  65.160  22.212  1.00  0.00     0.302 C
HETATM   22  O4  UNL     1      56.037  66.138  21.502  1.00  0.00    -0.259 OA
BRANCH  21  23
HETATM   23  O5  UNL     1      55.882  63.971  21.967  1.00  0.00    -0.322 OA
HETATM   24  C12 UNL     1      55.416  63.052  22.935  1.00  0.00     0.213 C
ENDBRANCH  21  23
ENDBRANCH  13  21
TORSDOF 5
ENDMDL