MODEL 3
REMARK VINA RESULT: -4.772877790      1.211      1.272
REMARK  5 active torsions:
REMARK  status: ('A' for Active; 'I' for Inactive)
REMARK    1  A    between atoms: O1_2  and  C2_3
REMARK    2  A    between atoms: C2_3  and  C3_5
REMARK    3  A    between atoms: C3_5  and  O3_25
REMARK    4  A    between atoms: C4_6  and  C5_7
REMARK    5  A    between atoms: C6_8  and  C7_9
ROOT
HETATM    1  C5  UNL     1      60.432  65.206  26.226  1.00  0.00     0.064 C
HETATM    2  C6  UNL     1      61.017  65.738  27.490  1.00  0.00     0.080 C
HETATM    3  C8  UNL     1      61.342  64.565  28.351  1.00  0.00     0.010 C
HETATM    4  N2  UNL     1      62.183  64.515  29.308  1.00  0.00    -0.404 N
ATOM      5  H21 UNL     1      62.405  63.712  29.897  1.00  0.00     0.155 HD
ATOM      6  H22 UNL     1      62.774  65.277  29.641  1.00  0.00     0.155 HD
HETATM    7  C9  UNL     1      60.482  63.457  27.865  1.00  0.00     0.176 C
HETATM    8  C10 UNL     1      59.151  63.536  28.434  1.00  0.00     0.072 C
HETATM    9  N3  UNL     1      58.075  63.582  28.887  1.00  0.00    -0.196 NA
HETATM   10  C11 UNL     1      60.481  63.709  26.366  1.00  0.00     0.166 C
HETATM   11  C12 UNL     1      59.355  63.045  25.763  1.00  0.00     0.087 C
HETATM   12  N4  UNL     1      58.451  62.513  25.279  1.00  0.00    -0.195 NA
HETATM   13  C13 UNL     1      61.733  63.154  25.845  1.00  0.00     0.087 C
HETATM   14  N5  UNL     1      62.717  62.712  25.446  1.00  0.00    -0.195 NA
ENDROOT
BRANCH   2  15
HETATM   15  C7  UNL     1      60.128  66.622  28.252  1.00  0.00     0.064 C
HETATM   16  N1  UNL     1      60.626  67.343  29.176  1.00  0.00    -0.410 N
ATOM     17  H12 UNL     1      61.626  67.295  29.370  1.00  0.00     0.155 HD
ATOM     18  H11 UNL     1      60.008  67.958  29.705  1.00  0.00     0.155 HD
ENDBRANCH   2  15
BRANCH   1  19
HETATM   19  C4  UNL     1      59.111  65.723  25.888  1.00  0.00     0.025 C
HETATM   20  C3  UNL     1      58.728  65.942  24.646  1.00  0.00     0.140 C
BRANCH  20  21
HETATM   21  C2  UNL     1      57.411  66.457  24.314  1.00  0.00     0.316 C
HETATM   22  O2  UNL     1      56.374  65.784  24.413  1.00  0.00    -0.257 OA
BRANCH  21  23
HETATM   23  O1  UNL     1      57.326  67.762  23.868  1.00  0.00    -0.321 OA
HETATM   24  C1  UNL     1      56.181  68.574  24.085  1.00  0.00     0.213 C
ENDBRANCH  21  23
ENDBRANCH  20  21
BRANCH  20  25
HETATM   25  O3  UNL     1      59.599  65.679  23.598  1.00  0.00    -0.350 OA
HETATM   26  C14 UNL     1      59.323  64.819  22.531  1.00  0.00     0.210 C
ENDBRANCH  20  25
ENDBRANCH   1  19
TORSDOF 5
ENDMDL