MODEL 1
REMARK VINA RESULT: -6.739368006      0.000      0.000
REMARK  5 active torsions:
REMARK  status: ('A' for Active; 'I' for Inactive)
REMARK    1  A    between atoms: C2_2  and  C3_3
REMARK    2  A    between atoms: C3_3  and  O1_4
REMARK    3  A    between atoms: O1_4  and  C4_5
REMARK       I    between atoms: C4_5  and  N1_7
REMARK    4  A    between atoms: C5_10  and  C6_11
REMARK    5  A    between atoms: C11_22  and  N5_23
ROOT
HETATM    1  C4  UNL     1      56.385  70.347  22.463  1.00  0.00     0.401 C
HETATM    2  O2  UNL     1      55.527  69.610  21.835  1.00  0.00    -0.235 OA
HETATM    3  N1  UNL     1      56.833  71.541  21.827  1.00  0.00    -0.025 N
HETATM    4  N2  UNL     1      56.315  71.806  20.611  1.00  0.00    -0.270 N
ATOM      5  H2  UNL     1      55.638  71.155  20.214  1.00  0.00     0.188 HD
HETATM    6  C5  UNL     1      56.654  72.895  19.902  1.00  0.00     0.120 A
HETATM    7  C10 UNL     1      57.563  73.798  20.406  1.00  0.00     0.287 A
HETATM    8  O3  UNL     1      57.908  74.842  19.770  1.00  0.00    -0.265 OA
HETATM    9  N4  UNL     1      58.077  73.542  21.605  1.00  0.00    -0.153 N
ATOM     10  H4  UNL     1      58.753  74.189  22.009  1.00  0.00     0.187 HD
HETATM   11  C11 UNL     1      57.710  72.416  22.308  1.00  0.00     0.705 A
ENDROOT
BRANCH   6  12
HETATM   12  C6  UNL     1      56.024  73.119  18.620  1.00  0.00     0.073 C
HETATM   13  C7  UNL     1      54.936  73.789  18.375  1.00  0.00     0.068 C
HETATM   14  N3  UNL     1      54.314  74.006  17.105  1.00  0.00    -0.384 N
HETATM   15  S1  UNL     1      53.866  74.710  19.519  1.00  0.00    -0.111 SA
HETATM   16  C8  UNL     1      52.909  74.277  17.215  1.00  0.00     0.131 C
ATOM     17  H3  UNL     1      54.815  73.973  16.217  1.00  0.00     0.160 HD
HETATM   18  C9  UNL     1      52.789  75.442  18.213  1.00  0.00     0.100 C
ENDBRANCH   6  12
BRANCH   1  19
HETATM   19  O1  UNL     1      56.739  69.851  23.678  1.00  0.00    -0.302 OA
BRANCH  19  20
HETATM   20  C3  UNL     1      56.172  68.800  24.391  1.00  0.00     0.180 C
BRANCH  20  21
HETATM   21  C2  UNL     1      56.679  67.436  24.080  1.00  0.00     0.022 C
HETATM   22  C1  UNL     1      55.597  66.485  23.629  1.00  0.00     0.007 C
ENDBRANCH  20  21
ENDBRANCH  19  20
ENDBRANCH   1  19
BRANCH  11  23
HETATM   23  N5  UNL     1      58.247  72.245  23.442  1.00  0.00    -0.233 N
ATOM     24  H52 UNL     1      57.675  71.808  24.165  1.00  0.00     0.174 HD
ATOM     25  H51 UNL     1      59.209  72.535  23.617  1.00  0.00     0.174 HD
ENDBRANCH  11  23
TORSDOF 5
ENDMDL