MODEL 5
REMARK VINA RESULT: -7.076624158      2.677      4.110
REMARK  4 active torsions:
REMARK  status: ('A' for Active; 'I' for Inactive)
REMARK    1  A    between atoms: C2_5  and  S1_6
REMARK    2  A    between atoms: S1_6  and  N3_9
REMARK    3  A    between atoms: C9_22  and  N6_23
REMARK    4  A    between atoms: N6_23  and  O4_25
ROOT
HETATM    1  N1  UNL     1      59.583  72.765  22.593  1.00  0.00    -0.080 NA
HETATM    2  C1  UNL     1      58.333  72.295  22.077  1.00  0.00     0.152 A
HETATM    3  N2  UNL     1      57.606  71.373  22.726  1.00  0.00    -0.318 N
ATOM      4  H2  UNL     1      57.952  70.996  23.609  1.00  0.00     0.169 HD
HETATM    5  C2  UNL     1      56.431  70.933  22.238  1.00  0.00     0.228 A
HETATM    6  N5  UNL     1      56.015  71.457  21.072  1.00  0.00    -0.296 N
ATOM      7  H5  UNL     1      55.127  71.137  20.686  1.00  0.00     0.171 HD
HETATM    8  C8  UNL     1      56.711  72.379  20.390  1.00  0.00     0.279 A
HETATM    9  O3  UNL     1      56.314  72.864  19.300  1.00  0.00    -0.265 OA
HETATM   10  C9  UNL     1      57.916  72.844  20.873  1.00  0.00     0.163 A
ENDROOT
BRANCH   5  11
HETATM   11  S1  UNL     1      55.473  69.730  23.074  1.00  0.00     0.296 S
HETATM   12  O1  UNL     1      54.011  70.100  22.912  1.00  0.00    -0.197 OA
HETATM   13  O2  UNL     1      55.762  69.757  24.536  1.00  0.00    -0.197 OA
BRANCH  11  14
HETATM   14  N3  UNL     1      55.773  68.194  22.359  1.00  0.00    -0.267 N
HETATM   15  C3  UNL     1      56.702  67.414  22.788  1.00  0.00     0.086 C
HETATM   16  C4  UNL     1      56.853  66.115  22.078  1.00  0.00     0.077 C
HETATM   17  N4  UNL     1      57.522  67.784  23.869  1.00  0.00    -0.379 N
HETATM   18  C5  UNL     1      57.681  65.139  22.876  1.00  0.00     0.009 C
HETATM   19  C6  UNL     1      57.594  65.386  24.364  1.00  0.00     0.020 C
HETATM   20  C7  UNL     1      58.061  66.771  24.747  1.00  0.00     0.121 C
ATOM     21  H4  UNL     1      57.736  68.768  24.034  1.00  0.00     0.160 HD
ATOM     22  H3  UNL     1      55.197  67.894  21.573  1.00  0.00     0.180 HD
ENDBRANCH  11  14
ENDBRANCH   5  11
BRANCH  10  23
HETATM   23  N6  UNL     1      58.705  73.820  20.206  1.00  0.00    -0.261 N
ATOM     24  H6  UNL     1      58.276  74.600  19.708  1.00  0.00     0.194 HD
BRANCH  23  25
HETATM   25  O4  UNL     1      59.946  73.683  20.254  1.00  0.00    -0.289 OA
ATOM     26  H4  UNL     1      60.475  74.469  20.183  1.00  0.00     0.244 HD
ENDBRANCH  23  25
ENDBRANCH  10  23
TORSDOF 4
ENDMDL