MODEL 2
REMARK VINA RESULT: -7.705236761      0.977      1.218
REMARK  4 active torsions:
REMARK  status: ('A' for Active; 'I' for Inactive)
REMARK       I    between atoms: C1_2  and  N1_3
REMARK       I    between atoms: C1_2  and  N4_13
REMARK    1  A    between atoms: N1_3  and  C2_5
REMARK    2  A    between atoms: N4_13  and  N5_15
REMARK    3  A    between atoms: C4_17  and  C5_18
REMARK    4  A    between atoms: C8_21  and  N6_22
ROOT
HETATM    1  O1  UNL     1      57.471  72.977  23.325  1.00  0.00    -0.245 OA
HETATM    2  C1  UNL     1      57.496  72.904  22.072  1.00  0.00     0.340 C
HETATM    3  N1  UNL     1      57.513  74.071  21.287  1.00  0.00    -0.286 N
ATOM      4  H1  UNL     1      58.218  74.797  21.420  1.00  0.00     0.172 HD
HETATM    5  N4  UNL     1      57.510  71.630  21.426  1.00  0.00    -0.252 N
ATOM      6  H4  UNL     1      57.532  71.572  20.407  1.00  0.00     0.191 HD
ENDROOT
BRANCH   5   7
HETATM    7  N5  UNL     1      57.493  70.473  22.189  1.00  0.00    -0.305 N
HETATM    8  C4  UNL     1      56.508  69.640  22.188  1.00  0.00     0.144 C
ATOM      9  H5  UNL     1      58.300  70.269  22.781  1.00  0.00     0.186 HD
BRANCH   8  10
HETATM   10  C5  UNL     1      56.493  68.432  22.987  1.00  0.00     0.095 A
HETATM   11  C6  UNL     1      55.412  67.612  23.188  1.00  0.00     0.043 A
HETATM   12  C7  UNL     1      55.809  66.581  23.999  1.00  0.00     0.065 A
HETATM   13  C8  UNL     1      57.151  66.819  24.267  1.00  0.00     0.215 A
HETATM   14  O4  UNL     1      57.505  67.928  23.642  1.00  0.00    -0.287 OA
BRANCH  13  15
HETATM   15  N6  UNL     1      57.986  66.011  25.070  1.00  0.00    -0.090 N
HETATM   16  O2  UNL     1      57.722  64.801  25.210  1.00  0.00    -0.530 OA
HETATM   17  O3  UNL     1      59.080  66.515  25.700  1.00  0.00    -0.530 OA
ENDBRANCH  13  15
ENDBRANCH   8  10
ENDBRANCH   5   7
BRANCH   3  18
HETATM   18  C2  UNL     1      56.572  74.179  20.373  1.00  0.00     0.170 A
HETATM   19  N2  UNL     1      56.717  74.146  19.048  1.00  0.00    -0.278 N
HETATM   20  N3  UNL     1      55.681  74.266  18.310  1.00  0.00    -0.282 N
ATOM     21  H2  UNL     1      57.640  74.026  18.631  1.00  0.00     0.189 HD
HETATM   22  C3  UNL     1      54.490  74.423  18.889  1.00  0.00     0.160 A
ATOM     23  H3  UNL     1      55.765  74.244  17.293  1.00  0.00     0.188 HD
HETATM   24  S1  UNL     1      53.022  74.599  18.139  1.00  0.00    -0.051 SA
HETATM   25  S2  UNL     1      54.888  74.393  20.548  1.00  0.00    -0.021 SA
ENDBRANCH   3  18
TORSDOF 4
ENDMDL