MODEL 3
REMARK VINA RESULT: -6.370216408      4.145      8.340
REMARK  5 active torsions:
REMARK  status: ('A' for Active; 'I' for Inactive)
REMARK    1  A    between atoms: N1_2  and  C1_4
REMARK    2  A    between atoms: C3_6  and  C4_7
REMARK    3  A    between atoms: N2_8  and  C5_10
REMARK    4  A    between atoms: C9_18  and  O3_19
REMARK    5  A    between atoms: C10_21  and  N5_22
ROOT
HETATM    1  C1  UNL     1      56.493  73.269  19.311  1.00  0.00     0.106 A
HETATM    2  C2  UNL     1      55.990  72.130  19.917  1.00  0.00     0.052 A
HETATM    3  C3  UNL     1      56.470  71.658  21.097  1.00  0.00     0.018 A
HETATM    4  C9  UNL     1      57.518  72.354  21.727  1.00  0.00     0.110 A
HETATM    5  C10 UNL     1      58.051  73.489  21.167  1.00  0.00     0.139 A
HETATM    6  C11 UNL     1      57.518  73.935  19.943  1.00  0.00     0.075 A
ENDROOT
BRANCH   3   7
HETATM    7  C4  UNL     1      55.923  70.452  21.721  1.00  0.00     0.120 C
HETATM    8  N2  UNL     1      56.674  69.467  22.020  1.00  0.00    -0.201 N
ATOM      9  H2  UNL     1      57.671  69.528  21.818  1.00  0.00     0.183 HD
BRANCH   8  10
HETATM   10  C5  UNL     1      56.168  68.294  22.622  1.00  0.00     0.673 C
HETATM   11  N3  UNL     1      55.966  68.236  23.891  1.00  0.00    -0.226 N
HETATM   12  C6  UNL     1      55.444  66.995  24.429  1.00  0.00     0.139 C
ATOM     13  H3  UNL     1      56.166  69.033  24.496  1.00  0.00     0.177 HD
HETATM   14  C7  UNL     1      56.264  65.869  23.838  1.00  0.00     0.040 C
HETATM   15  C8  UNL     1      56.156  65.838  22.349  1.00  0.00     0.139 C
HETATM   16  N4  UNL     1      55.880  67.156  21.812  1.00  0.00    -0.226 N
ATOM     17  H4  UNL     1      55.489  67.267  20.877  1.00  0.00     0.177 HD
ENDBRANCH   8  10
ENDBRANCH   3   7
BRANCH   4  18
HETATM   18  O3  UNL     1      57.937  71.800  22.911  1.00  0.00    -0.357 OA
ATOM     19  H3  UNL     1      57.824  70.859  22.967  1.00  0.00     0.217 HD
ENDBRANCH   4  18
BRANCH   1  20
HETATM   20  N1  UNL     1      55.927  73.671  18.086  1.00  0.00    -0.116 N
HETATM   21  O1  UNL     1      56.443  73.386  17.003  1.00  0.00    -0.532 OA
HETATM   22  O2  UNL     1      54.768  74.397  18.099  1.00  0.00    -0.532 OA
ENDBRANCH   1  20
BRANCH   5  23
HETATM   23  N5  UNL     1      59.094  74.233  21.720  1.00  0.00    -0.113 N
HETATM   24  O4  UNL     1      58.872  75.431  22.068  1.00  0.00    -0.532 OA
HETATM   25  O5  UNL     1      60.335  73.761  21.906  1.00  0.00    -0.532 OA
ENDBRANCH   5  23
TORSDOF 5
ENDMDL