MODEL 1
REMARK VINA RESULT: -5.527862462      0.000      0.000
REMARK  3 active torsions:
REMARK  status: ('A' for Active; 'I' for Inactive)
REMARK    1  A    between atoms: C2_5  and  C3_6
REMARK    2  A    between atoms: C6_17  and  N5_18
REMARK    3  A    between atoms: C11_24  and  N6_25
ROOT
HETATM    1  N1  UNL     1      59.519  66.917  26.528  1.00  0.00    -0.396 N
ATOM      2  H11 UNL     1      58.533  67.168  26.465  1.00  0.00     0.156 HD
ATOM      3  H12 UNL     1      60.072  67.284  27.303  1.00  0.00     0.156 HD
HETATM    4  C1  UNL     1      60.055  66.157  25.642  1.00  0.00     0.079 A
HETATM    5  C2  UNL     1      61.373  65.822  25.726  1.00  0.00     0.061 A
HETATM    6  C5  UNL     1      61.903  64.998  24.762  1.00  0.00     0.108 A
HETATM    7  N4  UNL     1      61.149  64.527  23.749  1.00  0.00    -0.349 N
ATOM      8  H4  UNL     1      61.583  63.918  23.055  1.00  0.00     0.166 HD
HETATM    9  C6  UNL     1      59.826  64.835  23.617  1.00  0.00     0.139 A
HETATM   10  C11 UNL     1      59.296  65.653  24.577  1.00  0.00     0.173 A
ENDROOT
BRANCH   5  11
HETATM   11  C3  UNL     1      62.231  66.351  26.811  1.00  0.00     0.181 A
HETATM   12  N2  UNL     1      63.347  67.082  26.729  1.00  0.00    -0.274 N
HETATM   13  N3  UNL     1      63.784  67.329  27.950  1.00  0.00    -0.243 N
ATOM     14  H2  UNL     1      63.789  67.398  25.865  1.00  0.00     0.189 HD
HETATM   15  C4  UNL     1      62.928  66.740  28.826  1.00  0.00     0.386 A
ATOM     16  H3  UNL     1      64.616  67.867  28.193  1.00  0.00     0.192 HD
HETATM   17  O1  UNL     1      63.027  66.763  30.097  1.00  0.00    -0.236 OA
HETATM   18  O2  UNL     1      62.008  66.164  28.086  1.00  0.00    -0.240 OA
ENDBRANCH   5  11
BRANCH  10  19
HETATM   19  N6  UNL     1      57.939  66.021  24.504  1.00  0.00    -0.109 N
HETATM   20  O4  UNL     1      57.082  65.296  25.009  1.00  0.00    -0.532 OA
HETATM   21  O5  UNL     1      57.584  67.175  23.878  1.00  0.00    -0.532 OA
ENDBRANCH  10  19
BRANCH   9  22
HETATM   22  N5  UNL     1      59.113  64.323  22.533  1.00  0.00    -0.361 N
HETATM   23  C7  UNL     1      59.111  65.066  21.253  1.00  0.00     0.150 C
HETATM   24  C8  UNL     1      58.577  64.263  20.122  1.00  0.00     0.187 C
HETATM   25  O3  UNL     1      57.371  63.635  20.367  1.00  0.00    -0.388 OA
HETATM   26  C9  UNL     1      57.088  63.427  21.682  1.00  0.00     0.187 C
HETATM   27  C10 UNL     1      58.333  63.104  22.515  1.00  0.00     0.150 C
ENDBRANCH   9  22
TORSDOF 3
ENDMDL