MODEL 1
REMARK VINA RESULT: -5.890992696      0.000      0.000
REMARK  5 active torsions:
REMARK  status: ('A' for Active; 'I' for Inactive)
REMARK    1  A    between atoms: O1_2  and  C2_3
REMARK    2  A    between atoms: C2_3  and  C3_4
REMARK    3  A    between atoms: C3_4  and  O3_6
REMARK    4  A    between atoms: O3_6  and  N1_7
REMARK       I    between atoms: N1_7  and  C4_9
REMARK    5  A    between atoms: C4_9  and  C5_11
ROOT
HETATM    1  C5  UNL     1      56.917  70.511  22.688  1.00  0.00     0.083 A
HETATM    2  S1  UNL     1      58.029  71.841  22.866  1.00  0.00    -0.076 SA
HETATM    3  C6  UNL     1      57.655  72.708  21.462  1.00  0.00     0.100 A
HETATM    4  C7  UNL     1      56.674  71.954  20.878  1.00  0.00     0.059 A
HETATM    5  C8  UNL     1      56.296  70.824  21.513  1.00  0.00    -0.011 A
HETATM    6  C9  UNL     1      55.214  69.910  20.937  1.00  0.00     0.052 C
HETATM    7  N2  UNL     1      56.202  72.532  19.624  1.00  0.00    -0.372 N
ATOM      8  H2  UNL     1      55.781  71.916  18.929  1.00  0.00     0.161 HD
HETATM    9  C10 UNL     1      56.306  73.929  19.333  1.00  0.00     0.246 C
HETATM   10  N3  UNL     1      57.630  74.479  19.657  1.00  0.00    -0.340 N
ATOM     11  H3  UNL     1      58.119  75.153  19.068  1.00  0.00     0.164 HD
HETATM   12  C11 UNL     1      58.157  73.975  20.880  1.00  0.00     0.262 C
HETATM   13  O5  UNL     1      59.049  74.561  21.508  1.00  0.00    -0.267 OA
ENDROOT
BRANCH   1  14
HETATM   14  C4  UNL     1      56.781  69.399  23.626  1.00  0.00     0.283 C
HETATM   15  N1  UNL     1      57.592  68.287  23.733  1.00  0.00    -0.221 N
ATOM     16  H1  UNL     1      58.397  68.152  23.122  1.00  0.00     0.198 HD
HETATM   17  O4  UNL     1      55.769  69.512  24.434  1.00  0.00    -0.265 OA
BRANCH  15  18
HETATM   18  O3  UNL     1      57.251  67.345  24.731  1.00  0.00    -0.194 OA
BRANCH  18  19
HETATM   19  C3  UNL     1      56.785  66.091  24.439  1.00  0.00     0.304 C
HETATM   20  O2  UNL     1      57.402  65.111  24.946  1.00  0.00    -0.261 OA
BRANCH  19  21
HETATM   21  C2  UNL     1      55.618  65.816  23.579  1.00  0.00     0.280 C
BRANCH  21  22
HETATM   22  O1  UNL     1      55.914  66.150  22.284  1.00  0.00    -0.386 OA
HETATM   23  C1  UNL     1      56.439  65.122  21.529  1.00  0.00     0.202 C
ENDBRANCH  21  22
ENDBRANCH  19  21
ENDBRANCH  18  19
ENDBRANCH  15  18
ENDBRANCH   1  14
TORSDOF 5
ENDMDL