MODEL 3
REMARK VINA RESULT: -5.606916331      2.715      7.925
REMARK  4 active torsions:
REMARK  status: ('A' for Active; 'I' for Inactive)
REMARK    1  A    between atoms: C2_2  and  O1_3
REMARK    2  A    between atoms: O1_3  and  C3_4
REMARK    3  A    between atoms: C3_4  and  C4_6
REMARK    4  A    between atoms: C7_14  and  C8_15
ROOT
HETATM    1  C4  UNL     1      56.935  68.605  23.510  1.00  0.00     0.153 A
HETATM    2  N1  UNL     1      57.631  69.688  23.260  1.00  0.00    -0.339 N
ATOM      3  H1  UNL     1      58.586  69.763  23.611  1.00  0.00     0.167 HD
HETATM    4  C5  UNL     1      57.121  70.667  22.574  1.00  0.00     0.136 A
HETATM    5  C6  UNL     1      57.750  71.881  22.235  1.00  0.00     0.276 A
HETATM    6  O3  UNL     1      58.932  72.131  22.590  1.00  0.00    -0.266 OA
HETATM    7  N2  UNL     1      57.105  72.800  21.523  1.00  0.00    -0.304 N
ATOM      8  H2  UNL     1      57.592  73.667  21.296  1.00  0.00     0.171 HD
HETATM    9  C7  UNL     1      55.821  72.641  21.082  1.00  0.00     0.155 A
HETATM   10  N6  UNL     1      55.215  71.484  21.403  1.00  0.00    -0.332 N
ATOM     11  H6  UNL     1      54.256  71.326  21.092  1.00  0.00     0.168 HD
HETATM   12  C10 UNL     1      55.833  70.522  22.124  1.00  0.00     0.110 A
HETATM   13  S1  UNL     1      55.445  68.969  22.728  1.00  0.00    -0.046 SA
ENDROOT
BRANCH   9  14
HETATM   14  C8  UNL     1      55.151  73.673  20.305  1.00  0.00     0.169 A
HETATM   15  N3  UNL     1      54.978  73.739  18.985  1.00  0.00    -0.289 N
HETATM   16  C9  UNL     1      54.297  74.874  18.667  1.00  0.00     0.340 A
ATOM     17  H3  UNL     1      55.307  73.044  18.315  1.00  0.00     0.172 HD
HETATM   18  O4  UNL     1      53.940  75.298  17.546  1.00  0.00    -0.245 OA
HETATM   19  N4  UNL     1      54.065  75.489  19.828  1.00  0.00    -0.250 N
HETATM   20  N5  UNL     1      54.584  74.760  20.829  1.00  0.00    -0.278 N
ATOM     21  H4  UNL     1      53.570  76.374  19.938  1.00  0.00     0.192 HD
ATOM     22  H5  UNL     1      54.551  74.997  21.821  1.00  0.00     0.189 HD
ENDBRANCH   9  14
BRANCH   1  23
HETATM   23  C3  UNL     1      57.297  67.383  24.254  1.00  0.00     0.317 C
HETATM   24  O2  UNL     1      58.394  67.379  24.861  1.00  0.00    -0.257 OA
BRANCH  23  25
HETATM   25  O1  UNL     1      56.498  66.274  24.306  1.00  0.00    -0.316 OA
BRANCH  25  26
HETATM   26  C2  UNL     1      56.715  65.088  23.580  1.00  0.00     0.175 C
HETATM   27  C1  UNL     1      56.176  65.300  22.179  1.00  0.00     0.034 C
ENDBRANCH  25  26
ENDBRANCH  23  25
ENDBRANCH   1  23
TORSDOF 4
ENDMDL