MODEL 2
REMARK VINA RESULT: -3.982659457      2.187      4.626
REMARK  5 active torsions:
REMARK  status: ('A' for Active; 'I' for Inactive)
REMARK    1  A    between atoms: O1_2  and  C2_3
REMARK    2  A    between atoms: C3_6  and  S1_7
REMARK    3  A    between atoms: C6_12  and  N3_13
REMARK    4  A    between atoms: N3_13  and  N4_15
REMARK    5  A    between atoms: C7_18  and  N5_19
ROOT
HETATM    1  C2  UNL     1      55.616  38.635  21.049  1.00  0.00     0.236 A
HETATM    2  N1  UNL     1      55.254  37.576  21.787  1.00  0.00    -0.313 N
ATOM      3  H1  UNL     1      54.292  37.262  21.914  1.00  0.00     0.170 HD
HETATM    4  C3  UNL     1      56.322  36.986  22.334  1.00  0.00     0.118 A
HETATM    5  C5  UNL     1      57.418  37.709  21.922  1.00  0.00     0.155 A
HETATM    6  N2  UNL     1      58.694  37.387  22.296  1.00  0.00    -0.322 N
ATOM      7  H2  UNL     1      58.812  36.530  22.836  1.00  0.00     0.169 HD
HETATM    8  C6  UNL     1      59.802  38.086  22.024  1.00  0.00     0.166 C
HETATM    9  C7  UNL     1      59.900  39.333  21.460  1.00  0.00     0.149 C
HETATM   10  N6  UNL     1      58.996  40.005  20.713  1.00  0.00    -0.291 N
ATOM     11  H6  UNL     1      59.321  40.854  20.251  1.00  0.00     0.172 HD
HETATM   12  C8  UNL     1      57.712  39.664  20.521  1.00  0.00     0.337 C
HETATM   13  O2  UNL     1      57.082  40.307  19.643  1.00  0.00    -0.246 OA
HETATM   14  N7  UNL     1      56.976  38.722  21.133  1.00  0.00    -0.210 N
ENDROOT
BRANCH   8  15
HETATM   15  N3  UNL     1      60.892  37.507  22.334  1.00  0.00    -0.289 N
ATOM     16  H3  UNL     1      60.941  37.086  23.262  1.00  0.00     0.188 HD
BRANCH  15  17
HETATM   17  N4  UNL     1      62.024  37.393  21.531  1.00  0.00    -0.344 N
ATOM     18  H42 UNL     1      61.871  36.990  20.606  1.00  0.00     0.176 HD
ATOM     19  H41 UNL     1      62.974  37.671  21.780  1.00  0.00     0.176 HD
ENDBRANCH  15  17
ENDBRANCH   8  15
BRANCH   9  20
HETATM   20  N5  UNL     1      61.012  39.927  21.683  1.00  0.00    -0.382 N
ATOM     21  H52 UNL     1      61.055  40.919  21.450  1.00  0.00     0.157 HD
ATOM     22  H51 UNL     1      61.737  39.326  22.077  1.00  0.00     0.157 HD
ENDBRANCH   9  20
BRANCH   4  23
HETATM   23  S1  UNL     1      56.386  35.549  23.394  1.00  0.00    -0.113 SA
HETATM   24  C4  UNL     1      55.926  34.039  22.504  1.00  0.00     0.097 C
ENDBRANCH   4  23
BRANCH   1  25
HETATM   25  O1  UNL     1      54.856  39.530  20.311  1.00  0.00    -0.326 OA
HETATM   26  C1  UNL     1      53.826  40.305  20.836  1.00  0.00     0.213 C
ENDBRANCH   1  25
TORSDOF 5
ENDMDL