MODEL 2
REMARK VINA RESULT: -9.885631084      0.913      1.317
REMARK  4 active torsions:
REMARK  status: ('A' for Active; 'I' for Inactive)
REMARK    1  A    between atoms: N2_7  and  C4_8
REMARK    2  A    between atoms: C8_12  and  N3_13
REMARK    3  A    between atoms: N3_13  and  N4_15
REMARK    4  A    between atoms: N4_15  and  C9_17
ROOT
HETATM    1  C4  UNL     1      56.215  38.409  21.367  1.00  0.00     0.113 A
HETATM    2  C5  UNL     1      55.856  37.173  21.901  1.00  0.00     0.049 A
HETATM    3  C6  UNL     1      56.705  36.541  22.764  1.00  0.00     0.007 A
HETATM    4  C7  UNL     1      57.913  37.151  23.089  1.00  0.00     0.050 A
HETATM    5  C8  UNL     1      58.240  38.375  22.545  1.00  0.00     0.121 A
HETATM    6  N9  UNL     1      57.389  38.975  21.699  1.00  0.00    -0.327 N
ATOM      7  H9  UNL     1      57.638  39.880  21.299  1.00  0.00     0.169 HD
ENDROOT
BRANCH   5   8
HETATM    8  N3  UNL     1      59.364  38.982  22.825  1.00  0.00    -0.283 N
ATOM      9  H3  UNL     1      59.597  39.186  23.796  1.00  0.00     0.188 HD
BRANCH   8  10
HETATM   10  N4  UNL     1      60.250  39.354  21.814  1.00  0.00    -0.268 N
ATOM     11  H4  UNL     1      59.975  40.038  21.109  1.00  0.00     0.190 HD
BRANCH  10  12
HETATM   12  C9  UNL     1      61.556  38.758  21.782  1.00  0.00     0.224 A
HETATM   13  N5  UNL     1      61.857  37.595  21.321  1.00  0.00    -0.255 N
HETATM   14  N6  UNL     1      63.226  37.341  21.452  1.00  0.00    -0.006 NA
ATOM     15  H5  UNL     1      61.186  36.943  20.914  1.00  0.00     0.187 HD
HETATM   16  N7  UNL     1      63.840  38.479  21.984  1.00  0.00    -0.006 NA
HETATM   17  N8  UNL     1      62.761  39.348  22.256  1.00  0.00    -0.255 N
ATOM     18  H8  UNL     1      62.834  40.254  22.720  1.00  0.00     0.187 HD
ENDBRANCH  10  12
ENDBRANCH   8  10
ENDBRANCH   5   8
BRANCH   1  19
HETATM   19  N2  UNL     1      55.368  39.102  20.469  1.00  0.00    -0.304 N
HETATM   20  C3  UNL     1      54.336  39.835  20.910  1.00  0.00     0.103 A
HETATM   21  C2  UNL     1      53.494  40.521  20.050  1.00  0.00     0.066 A
HETATM   22  C1  UNL     1      53.722  40.450  18.696  1.00  0.00     0.100 A
HETATM   23  N1  UNL     1      52.987  41.058  17.827  1.00  0.00    -0.385 N
HETATM   24  N10 UNL     1      54.763  39.709  18.276  1.00  0.00    -0.339 N
ATOM     25  H12 UNL     1      52.198  41.621  18.145  1.00  0.00     0.157 HD
ATOM     26  H11 UNL     1      53.157  41.006  16.823  1.00  0.00     0.157 HD
HETATM   27  C10 UNL     1      55.576  39.044  19.145  1.00  0.00     0.191 A
ATOM     28  H10 UNL     1      54.949  39.642  17.276  1.00  0.00     0.168 HD
ENDBRANCH   1  19
TORSDOF 4
ENDMDL