MODEL 5
REMARK VINA RESULT: -5.019990124      1.512      5.802
REMARK  3 active torsions:
REMARK  status: ('A' for Active; 'I' for Inactive)
REMARK    1  A    between atoms: C3_5  and  N2_6
REMARK    2  A    between atoms: N3_10  and  C5_11
REMARK    3  A    between atoms: C7_15  and  O3_16
ROOT
HETATM    1  C5  UNL     1      55.671  40.176  20.397  1.00  0.00     0.239 C
HETATM    2  C6  UNL     1      54.600  40.661  21.304  1.00  0.00     0.167 C
HETATM    3  N4  UNL     1      53.273  40.629  20.806  1.00  0.00    -0.379 N
ATOM      4  H4  UNL     1      52.482  40.801  21.427  1.00  0.00     0.157 HD
HETATM    5  C7  UNL     1      53.066  40.356  19.444  1.00  0.00     0.334 C
HETATM    6  N5  UNL     1      53.823  39.132  19.130  1.00  0.00    -0.074 NA
HETATM    7  N6  UNL     1      55.162  39.523  19.204  1.00  0.00    -0.201 N
HETATM    8  C8  UNL     1      55.948  39.247  18.081  1.00  0.00     0.199 C
HETATM    9  N7  UNL     1      56.616  39.017  17.158  1.00  0.00    -0.171 NA
ENDROOT
BRANCH   1  10
HETATM   10  N3  UNL     1      56.647  39.356  21.075  1.00  0.00    -0.314 N
HETATM   11  C2  UNL     1      56.485  38.141  21.745  1.00  0.00     0.101 A
HETATM   12  C1  UNL     1      55.395  37.466  21.910  1.00  0.00     0.064 C
HETATM   13  N1  UNL     1      57.769  37.738  22.241  1.00  0.00    -0.323 N
HETATM   14  C3  UNL     1      58.677  38.752  21.843  1.00  0.00     0.191 A
ATOM     15  H1  UNL     1      57.985  36.895  22.773  1.00  0.00     0.169 HD
HETATM   16  C4  UNL     1      58.027  39.685  21.170  1.00  0.00     0.149 A
BRANCH  14  17
HETATM   17  N2  UNL     1      60.082  38.716  22.154  1.00  0.00    -0.096 N
HETATM   18  O1  UNL     1      60.456  38.086  23.164  1.00  0.00    -0.530 OA
HETATM   19  O2  UNL     1      60.987  39.357  21.357  1.00  0.00    -0.530 OA
ENDBRANCH  14  17
ENDBRANCH   1  10
BRANCH   5  20
HETATM   20  O3  UNL     1      53.554  41.353  18.573  1.00  0.00    -0.362 OA
ATOM     21  H3  UNL     1      54.006  42.065  19.010  1.00  0.00     0.213 HD
ENDBRANCH   5  20
TORSDOF 3
ENDMDL