MODEL 3
REMARK VINA RESULT: -3.768002617      3.061      6.147
REMARK  4 active torsions:
REMARK  status: ('A' for Active; 'I' for Inactive)
REMARK    1  A    between atoms: O1_2  and  C2_3
REMARK    2  A    between atoms: C3_6  and  N2_7
REMARK    3  A    between atoms: N5_17  and  C6_18
REMARK    4  A    between atoms: C7_22  and  N7_23
ROOT
HETATM    1  C2  UNL     1      61.553  36.717  20.228  1.00  0.00     0.189 A
HETATM    2  N1  UNL     1      62.351  35.771  19.691  1.00  0.00    -0.168 N
ATOM      3  H1  UNL     1      61.967  35.035  19.098  1.00  0.00     0.186 HD
HETATM    4  C3  UNL     1      63.667  35.827  19.964  1.00  0.00     0.679 A
HETATM    5  N3  UNL     1      64.189  36.804  20.753  1.00  0.00    -0.174 N
ATOM      6  H3  UNL     1      65.193  36.813  20.935  1.00  0.00     0.186 HD
HETATM    7  C4  UNL     1      63.412  37.763  21.303  1.00  0.00     0.157 A
HETATM    8  N4  UNL     1      63.637  38.824  22.100  1.00  0.00    -0.291 N
ATOM      9  H4  UNL     1      64.537  39.126  22.474  1.00  0.00     0.172 HD
HETATM   10  C5  UNL     1      62.456  39.401  22.306  1.00  0.00     0.347 A
HETATM   11  O2  UNL     1      62.286  40.443  23.020  1.00  0.00    -0.245 OA
HETATM   12  N5  UNL     1      61.477  38.732  21.656  1.00  0.00    -0.086 N
HETATM   13  C8  UNL     1      62.060  37.706  21.025  1.00  0.00     0.158 A
ENDROOT
BRANCH  12  14
HETATM   14  C6  UNL     1      60.111  39.110  21.685  1.00  0.00     0.717 A
HETATM   15  N6  UNL     1      59.365  39.107  22.802  1.00  0.00    -0.087 N
HETATM   16  O3  UNL     1      58.164  39.500  22.505  1.00  0.00    -0.186 OA
ATOM     17  H6  UNL     1      59.689  38.841  23.732  1.00  0.00     0.214 HD
HETATM   18  C7  UNL     1      58.057  39.772  21.227  1.00  0.00     0.256 A
HETATM   19  N8  UNL     1      59.280  39.526  20.715  1.00  0.00    -0.151 N
ATOM     20  H8  UNL     1      59.536  39.639  19.734  1.00  0.00     0.188 HD
BRANCH  18  21
HETATM   21  N7  UNL     1      57.061  40.184  20.525  1.00  0.00    -0.363 N
ATOM     22  H72 UNL     1      56.094  40.164  20.851  1.00  0.00     0.159 HD
ATOM     23  H71 UNL     1      57.016  40.581  19.587  1.00  0.00     0.159 HD
ENDBRANCH  18  21
ENDBRANCH  12  14
BRANCH   1  24
HETATM   24  O1  UNL     1      60.200  36.685  19.967  1.00  0.00    -0.339 OA
HETATM   25  C1  UNL     1      59.251  36.272  20.945  1.00  0.00     0.211 C
ENDBRANCH   1  24
BRANCH   4  26
HETATM   26  N2  UNL     1      64.477  34.969  19.493  1.00  0.00    -0.234 N
ATOM     27  H22 UNL     1      64.373  34.722  18.509  1.00  0.00     0.174 HD
ATOM     28  H21 UNL     1      65.201  34.546  20.076  1.00  0.00     0.174 HD
ENDBRANCH   4  26
TORSDOF 4
ENDMDL