MODEL 1
REMARK VINA RESULT: -6.582561883      0.000      0.000
REMARK  5 active torsions:
REMARK  status: ('A' for Active; 'I' for Inactive)
REMARK    1  A    between atoms: O1_2  and  C2_3
REMARK    2  A    between atoms: C3_4  and  O2_5
REMARK    3  A    between atoms: C5_7  and  O3_8
REMARK    4  A    between atoms: C5_7  and  O4_10
REMARK    5  A    between atoms: C6_12  and  O5_13
ROOT
HETATM    1  C2  UNL     1      54.683  39.930  20.734  1.00  0.00     0.114 C
HETATM    2  C3  UNL     1      54.910  39.980  19.435  1.00  0.00     0.145 C
HETATM    3  C5  UNL     1      56.287  39.399  19.203  1.00  0.00     0.268 C
HETATM    4  C6  UNL     1      56.448  38.457  20.349  1.00  0.00     0.232 C
HETATM    5  N1  UNL     1      57.846  38.305  20.743  1.00  0.00    -0.339 N
ATOM      6  H1  UNL     1      58.531  37.925  20.089  1.00  0.00     0.164 HD
HETATM    7  C8  UNL     1      58.234  38.694  22.051  1.00  0.00     0.097 C
HETATM    8  N2  UNL     1      59.099  37.991  22.742  1.00  0.00    -0.387 N
ATOM      9  H21 UNL     1      59.378  38.272  23.682  1.00  0.00     0.157 HD
ATOM     10  H22 UNL     1      59.486  37.151  22.311  1.00  0.00     0.157 HD
HETATM   11  C9  UNL     1      57.665  39.933  22.686  1.00  0.00     0.244 C
HETATM   12  O6  UNL     1      56.682  40.379  21.787  1.00  0.00    -0.367 OA
HETATM   13  C10 UNL     1      55.836  39.338  21.481  1.00  0.00     0.242 C
ENDROOT
BRANCH   3  14
HETATM   14  O3  UNL     1      56.354  38.751  18.002  1.00  0.00    -0.356 OA
ATOM     15  H3  UNL     1      57.249  38.703  17.687  1.00  0.00     0.213 HD
ENDBRANCH   3  14
BRANCH   3  16
HETATM   16  O4  UNL     1      57.185  40.472  19.270  1.00  0.00    -0.356 OA
ATOM     17  H4  UNL     1      58.054  40.099  19.186  1.00  0.00     0.213 HD
ENDBRANCH   3  16
BRANCH   2  18
HETATM   18  O2  UNL     1      54.010  40.483  18.514  1.00  0.00    -0.352 OA
HETATM   19  C4  UNL     1      52.823  39.827  18.134  1.00  0.00     0.210 C
ENDBRANCH   2  18
BRANCH   4  20
HETATM   20  O5  UNL     1      55.744  37.320  20.380  1.00  0.00    -0.358 OA
HETATM   21  C7  UNL     1      55.669  36.519  21.451  1.00  0.00     0.205 C
ENDBRANCH   4  20
BRANCH   1  22
HETATM   22  O1  UNL     1      53.491  40.387  21.329  1.00  0.00    -0.355 OA
HETATM   23  C1  UNL     1      53.064  41.708  21.073  1.00  0.00     0.209 C
ENDBRANCH   1  22
TORSDOF 5
ENDMDL