MODEL 5
REMARK VINA RESULT: -7.386389954      2.311      4.170
REMARK  5 active torsions:
REMARK  status: ('A' for Active; 'I' for Inactive)
REMARK    1  A    between atoms: N1_2  and  C2_4
REMARK    2  A    between atoms: C3_7  and  C4_8
REMARK    3  A    between atoms: C5_11  and  O1_12
REMARK    4  A    between atoms: C7_14  and  O2_15
REMARK    5  A    between atoms: C9_23  and  N6_24
ROOT
HETATM    1  C2  UNL     1      61.951  37.473  20.810  1.00  0.00     0.694 A
HETATM    2  N2  UNL     1      60.595  37.596  20.751  1.00  0.00    -0.173 N
ATOM      3  H2  UNL     1      60.053  36.931  20.200  1.00  0.00     0.186 HD
HETATM    4  C3  UNL     1      59.966  38.573  21.404  1.00  0.00     0.169 A
HETATM    5  N5  UNL     1      60.764  39.428  22.126  1.00  0.00    -0.173 N
ATOM      6  H5  UNL     1      60.310  40.187  22.636  1.00  0.00     0.186 HD
HETATM    7  C9  UNL     1      62.089  39.332  22.202  1.00  0.00     0.692 A
HETATM    8  N7  UNL     1      62.682  38.332  21.527  1.00  0.00    -0.023 N
ATOM      9  H7  UNL     1      63.696  38.228  21.562  1.00  0.00     0.203 HD
ENDROOT
BRANCH   4  10
HETATM   10  C4  UNL     1      58.536  38.822  21.429  1.00  0.00     0.148 A
HETATM   11  N3  UNL     1      57.946  39.437  20.355  1.00  0.00    -0.326 N
HETATM   12  C5  UNL     1      56.637  39.695  20.314  1.00  0.00     0.195 A
ATOM     13  H3  UNL     1      58.527  39.706  19.561  1.00  0.00     0.168 HD
HETATM   14  C7  UNL     1      55.804  39.354  21.358  1.00  0.00     0.195 A
HETATM   15  N4  UNL     1      56.363  38.755  22.412  1.00  0.00    -0.299 N
HETATM   16  C8  UNL     1      57.717  38.487  22.453  1.00  0.00     0.278 A
ATOM     17  H4  UNL     1      55.777  38.489  23.204  1.00  0.00     0.171 HD
HETATM   18  O3  UNL     1      58.123  37.927  23.482  1.00  0.00    -0.265 OA
BRANCH  12  19
HETATM   19  O1  UNL     1      56.072  40.319  19.213  1.00  0.00    -0.338 OA
HETATM   20  C6  UNL     1      55.390  39.546  18.243  1.00  0.00     0.211 C
ENDBRANCH  12  19
BRANCH  14  21
HETATM   21  O2  UNL     1      54.442  39.614  21.335  1.00  0.00    -0.343 OA
ATOM     22  H2  UNL     1      54.052  40.223  20.719  1.00  0.00     0.219 HD
ENDBRANCH  14  21
ENDBRANCH   4  10
BRANCH   1  23
HETATM   23  N1  UNL     1      62.508  36.516  20.163  1.00  0.00    -0.230 N
HETATM   24  C1  UNL     1      63.943  36.475  20.011  1.00  0.00     0.165 C
ATOM     25  H1  UNL     1      61.934  35.778  19.755  1.00  0.00     0.177 HD
ENDBRANCH   1  23
BRANCH   7  26
HETATM   26  N6  UNL     1      62.824  40.143  22.883  1.00  0.00    -0.234 N
ATOM     27  H62 UNL     1      62.407  41.005  23.235  1.00  0.00     0.174 HD
ATOM     28  H61 UNL     1      63.808  39.972  23.092  1.00  0.00     0.174 HD
ENDBRANCH   7  26
TORSDOF 5
ENDMDL