MODEL 5
REMARK VINA RESULT: -1.795912275      8.706      9.618
REMARK  6 active torsions:
REMARK  status: ('A' for Active; 'I' for Inactive)
REMARK    1  A    between atoms: O1_2  and  N1_3
REMARK    2  A    between atoms: C2_4  and  C3_5
REMARK    3  A    between atoms: C3_5  and  N2_6
REMARK    4  A    between atoms: C3_5  and  O2_10
REMARK    5  A    between atoms: C4_12  and  O3_13
REMARK    6  A    between atoms: C7_20  and  N4_21
ROOT
HETATM    1  N1  UNL     1      61.862  38.138  21.934  1.00  0.00    -0.212 N
HETATM    2  C2  UNL     1      60.520  38.163  21.950  1.00  0.00     0.134 A
HETATM    3  C4  UNL     1      59.816  37.390  21.011  1.00  0.00     0.148 A
HETATM    4  C5  UNL     1      60.502  36.622  20.095  1.00  0.00     0.236 A
HETATM    5  O4  UNL     1      59.860  35.920  19.241  1.00  0.00    -0.283 OA
HETATM    6  C6  UNL     1      61.878  36.609  20.095  1.00  0.00     0.137 A
HETATM    7  N3  UNL     1      62.539  35.850  19.195  1.00  0.00    -0.185 N
ATOM      8  H3  UNL     1      62.027  35.290  18.514  1.00  0.00     0.184 HD
HETATM    9  C7  UNL     1      63.882  35.844  19.210  1.00  0.00     0.679 A
HETATM   10  N5  UNL     1      64.570  36.564  20.086  1.00  0.00    -0.154 N
ATOM     11  H5  UNL     1      65.589  36.545  20.079  1.00  0.00     0.187 HD
HETATM   12  C8  UNL     1      63.917  37.316  20.977  1.00  0.00     0.291 A
HETATM   13  O5  UNL     1      64.589  37.998  21.809  1.00  0.00    -0.265 OA
HETATM   14  C9  UNL     1      62.541  37.389  21.040  1.00  0.00     0.162 A
ENDROOT
BRANCH   2  15
HETATM   15  C3  UNL     1      59.697  38.936  22.891  1.00  0.00     0.372 C
BRANCH  15  16
HETATM   16  N2  UNL     1      58.841  39.882  22.192  1.00  0.00    -0.047 N
ATOM     17  H23 UNL     1      58.913  39.774  21.180  1.00  0.00     0.277 HD
ATOM     18  H22 UNL     1      57.854  39.650  22.306  1.00  0.00     0.277 HD
ATOM     19  H21 UNL     1      59.036  40.841  22.479  1.00  0.00     0.277 HD
ENDBRANCH  15  16
BRANCH  15  20
HETATM   20  O2  UNL     1      58.907  38.046  23.658  1.00  0.00    -0.365 OA
ATOM     21  H2  UNL     1      57.988  38.220  23.489  1.00  0.00     0.212 HD
ENDBRANCH  15  20
ENDBRANCH   2  15
BRANCH   1  22
HETATM   22  O1  UNL     1      62.564  38.902  22.840  1.00  0.00    -0.278 OA
HETATM   23  C1  UNL     1      62.782  40.278  22.740  1.00  0.00     0.238 C
ENDBRANCH   1  22
BRANCH   3  24
HETATM   24  O3  UNL     1      58.440  37.405  21.015  1.00  0.00    -0.355 OA
ATOM     25  H3  UNL     1      57.973  37.731  20.253  1.00  0.00     0.218 HD
ENDBRANCH   3  24
BRANCH   9  26
HETATM   26  N4  UNL     1      64.514  35.118  18.349  1.00  0.00    -0.234 N
ATOM     27  H42 UNL     1      64.806  35.531  17.463  1.00  0.00     0.174 HD
ATOM     28  H41 UNL     1      64.707  34.142  18.572  1.00  0.00     0.174 HD
ENDBRANCH   9  26
TORSDOF 6
ENDMDL