MODEL 2
REMARK VINA RESULT: -4.575737610      3.117      5.842
REMARK  8 active torsions:
REMARK  status: ('A' for Active; 'I' for Inactive)
REMARK    1  A    between atoms: N1_1  and  C1_4
REMARK    2  A    between atoms: C2_8  and  N3_9
REMARK    3  A    between atoms: N3_9  and  S2_11
REMARK    4  A    between atoms: C3_15  and  C4_16
REMARK    5  A    between atoms: C4_16  and  O4_17
REMARK    6  A    between atoms: C4_16  and  O5_19
REMARK    7  A    between atoms: C5_21  and  N4_22
REMARK    8  A    between atoms: N4_22  and  O6_24
ROOT
HETATM    1  C1  UNL     1      58.689  38.862  21.137  1.00  0.00     0.135 A
HETATM    2  N2  UNL     1      58.391  39.967  20.390  1.00  0.00    -0.309 N
ATOM      3  H2  UNL     1      59.125  40.556  19.997  1.00  0.00     0.176 HD
HETATM    4  S1  UNL     1      56.780  40.310  20.148  1.00  0.00     0.007 SA
HETATM    5  C2  UNL     1      55.729  39.206  20.885  1.00  0.00     0.116 A
HETATM    6  C3  UNL     1      56.348  38.200  21.567  1.00  0.00     0.064 A
HETATM    7  C5  UNL     1      57.691  38.037  21.687  1.00  0.00     0.112 A
ENDROOT
BRANCH   5   8
HETATM    8  N3  UNL     1      54.420  39.263  20.808  1.00  0.00    -0.258 N
ATOM      9  H3  UNL     1      53.874  38.603  21.362  1.00  0.00     0.182 HD
BRANCH   8  10
HETATM   10  S2  UNL     1      53.587  40.387  19.828  1.00  0.00     0.209 S
HETATM   11  O1  UNL     1      52.203  39.927  19.451  1.00  0.00    -0.578 OA
HETATM   12  O2  UNL     1      54.343  40.731  18.570  1.00  0.00    -0.578 OA
HETATM   13  O3  UNL     1      53.381  41.810  20.728  1.00  0.00    -0.578 OA
ENDBRANCH   8  10
ENDBRANCH   5   8
BRANCH   6  14
HETATM   14  C4  UNL     1      55.467  37.155  22.265  1.00  0.00     0.293 C
BRANCH  14  15
HETATM   15  O4  UNL     1      55.637  35.983  21.514  1.00  0.00    -0.367 OA
ATOM     16  H4  UNL     1      55.303  36.196  20.651  1.00  0.00     0.213 HD
ENDBRANCH  14  15
BRANCH  14  17
HETATM   17  O5  UNL     1      55.888  36.935  23.538  1.00  0.00    -0.367 OA
ATOM     18  H5  UNL     1      56.740  36.516  23.547  1.00  0.00     0.213 HD
ENDBRANCH  14  17
ENDBRANCH   6  14
BRANCH   7  19
HETATM   19  N4  UNL     1      58.224  36.910  22.429  1.00  0.00    -0.265 N
ATOM     20  H4  UNL     1      58.161  35.942  22.113  1.00  0.00     0.194 HD
BRANCH  19  21
HETATM   21  O6  UNL     1      58.776  37.266  23.513  1.00  0.00    -0.289 OA
ATOM     22  H6  UNL     1      58.822  36.557  24.143  1.00  0.00     0.244 HD
ENDBRANCH  19  21
ENDBRANCH   7  19
BRANCH   1  23
HETATM   23  N1  UNL     1      59.890  38.602  21.299  1.00  0.00    -0.383 N
ATOM     24  H12 UNL     1      60.405  38.059  20.606  1.00  0.00     0.157 HD
ATOM     25  H11 UNL     1      60.331  38.966  22.143  1.00  0.00     0.157 HD
ENDBRANCH   1  23
TORSDOF 8
ENDMDL