MODEL 2
REMARK VINA RESULT: -4.538924938      0.766      1.042
REMARK  6 active torsions:
REMARK  status: ('A' for Active; 'I' for Inactive)
REMARK    1  A    between atoms: C2_2  and  O1_3
REMARK    2  A    between atoms: C2_2  and  C3_5
REMARK       I    between atoms: C3_5  and  N1_7
REMARK    3  A    between atoms: N1_7  and  C4_8
REMARK    4  A    between atoms: C5_9  and  N2_10
REMARK    5  A    between atoms: C6_13  and  N3_14
REMARK    6  A    between atoms: C8_18  and  O3_19
ROOT
HETATM    1  C4  UNL     1      56.679  38.185  22.632  1.00  0.00     0.330 A
HETATM    2  C5  UNL     1      56.086  38.945  21.435  1.00  0.00     0.088 A
HETATM    3  C6  UNL     1      57.210  39.489  20.714  1.00  0.00     0.085 A
HETATM    4  C7  UNL     1      58.436  39.053  21.375  1.00  0.00     0.121 A
HETATM    5  C8  UNL     1      59.818  39.076  21.355  1.00  0.00     0.176 A
HETATM    6  N4  UNL     1      60.319  38.349  22.374  1.00  0.00    -0.282 N
HETATM    7  C9  UNL     1      61.736  38.134  22.687  1.00  0.00     0.163 C
HETATM    8  C10 UNL     1      59.252  37.871  23.032  1.00  0.00     0.334 A
HETATM    9  O4  UNL     1      59.351  37.142  24.044  1.00  0.00    -0.246 OA
HETATM   10  N5  UNL     1      58.096  38.306  22.419  1.00  0.00    -0.254 N
ENDROOT
BRANCH   1  11
HETATM   11  N1  UNL     1      56.173  36.908  22.692  1.00  0.00    -0.379 NA
HETATM   12  C3  UNL     1      55.686  35.678  22.749  1.00  0.00     0.317 C
HETATM   13  O2  UNL     1      55.221  35.000  21.753  1.00  0.00    -0.255 OA
BRANCH  12  14
HETATM   14  C2  UNL     1      55.609  34.900  24.038  1.00  0.00     0.220 C
HETATM   15  C1  UNL     1      55.310  33.478  23.734  1.00  0.00     0.050 C
BRANCH  14  16
HETATM   16  O1  UNL     1      54.685  35.514  24.856  1.00  0.00    -0.385 OA
ATOM     17  H1  UNL     1      55.004  36.297  25.290  1.00  0.00     0.210 HD
ENDBRANCH  14  16
ENDBRANCH  12  14
ENDBRANCH   1  11
BRANCH   2  18
HETATM   18  N2  UNL     1      54.843  39.019  21.229  1.00  0.00    -0.396 N
ATOM     19  H22 UNL     1      54.262  38.675  20.465  1.00  0.00     0.156 HD
ATOM     20  H21 UNL     1      54.209  39.491  21.874  1.00  0.00     0.156 HD
ENDBRANCH   2  18
BRANCH   3  21
HETATM   21  N3  UNL     1      57.131  40.240  19.649  1.00  0.00    -0.395 N
ATOM     22  H32 UNL     1      57.431  39.987  18.708  1.00  0.00     0.156 HD
ATOM     23  H31 UNL     1      56.753  41.186  19.622  1.00  0.00     0.156 HD
ENDBRANCH   3  21
BRANCH   5  24
HETATM   24  O3  UNL     1      60.569  39.759  20.410  1.00  0.00    -0.344 OA
ATOM     25  H3  UNL     1      61.262  40.371  20.624  1.00  0.00     0.219 HD
ENDBRANCH   5  24
TORSDOF 6
ENDMDL