MODEL 1
REMARK VINA RESULT: -4.585379706      0.000      0.000
REMARK  6 active torsions:
REMARK  status: ('A' for Active; 'I' for Inactive)
REMARK    1  A    between atoms: O1_2  and  N1_3
REMARK    2  A    between atoms: N1_3  and  C2_5
REMARK    3  A    between atoms: C4_9  and  N3_10
REMARK    4  A    between atoms: C5_15  and  N5_16
REMARK    5  A    between atoms: N5_16  and  O2_18
REMARK    6  A    between atoms: C7_22  and  N7_23
ROOT
HETATM    1  C2  UNL     1      56.112  37.173  22.100  1.00  0.00     0.705 A
HETATM    2  N2  UNL     1      57.058  36.988  23.064  1.00  0.00    -0.184 N
ATOM      3  H2  UNL     1      56.962  36.388  23.883  1.00  0.00     0.184 HD
HETATM    4  C3  UNL     1      58.126  37.719  22.761  1.00  0.00     0.124 A
HETATM    5  C4  UNL     1      59.293  37.771  23.531  1.00  0.00     0.144 C
HETATM    6  N4  UNL     1      60.377  38.523  23.280  1.00  0.00    -0.173 N
ATOM      7  H4  UNL     1      60.960  38.758  24.083  1.00  0.00     0.186 HD
HETATM    8  C5  UNL     1      60.781  39.001  22.087  1.00  0.00     0.707 C
HETATM    9  N6  UNL     1      60.017  39.254  20.982  1.00  0.00    -0.173 N
ATOM     10  H6  UNL     1      60.526  39.466  20.124  1.00  0.00     0.186 HD
HETATM   11  C7  UNL     1      58.675  39.257  20.891  1.00  0.00     0.144 C
HETATM   12  C8  UNL     1      57.849  38.379  21.581  1.00  0.00     0.126 A
HETATM   13  N8  UNL     1      56.592  38.026  21.186  1.00  0.00    -0.180 N
HETATM   14  C9  UNL     1      55.967  38.522  19.982  1.00  0.00     0.176 C
ENDROOT
BRANCH   1  15
HETATM   15  N1  UNL     1      54.974  36.564  22.174  1.00  0.00    -0.096 N
ATOM     16  H1  UNL     1      54.271  36.804  21.475  1.00  0.00     0.213 HD
BRANCH  15  17
HETATM   17  O1  UNL     1      54.645  35.661  23.075  1.00  0.00    -0.272 OA
HETATM   18  C1  UNL     1      55.242  34.410  23.265  1.00  0.00     0.238 C
ENDBRANCH  15  17
ENDBRANCH   1  15
BRANCH   5  19
HETATM   19  N3  UNL     1      59.306  37.014  24.576  1.00  0.00    -0.383 N
ATOM     20  H32 UNL     1      60.021  36.289  24.635  1.00  0.00     0.157 HD
ATOM     21  H31 UNL     1      58.584  37.208  25.269  1.00  0.00     0.157 HD
ENDBRANCH   5  19
BRANCH  11  22
HETATM   22  N7  UNL     1      58.086  40.103  20.141  1.00  0.00    -0.383 N
ATOM     23  H72 UNL     1      57.620  40.874  20.620  1.00  0.00     0.157 HD
ATOM     24  H71 UNL     1      58.103  39.990  19.128  1.00  0.00     0.157 HD
ENDBRANCH  11  22
BRANCH   8  25
HETATM   25  N5  UNL     1      62.160  39.267  22.002  1.00  0.00    -0.095 N
HETATM   26  C6  UNL     1      63.040  38.322  21.374  1.00  0.00     0.205 C
BRANCH  25  27
HETATM   27  O2  UNL     1      62.662  40.400  22.508  1.00  0.00    -0.274 OA
ATOM     28  H2  UNL     1      63.601  40.538  22.534  1.00  0.00     0.245 HD
ENDBRANCH  25  27
ENDBRANCH   8  25
TORSDOF 6
ENDMDL