MODEL 3
REMARK VINA RESULT: -8.673384464      1.131      1.395
REMARK  6 active torsions:
REMARK  status: ('A' for Active; 'I' for Inactive)
REMARK    1  A    between atoms: N1_1  and  C1_4
REMARK    2  A    between atoms: C2_7  and  C3_8
REMARK    3  A    between atoms: C3_8  and  S1_9
REMARK    4  A    between atoms: S1_9  and  C4_10
REMARK    5  A    between atoms: C10_16  and  C11_17
REMARK    6  A    between atoms: C11_17  and  N3_18
ROOT
HETATM    1  C1  UNL     1      50.801  49.230  20.692  1.00  0.00     0.677 A
HETATM    2  N2  UNL     1      50.558  49.453  19.383  1.00  0.00    -0.194 N
ATOM      3  H2  UNL     1      50.375  48.652  18.780  1.00  0.00     0.184 HD
HETATM    4  C2  UNL     1      50.544  50.654  18.851  1.00  0.00     0.047 A
HETATM    5  C10 UNL     1      50.772  51.790  19.610  1.00  0.00     0.038 A
HETATM    6  C17 UNL     1      51.018  51.598  20.927  1.00  0.00     0.124 A
HETATM    7  N5  UNL     1      51.212  52.597  21.691  1.00  0.00    -0.385 N
ATOM      8  H51 UNL     1      51.398  52.452  22.684  1.00  0.00     0.157 HD
ATOM      9  H52 UNL     1      51.202  53.538  21.298  1.00  0.00     0.157 HD
HETATM   10  N6  UNL     1      51.032  50.325  21.459  1.00  0.00    -0.177 N
ATOM     11  H6  UNL     1      51.222  50.204  22.453  1.00  0.00     0.185 HD
ENDROOT
BRANCH   5  12
HETATM   12  C11 UNL     1      50.531  53.127  18.962  1.00  0.00     0.317 C
BRANCH  12  13
HETATM   13  N3  UNL     1      50.249  54.222  19.821  1.00  0.00     0.101 N
HETATM   14  C12 UNL     1      48.956  54.724  19.372  1.00  0.00     0.275 C
HETATM   15  C13 UNL     1      48.615  56.044  19.955  1.00  0.00     0.050 C
HETATM   16  C14 UNL     1      48.979  56.162  21.422  1.00  0.00     0.124 C
HETATM   17  N4  UNL     1      50.386  56.548  21.498  1.00  0.00    -0.360 N
HETATM   18  C15 UNL     1      51.443  56.138  20.592  1.00  0.00     0.246 C
ATOM     19  H4  UNL     1      50.652  57.167  22.264  1.00  0.00     0.162 HD
HETATM   20  O1  UNL     1      52.591  56.524  20.846  1.00  0.00    -0.272 OA
HETATM   21  C16 UNL     1      51.213  55.301  19.411  1.00  0.00     0.374 C
ENDBRANCH  12  13
ENDBRANCH   5  12
BRANCH   4  22
HETATM   22  C3  UNL     1      50.375  50.871  17.368  1.00  0.00     0.132 C
BRANCH  22  23
HETATM   23  S1  UNL     1      48.629  51.002  17.111  1.00  0.00    -0.158 SA
BRANCH  23  24
HETATM   24  C4  UNL     1      47.626  49.584  17.339  1.00  0.00     0.047 C
HETATM   25  C5  UNL     1      46.203  49.724  16.903  1.00  0.00     0.015 C
HETATM   26  C6  UNL     1      45.442  48.768  17.860  1.00  0.00     0.001 C
HETATM   27  C7  UNL     1      46.341  47.622  18.202  1.00  0.00     0.000 C
HETATM   28  C8  UNL     1      47.220  47.249  17.004  1.00  0.00     0.001 C
HETATM   29  C9  UNL     1      48.220  48.341  16.679  1.00  0.00     0.015 C
ENDBRANCH  23  24
ENDBRANCH  22  23
ENDBRANCH   4  22
BRANCH   1  30
HETATM   30  N1  UNL     1      50.853  48.033  21.217  1.00  0.00    -0.234 N
ATOM     31  H12 UNL     1      51.502  47.833  21.978  1.00  0.00     0.174 HD
ATOM     32  H11 UNL     1      50.286  47.253  20.885  1.00  0.00     0.174 HD
ENDBRANCH   1  30
TORSDOF 6
ENDMDL