MODEL 4
REMARK VINA RESULT: -7.541638673      1.692      2.306
REMARK  11 active torsions:
REMARK  status: ('A' for Active; 'I' for Inactive)
REMARK    1  A    between atoms: C2_2  and  C3_3
REMARK    2  A    between atoms: C3_3  and  C15_23
REMARK    3  A    between atoms: C4_4  and  C5_5
REMARK    4  A    between atoms: C5_5  and  C6_6
REMARK    5  A    between atoms: C6_6  and  O1_7
REMARK    6  A    between atoms: C6_6  and  C7_9
REMARK    7  A    between atoms: C7_9  and  O2_10
REMARK    8  A    between atoms: C7_9  and  C8_12
REMARK    9  A    between atoms: C10_14  and  O3_15
REMARK   10  A    between atoms: C13_21  and  C14_22
REMARK       I    between atoms: N2_24  and  C16_25
REMARK   11  A    between atoms: C20_30  and  O5_31
ROOT
HETATM    1  C3  UNL     1      49.979  55.986  21.077  1.00  0.00     0.013 C
HETATM    2  C4  UNL     1      51.092  55.478  20.125  1.00  0.00     0.006 C
HETATM    3  C12 UNL     1      51.865  56.730  20.012  1.00  0.00     0.009 A
HETATM    4  C13 UNL     1      51.424  58.007  20.480  1.00  0.00     0.027 A
HETATM    5  C18 UNL     1      52.111  56.968  21.450  1.00  0.00    -0.007 A
HETATM    6  C19 UNL     1      53.363  57.334  22.079  1.00  0.00     0.019 C
HETATM    7  C20 UNL     1      50.966  56.265  22.192  1.00  0.00     0.138 C
ENDROOT
BRANCH   2   8
HETATM    8  C5  UNL     1      50.600  54.827  18.907  1.00  0.00     0.040 C
BRANCH   8   9
HETATM    9  C6  UNL     1      51.364  53.511  18.708  1.00  0.00     0.153 C
BRANCH   9  10
HETATM   10  O1  UNL     1      52.141  53.350  19.854  1.00  0.00    -0.393 OA
ATOM     11  H1  UNL     1      52.197  54.214  20.247  1.00  0.00     0.210 HD
ENDBRANCH   9  10
BRANCH   9  12
HETATM   12  C7  UNL     1      50.404  52.347  18.647  1.00  0.00     0.196 C
BRANCH  12  13
HETATM   13  O2  UNL     1      50.160  51.973  17.328  1.00  0.00    -0.387 OA
ATOM     14  H2  UNL     1      50.196  52.725  16.749  1.00  0.00     0.210 HD
ENDBRANCH  12  13
BRANCH  12  15
HETATM   15  C8  UNL     1      50.937  51.153  19.343  1.00  0.00     0.043 A
HETATM   16  C9  UNL     1      50.264  50.400  20.280  1.00  0.00     0.065 A
HETATM   17  C10 UNL     1      51.088  49.381  20.694  1.00  0.00     0.083 A
HETATM   18  C11 UNL     1      52.262  49.520  20.003  1.00  0.00     0.124 A
HETATM   19  N1  UNL     1      52.143  50.581  19.209  1.00  0.00    -0.364 N
ATOM     20  H1  UNL     1      52.873  50.915  18.581  1.00  0.00     0.165 HD
BRANCH  17  21
HETATM   21  O3  UNL     1      50.772  48.389  21.646  1.00  0.00    -0.359 OA
ATOM     22  H3  UNL     1      51.390  47.927  22.201  1.00  0.00     0.217 HD
ENDBRANCH  17  21
ENDBRANCH  12  15
ENDBRANCH   9  12
ENDBRANCH   8   9
ENDBRANCH   2   8
BRANCH   1  23
HETATM   23  C2  UNL     1      48.970  54.952  21.366  1.00  0.00     0.010 C
HETATM   24  C1  UNL     1      49.379  53.671  21.942  1.00  0.00     0.006 C
ENDBRANCH   1  23
BRANCH   1  25
HETATM   25  C15 UNL     1      49.385  57.096  20.378  1.00  0.00     0.122 A
HETATM   26  C14 UNL     1      48.289  57.551  21.370  1.00  0.00     0.117 A
HETATM   27  N2  UNL     1      48.146  57.573  19.991  1.00  0.00    -0.338 N
HETATM   28  C16 UNL     1      47.264  57.890  18.885  1.00  0.00     0.216 C
HETATM   29  C17 UNL     1      45.894  58.426  19.098  1.00  0.00     0.117 C
HETATM   30  O4  UNL     1      47.619  57.727  17.713  1.00  0.00    -0.274 OA
ENDBRANCH   1  25
BRANCH   7  31
HETATM   31  O5  UNL     1      51.522  55.047  22.628  1.00  0.00    -0.394 OA
ATOM     32  H5  UNL     1      50.960  54.671  23.296  1.00  0.00     0.210 HD
ENDBRANCH   7  31
TORSDOF 11
ENDMDL