MODEL 3
REMARK VINA RESULT: -8.112880993      2.159      3.080
REMARK  11 active torsions:
REMARK  status: ('A' for Active; 'I' for Inactive)
REMARK    1  A    between atoms: C2_2  and  C3_3
REMARK    2  A    between atoms: C2_2  and  C12_14
REMARK    3  A    between atoms: C5_5  and  C6_6
REMARK    4  A    between atoms: C6_6  and  O1_7
REMARK    5  A    between atoms: C6_6  and  C7_9
REMARK    6  A    between atoms: C7_9  and  C9_11
REMARK    7  A    between atoms: C15_17  and  O2_18
REMARK    8  A    between atoms: C16_20  and  O3_21
REMARK    9  A    between atoms: C16_20  and  C17_23
REMARK   10  A    between atoms: C17_23  and  O4_24
REMARK   11  A    between atoms: C21_29  and  O5_30
ROOT
HETATM    1  C12 UNL     1      49.717  52.965  19.773  1.00  0.00     0.077 A
HETATM    2  C13 UNL     1      50.459  54.243  19.963  1.00  0.00    -0.064 A
HETATM    3  C14 UNL     1      50.787  55.391  19.431  1.00  0.00     0.011 C
HETATM    4  C15 UNL     1      51.600  56.545  19.903  1.00  0.00     0.177 C
HETATM    5  C16 UNL     1      51.281  56.705  21.383  1.00  0.00     0.108 C
HETATM    6  C18 UNL     1      50.018  56.022  21.798  1.00  0.00     0.044 C
HETATM    7  C19 UNL     1      50.237  54.621  22.356  1.00  0.00     0.015 C
HETATM    8  C20 UNL     1      50.846  53.725  21.331  1.00  0.00     0.045 A
HETATM    9  C21 UNL     1      50.183  52.411  21.053  1.00  0.00     0.139 A
ENDROOT
BRANCH   1  10
HETATM   10  C2  UNL     1      49.743  52.287  18.505  1.00  0.00    -0.051 C
HETATM   11  C1  UNL     1      51.047  52.153  18.052  1.00  0.00     0.020 C
BRANCH  10  12
HETATM   12  C3  UNL     1      48.790  51.707  17.619  1.00  0.00    -0.057 C
HETATM   13  C4  UNL     1      47.895  52.663  16.784  1.00  0.00     0.048 C
HETATM   14  C5  UNL     1      48.485  50.480  17.340  1.00  0.00     0.012 C
BRANCH  14  15
HETATM   15  C6  UNL     1      48.861  49.141  17.697  1.00  0.00     0.145 C
BRANCH  15  16
HETATM   16  O1  UNL     1      49.239  49.215  19.085  1.00  0.00    -0.391 OA
ATOM     17  H1  UNL     1      48.447  49.470  19.544  1.00  0.00     0.210 HD
ENDBRANCH  15  16
BRANCH  15  18
HETATM   18  C7  UNL     1      47.742  48.129  17.692  1.00  0.00     0.017 C
HETATM   19  C8  UNL     1      48.033  46.889  16.937  1.00  0.00     0.013 C
BRANCH  18  20
HETATM   20  C9  UNL     1      46.491  48.767  17.145  1.00  0.00    -0.016 C
HETATM   21  C10 UNL     1      45.344  48.487  18.122  1.00  0.00     0.010 C
HETATM   22  C11 UNL     1      46.059  48.224  15.807  1.00  0.00     0.010 C
ENDBRANCH  18  20
ENDBRANCH  15  18
ENDBRANCH  14  15
ENDBRANCH  10  12
ENDBRANCH   1  10
BRANCH   9  23
HETATM   23  O5  UNL     1      50.895  51.257  21.133  1.00  0.00    -0.394 OA
ATOM     24  H5  UNL     1      51.821  51.241  21.342  1.00  0.00     0.210 HD
ENDBRANCH   9  23
BRANCH   4  25
HETATM   25  O2  UNL     1      52.928  56.340  19.644  1.00  0.00    -0.389 OA
ATOM     26  H2  UNL     1      53.441  56.414  20.439  1.00  0.00     0.210 HD
ENDBRANCH   4  25
BRANCH   5  27
HETATM   27  O3  UNL     1      52.368  56.287  22.134  1.00  0.00    -0.385 OA
ATOM     28  H3  UNL     1      53.050  56.947  22.093  1.00  0.00     0.210 HD
ENDBRANCH   5  27
BRANCH   5  29
HETATM   29  C17 UNL     1      51.085  58.202  21.667  1.00  0.00     0.204 C
BRANCH  29  30
HETATM   30  O4  UNL     1      52.268  58.900  21.617  1.00  0.00    -0.398 OA
ATOM     31  H4  UNL     1      52.156  59.816  21.846  1.00  0.00     0.209 HD
ENDBRANCH  29  30
ENDBRANCH   5  29
TORSDOF 11
ENDMDL