MODEL 3
REMARK VINA RESULT: -8.146375440      1.664      2.420
REMARK  8 active torsions:
REMARK  status: ('A' for Active; 'I' for Inactive)
REMARK    1  A    between atoms: C2_2  and  C3_3
REMARK    2  A    between atoms: C4_4  and  C5_5
REMARK    3  A    between atoms: C6_6  and  C7_7
REMARK    4  A    between atoms: C15_15  and  O1_16
REMARK    5  A    between atoms: C16_21  and  C17_22
REMARK    6  A    between atoms: C17_22  and  O2_24
REMARK    7  A    between atoms: C17_22  and  C19_26
REMARK    8  A    between atoms: C20_29  and  O5_30
ROOT
HETATM    1  C3  UNL     1      49.795  50.873  17.295  1.00  0.00     0.050 C
HETATM    2  C4  UNL     1      48.877  52.005  17.610  1.00  0.00     0.215 C
HETATM    3  N1  UNL     1      47.514  51.469  17.636  1.00  0.00    -0.057 N
ATOM      4  H11 UNL     1      46.823  52.097  17.227  1.00  0.00     0.278 HD
ATOM      5  H12 UNL     1      47.111  51.431  18.572  1.00  0.00     0.278 HD
HETATM    6  C16 UNL     1      47.576  50.199  16.995  1.00  0.00     0.260 C
HETATM    7  C20 UNL     1      48.912  49.666  17.532  1.00  0.00     0.158 C
ENDROOT
BRANCH   2   8
HETATM    8  C5  UNL     1      49.194  52.740  18.839  1.00  0.00     0.003 C
HETATM    9  C6  UNL     1      49.199  54.066  18.929  1.00  0.00    -0.016 C
BRANCH   9  10
HETATM   10  C7  UNL     1      49.518  54.782  20.169  1.00  0.00     0.007 C
HETATM   11  C8  UNL     1      48.878  54.057  21.358  1.00  0.00     0.017 C
HETATM   12  C9  UNL     1      47.612  54.855  21.012  1.00  0.00     0.007 C
HETATM   13  C10 UNL     1      48.567  55.903  20.418  1.00  0.00     0.004 C
HETATM   14  C11 UNL     1      48.962  56.869  21.466  1.00  0.00    -0.013 C
HETATM   15  C12 UNL     1      48.344  58.226  21.099  1.00  0.00     0.010 C
HETATM   16  C13 UNL     1      50.421  57.081  21.649  1.00  0.00     0.007 C
HETATM   17  C14 UNL     1      51.247  55.832  21.618  1.00  0.00     0.033 C
HETATM   18  C15 UNL     1      50.951  55.111  20.331  1.00  0.00     0.130 C
BRANCH  18  19
HETATM   19  O1  UNL     1      51.349  55.912  19.270  1.00  0.00    -0.394 OA
ATOM     20  H1  UNL     1      52.289  56.040  19.319  1.00  0.00     0.210 HD
ENDBRANCH  18  19
ENDBRANCH   9  10
ENDBRANCH   2   8
BRANCH   1  21
HETATM   21  C2  UNL     1      51.041  50.838  18.142  1.00  0.00     0.005 C
HETATM   22  C1  UNL     1      52.179  51.421  17.333  1.00  0.00     0.005 C
ENDBRANCH   1  21
BRANCH   7  23
HETATM   23  O5  UNL     1      49.333  48.561  16.827  1.00  0.00    -0.393 OA
ATOM     24  H5  UNL     1      49.584  47.842  17.396  1.00  0.00     0.210 HD
ENDBRANCH   7  23
BRANCH   6  25
HETATM   25  C17 UNL     1      46.449  49.260  17.225  1.00  0.00     0.172 C
HETATM   26  C18 UNL     1      46.755  48.471  18.481  1.00  0.00     0.060 C
BRANCH  25  27
HETATM   27  O2  UNL     1      45.333  50.075  17.559  1.00  0.00    -0.377 OA
ATOM     28  H2  UNL     1      45.270  50.047  18.506  1.00  0.00     0.211 HD
ENDBRANCH  25  27
BRANCH  25  29
HETATM   29  C19 UNL     1      46.048  48.416  16.112  1.00  0.00     0.210 C
HETATM   30  O3  UNL     1      46.611  48.481  15.005  1.00  0.00    -0.646 OA
HETATM   31  O4  UNL     1      45.015  47.501  16.240  1.00  0.00    -0.646 OA
ENDBRANCH  25  29
ENDBRANCH   6  25
TORSDOF 8
ENDMDL