MODEL 4
REMARK VINA RESULT: -7.478385026      4.892      8.602
REMARK  6 active torsions:
REMARK  status: ('A' for Active; 'I' for Inactive)
REMARK    1  A    between atoms: C2_2  and  C3_3
REMARK    2  A    between atoms: C3_3  and  N1_4
REMARK       I    between atoms: N1_4  and  C4_6
REMARK       I    between atoms: C4_6  and  N2_8
REMARK    3  A    between atoms: N2_8  and  C5_10
REMARK    4  A    between atoms: C5_10  and  C6_11
REMARK    5  A    between atoms: C6_11  and  C7_12
REMARK    6  A    between atoms: N4_22  and  O6_24
ROOT
HETATM    1  C1  UNL     1      47.284  57.537  17.137  1.00  0.00     0.020 C
HETATM    2  C2  UNL     1      46.793  58.606  18.164  1.00  0.00     0.008 C
HETATM    3  C8  UNL     1      47.171  59.887  17.596  1.00  0.00     0.326 C
HETATM    4  N3  UNL     1      46.425  61.037  18.029  1.00  0.00     0.038 N
HETATM    5  C9  UNL     1      46.895  62.174  17.256  1.00  0.00     0.359 C
HETATM    6  O4  UNL     1      46.711  61.290  19.318  1.00  0.00    -0.062 OA
HETATM    7  C10 UNL     1      45.009  60.914  17.807  1.00  0.00     0.406 C
HETATM    8  O5  UNL     1      44.348  61.359  18.978  1.00  0.00    -0.295 OA
HETATM    9  C11 UNL     1      43.120  60.670  19.044  1.00  0.00     0.145 C
HETATM   10  N4  UNL     1      41.981  61.154  19.447  1.00  0.00    -0.251 N
ATOM     11  H4  UNL     1      41.904  62.122  19.760  1.00  0.00     0.196 HD
HETATM   12  C12 UNL     1      43.437  59.312  18.558  1.00  0.00     0.076 C
HETATM   13  C13 UNL     1      44.523  58.608  19.383  1.00  0.00     0.020 C
HETATM   14  C14 UNL     1      45.259  58.408  18.116  1.00  0.00     0.012 C
HETATM   15  C15 UNL     1      44.536  59.540  17.509  1.00  0.00     0.032 C
HETATM   16  C16 UNL     1      44.028  59.338  16.096  1.00  0.00     0.021 C
ENDROOT
BRANCH   2  17
HETATM   17  C3  UNL     1      47.257  58.110  19.472  1.00  0.00     0.136 C
BRANCH  17  18
HETATM   18  N1  UNL     1      48.634  58.094  19.824  1.00  0.00    -0.342 N
HETATM   19  C4  UNL     1      49.602  57.095  19.832  1.00  0.00     0.316 C
HETATM   20  O1  UNL     1      49.430  55.927  19.463  1.00  0.00    -0.247 OA
HETATM   21  N2  UNL     1      50.929  57.406  20.303  1.00  0.00    -0.343 N
ATOM     22  H2  UNL     1      51.117  58.359  20.614  1.00  0.00     0.164 HD
ATOM     23  H1  UNL     1      48.983  59.001  20.134  1.00  0.00     0.164 HD
BRANCH  21  24
HETATM   24  C5  UNL     1      52.002  56.448  20.361  1.00  0.00     0.135 C
BRANCH  24  25
HETATM   25  C6  UNL     1      53.366  57.067  20.343  1.00  0.00     0.133 C
BRANCH  25  26
HETATM   26  C7  UNL     1      53.532  57.882  21.572  1.00  0.00     0.174 C
HETATM   27  O2  UNL     1      54.170  57.439  22.559  1.00  0.00    -0.648 OA
HETATM   28  O3  UNL     1      52.977  59.147  21.630  1.00  0.00    -0.648 OA
ENDBRANCH  25  26
ENDBRANCH  24  25
ENDBRANCH  21  24
ENDBRANCH  17  18
ENDBRANCH   2  17
BRANCH  10  29
HETATM   29  O6  UNL     1      40.898  60.338  19.441  1.00  0.00    -0.288 OA
ATOM     30  H6  UNL     1      41.007  59.442  19.737  1.00  0.00     0.244 HD
ENDBRANCH  10  29
TORSDOF 6
ENDMDL