MODEL 3
REMARK VINA RESULT: -8.543144359      1.426      2.091
REMARK  10 active torsions:
REMARK  status: ('A' for Active; 'I' for Inactive)
REMARK    1  A    between atoms: C2_2  and  C3_3
REMARK    2  A    between atoms: C2_2  and  C5_5
REMARK    3  A    between atoms: C5_5  and  C6_6
REMARK    4  A    between atoms: C6_6  and  O1_7
REMARK    5  A    between atoms: C6_6  and  C7_9
REMARK    6  A    between atoms: C7_9  and  O2_10
REMARK    7  A    between atoms: C7_9  and  C8_12
REMARK    8  A    between atoms: C14_18  and  O3_19
REMARK    9  A    between atoms: C15_21  and  O4_22
REMARK   10  A    between atoms: C18_26  and  O5_27
ROOT
HETATM    1  C8  UNL     1      50.030  53.647  21.314  1.00  0.00     0.026 C
HETATM    2  C9  UNL     1      48.530  53.770  20.956  1.00  0.00     0.008 C
HETATM    3  C10 UNL     1      48.527  54.000  19.496  1.00  0.00     0.006 C
HETATM    4  C11 UNL     1      49.684  53.151  18.994  1.00  0.00    -0.001 C
HETATM    5  C12 UNL     1      49.073  51.882  18.538  1.00  0.00     0.006 C
HETATM    6  C13 UNL     1      48.294  51.996  17.258  1.00  0.00     0.040 C
HETATM    7  C14 UNL     1      48.098  50.554  16.858  1.00  0.00     0.148 C
HETATM    8  C15 UNL     1      49.037  49.721  17.740  1.00  0.00     0.158 C
HETATM    9  C16 UNL     1      50.019  50.766  18.211  1.00  0.00     0.014 C
HETATM   10  C17 UNL     1      50.955  51.059  17.087  1.00  0.00     0.021 C
HETATM   11  C18 UNL     1      50.697  50.421  19.508  1.00  0.00     0.130 C
HETATM   12  C19 UNL     1      50.431  51.379  20.589  1.00  0.00     0.042 C
HETATM   13  C20 UNL     1      50.580  52.874  20.217  1.00  0.00    -0.032 C
HETATM   14  C21 UNL     1      52.012  53.019  19.834  1.00  0.00     0.016 C
ENDROOT
BRANCH   1  15
HETATM   15  C7  UNL     1      50.553  54.885  21.886  1.00  0.00     0.155 C
BRANCH  15  16
HETATM   16  C6  UNL     1      51.239  55.888  21.084  1.00  0.00     0.170 C
BRANCH  16  17
HETATM   17  C5  UNL     1      50.474  57.071  20.578  1.00  0.00     0.013 C
BRANCH  17  18
HETATM   18  C2  UNL     1      49.360  57.627  21.291  1.00  0.00    -0.069 C
HETATM   19  C1  UNL     1      49.566  58.586  22.194  1.00  0.00     0.018 C
BRANCH  18  20
HETATM   20  C3  UNL     1      47.985  57.120  21.141  1.00  0.00     0.033 C
HETATM   21  C4  UNL     1      47.011  58.239  20.767  1.00  0.00     0.010 C
ENDBRANCH  18  20
ENDBRANCH  17  18
ENDBRANCH  16  17
BRANCH  16  22
HETATM   22  O1  UNL     1      52.154  56.555  21.970  1.00  0.00    -0.389 OA
ATOM     23  H1  UNL     1      52.379  55.830  22.541  1.00  0.00     0.210 HD
ENDBRANCH  16  22
ENDBRANCH  15  16
BRANCH  15  24
HETATM   24  O2  UNL     1      51.243  54.582  23.059  1.00  0.00    -0.392 OA
ATOM     25  H2  UNL     1      50.676  54.215  23.728  1.00  0.00     0.210 HD
ENDBRANCH  15  24
ENDBRANCH   1  15
BRANCH  11  26
HETATM   26  O5  UNL     1      50.234  49.169  19.997  1.00  0.00    -0.395 OA
ATOM     27  H5  UNL     1      49.994  49.236  20.914  1.00  0.00     0.210 HD
ENDBRANCH  11  26
BRANCH   7  28
HETATM   28  O3  UNL     1      48.345  50.316  15.518  1.00  0.00    -0.393 OA
ATOM     29  H3  UNL     1      49.169  50.679  15.216  1.00  0.00     0.210 HD
ENDBRANCH   7  28
BRANCH   8  30
HETATM   30  O4  UNL     1      48.244  49.189  18.731  1.00  0.00    -0.392 OA
ATOM     31  H4  UNL     1      48.219  48.253  18.566  1.00  0.00     0.210 HD
ENDBRANCH   8  30
TORSDOF 10
ENDMDL