MODEL 4
REMARK VINA RESULT: -7.361115802      2.670      3.573
REMARK  8 active torsions:
REMARK  status: ('A' for Active; 'I' for Inactive)
REMARK       I    between atoms: N1_2  and  C2_4
REMARK    1  A    between atoms: C2_4  and  C3_6
REMARK    2  A    between atoms: C10_13  and  O2_14
REMARK    3  A    between atoms: C12_17  and  C13_18
REMARK    4  A    between atoms: N3_20  and  O3_22
REMARK    5  A    between atoms: C16_26  and  C17_27
REMARK    6  A    between atoms: C17_27  and  C18_28
REMARK    7  A    between atoms: C18_28  and  C19_29
REMARK    8  A    between atoms: C19_29  and  O4_30
ROOT
HETATM    1  C3  UNL     1      48.037  57.443  20.075  1.00  0.00     0.042 C
HETATM    2  C4  UNL     1      46.661  57.364  20.793  1.00  0.00     0.026 C
HETATM    3  C5  UNL     1      47.842  56.471  18.890  1.00  0.00     0.052 C
HETATM    4  C6  UNL     1      48.822  55.421  19.195  1.00  0.00    -0.081 C
HETATM    5  C7  UNL     1      49.046  54.133  18.644  1.00  0.00    -0.019 C
HETATM    6  C8  UNL     1      49.265  53.029  19.587  1.00  0.00     0.018 C
HETATM    7  C9  UNL     1      48.948  53.194  21.043  1.00  0.00     0.047 C
HETATM    8  C10 UNL     1      50.317  53.742  21.301  1.00  0.00     0.064 C
HETATM    9  C11 UNL     1      50.609  55.104  21.441  1.00  0.00     0.055 C
HETATM   10  C12 UNL     1      50.305  56.330  20.690  1.00  0.00     0.025 C
HETATM   11  C14 UNL     1      50.121  56.173  19.231  1.00  0.00     0.051 C
HETATM   12  C15 UNL     1      49.005  57.036  21.114  1.00  0.00     0.036 C
HETATM   13  C16 UNL     1      50.640  52.829  20.183  1.00  0.00     0.028 C
ENDROOT
BRANCH   1  14
HETATM   14  C2  UNL     1      48.100  58.845  19.649  1.00  0.00     0.226 C
HETATM   15  N1  UNL     1      47.724  59.264  18.356  1.00  0.00    -0.365 N
HETATM   16  C1  UNL     1      47.794  60.657  17.958  1.00  0.00     0.149 C
ATOM     17  H1  UNL     1      47.395  58.571  17.684  1.00  0.00     0.161 HD
HETATM   18  O1  UNL     1      48.502  59.702  20.468  1.00  0.00    -0.273 OA
ENDBRANCH   1  14
BRANCH  10  19
HETATM   19  C13 UNL     1      51.376  57.365  20.882  1.00  0.00     0.122 C
HETATM   20  N2  UNL     1      52.630  57.202  20.230  1.00  0.00    -0.085 NA
HETATM   21  N3  UNL     1      51.200  58.406  21.617  1.00  0.00    -0.259 N
ATOM     22  H3  UNL     1      50.295  58.514  22.077  1.00  0.00     0.195 HD
BRANCH  21  23
HETATM   23  O3  UNL     1      52.128  59.367  21.822  1.00  0.00    -0.289 OA
ATOM     24  H3  UNL     1      51.974  60.297  21.715  1.00  0.00     0.244 HD
ENDBRANCH  21  23
ENDBRANCH  10  19
BRANCH   8  25
HETATM   25  O2  UNL     1      50.792  53.137  22.525  1.00  0.00    -0.389 OA
ATOM     26  H2  UNL     1      50.915  53.839  23.154  1.00  0.00     0.210 HD
ENDBRANCH   8  25
BRANCH  13  27
HETATM   27  C17 UNL     1      51.835  52.883  19.393  1.00  0.00     0.010 C
BRANCH  27  28
HETATM   28  C18 UNL     1      52.213  51.537  18.831  1.00  0.00     0.027 C
BRANCH  28  29
HETATM   29  C19 UNL     1      51.896  50.382  19.734  1.00  0.00     0.164 C
BRANCH  29  30
HETATM   30  O4  UNL     1      53.036  50.151  20.536  1.00  0.00    -0.401 OA
ATOM     31  H4  UNL     1      52.864  50.535  21.387  1.00  0.00     0.209 HD
ENDBRANCH  29  30
ENDBRANCH  28  29
ENDBRANCH  27  28
ENDBRANCH  13  27
TORSDOF 8
ENDMDL