MODEL 3
REMARK VINA RESULT: -7.715755593      1.843      2.836
REMARK  9 active torsions:
REMARK  status: ('A' for Active; 'I' for Inactive)
REMARK    1  A    between atoms: C2_2  and  C3_3
REMARK    2  A    between atoms: C5_5  and  C6_6
REMARK    3  A    between atoms: C6_6  and  C7_7
REMARK    4  A    between atoms: C12_12  and  O1_13
REMARK    5  A    between atoms: C13_15  and  C14_16
REMARK    6  A    between atoms: N1_22  and  C18_23
REMARK    7  A    between atoms: C18_23  and  C19_24
REMARK    8  A    between atoms: C19_24  and  O4_25
REMARK    9  A    between atoms: C21_28  and  O5_29
ROOT
HETATM    1  C7  UNL     1      48.632  53.868  17.531  1.00  0.00     0.019 C
HETATM    2  C8  UNL     1      48.162  55.185  18.128  1.00  0.00     0.015 C
HETATM    3  C9  UNL     1      49.312  56.017  18.489  1.00  0.00     0.029 C
HETATM    4  C10 UNL     1      50.615  55.224  18.692  1.00  0.00     0.026 C
HETATM    5  C11 UNL     1      50.293  53.976  19.406  1.00  0.00     0.036 C
HETATM    6  C12 UNL     1      49.518  53.084  18.426  1.00  0.00     0.128 C
HETATM    7  C13 UNL     1      49.419  54.121  20.628  1.00  0.00     0.101 C
HETATM    8  C15 UNL     1      49.228  55.547  20.975  1.00  0.00     0.042 C
HETATM    9  C16 UNL     1      50.040  56.031  22.159  1.00  0.00     0.053 C
HETATM   10  C17 UNL     1      51.515  56.069  21.905  1.00  0.00     0.059 C
HETATM   11  N1  UNL     1      51.915  56.267  20.578  1.00  0.00    -0.383 N
HETATM   12  C20 UNL     1      51.010  56.396  19.554  1.00  0.00     0.123 C
HETATM   13  C21 UNL     1      49.534  56.513  19.869  1.00  0.00     0.087 C
ENDROOT
BRANCH   1  14
HETATM   14  C6  UNL     1      47.379  53.080  17.114  1.00  0.00     0.034 C
BRANCH  14  15
HETATM   15  C5  UNL     1      47.701  52.041  16.141  1.00  0.00    -0.024 C
HETATM   16  C3  UNL     1      47.664  50.751  16.170  1.00  0.00    -0.088 C
HETATM   17  C4  UNL     1      48.108  50.075  14.849  1.00  0.00     0.043 C
BRANCH  16  18
HETATM   18  C2  UNL     1      47.285  49.784  17.190  1.00  0.00     0.029 C
HETATM   19  C1  UNL     1      45.900  49.304  17.284  1.00  0.00     0.010 C
ENDBRANCH  16  18
ENDBRANCH  14  15
ENDBRANCH   1  14
BRANCH   6  20
HETATM   20  O1  UNL     1      50.443  52.302  17.739  1.00  0.00    -0.395 OA
ATOM     21  H1  UNL     1      50.376  51.376  17.940  1.00  0.00     0.210 HD
ENDBRANCH   6  20
BRANCH  13  22
HETATM   22  O5  UNL     1      49.106  57.789  20.171  1.00  0.00    -0.387 OA
ATOM     23  H5  UNL     1      48.690  57.930  21.013  1.00  0.00     0.210 HD
ENDBRANCH  13  22
BRANCH   7  24
HETATM   24  C14 UNL     1      49.945  53.262  21.718  1.00  0.00     0.177 C
HETATM   25  O2  UNL     1      49.226  52.977  22.707  1.00  0.00    -0.648 OA
HETATM   26  O3  UNL     1      51.232  52.760  21.667  1.00  0.00    -0.648 OA
ENDBRANCH   7  24
BRANCH  11  27
HETATM   27  C18 UNL     1      53.074  57.157  20.471  1.00  0.00     0.148 C
BRANCH  27  28
HETATM   28  C19 UNL     1      52.898  58.441  21.208  1.00  0.00     0.183 C
BRANCH  28  29
HETATM   29  O4  UNL     1      53.796  58.457  22.286  1.00  0.00    -0.399 OA
ATOM     30  H4  UNL     1      54.658  58.231  21.958  1.00  0.00     0.209 HD
ENDBRANCH  28  29
ENDBRANCH  27  28
ENDBRANCH  11  27
TORSDOF 9
ENDMDL