MODEL 4
REMARK VINA RESULT: -7.091175206      2.572      7.552
REMARK  9 active torsions:
REMARK  status: ('A' for Active; 'I' for Inactive)
REMARK    1  A    between atoms: N1_2  and  C2_5
REMARK    2  A    between atoms: C9_12  and  C10_13
REMARK    3  A    between atoms: C10_13  and  N2_15
REMARK    4  A    between atoms: N2_15  and  C12_17
REMARK    5  A    between atoms: C12_17  and  N3_19
REMARK    6  A    between atoms: N3_19  and  C13_21
REMARK    7  A    between atoms: C13_21  and  C14_22
REMARK    8  A    between atoms: C14_22  and  O1_25
REMARK    9  A    between atoms: C17_27  and  O2_28
ROOT
HETATM    1  C2  UNL     1      51.152  57.442  21.765  1.00  0.00     0.209 C
HETATM    2  C3  UNL     1      49.721  58.011  21.908  1.00  0.00     0.035 C
HETATM    3  C4  UNL     1      48.967  58.146  20.658  1.00  0.00     0.002 C
HETATM    4  C5  UNL     1      47.661  57.497  20.482  1.00  0.00     0.000 C
HETATM    5  C6  UNL     1      47.369  56.152  20.965  1.00  0.00     0.000 C
HETATM    6  C7  UNL     1      47.647  54.998  20.003  1.00  0.00     0.001 C
HETATM    7  C8  UNL     1      48.585  53.951  20.593  1.00  0.00     0.011 C
HETATM    8  C9  UNL     1      49.948  53.901  19.986  1.00  0.00     0.063 C
HETATM    9  C17 UNL     1      51.088  53.925  20.946  1.00  0.00     0.262 C
HETATM   10  O3  UNL     1      51.809  55.139  21.031  1.00  0.00    -0.359 OA
HETATM   11  C18 UNL     1      50.881  56.078  21.262  1.00  0.00     0.203 C
ENDROOT
BRANCH   8  12
HETATM   12  C10 UNL     1      50.146  52.584  19.188  1.00  0.00     0.088 C
HETATM   13  C11 UNL     1      49.328  52.617  17.929  1.00  0.00     0.032 C
BRANCH  12  14
HETATM   14  N2  UNL     1      49.814  51.450  19.958  1.00  0.00    -0.362 N
ATOM     15  H2  UNL     1      49.173  51.525  20.748  1.00  0.00     0.162 HD
BRANCH  14  16
HETATM   16  C12 UNL     1      50.401  50.180  19.600  1.00  0.00     0.168 C
HETATM   17  S1  UNL     1      52.017  49.980  19.717  1.00  0.00    -0.041 SA
BRANCH  16  18
HETATM   18  N3  UNL     1      49.613  49.119  19.133  1.00  0.00    -0.364 N
ATOM     19  H3  UNL     1      50.012  48.193  19.287  1.00  0.00     0.162 HD
BRANCH  18  20
HETATM   20  C13 UNL     1      48.358  49.121  18.485  1.00  0.00     0.159 C
BRANCH  20  21
HETATM   21  C14 UNL     1      48.290  48.736  17.054  1.00  0.00     0.066 C
HETATM   22  C15 UNL     1      48.048  47.239  16.874  1.00  0.00     0.047 C
HETATM   23  C16 UNL     1      47.054  49.415  16.433  1.00  0.00     0.047 C
BRANCH  21  24
HETATM   24  O1  UNL     1      49.356  49.108  16.267  1.00  0.00    -0.389 OA
ATOM     25  H1  UNL     1      49.917  49.796  16.609  1.00  0.00     0.210 HD
ENDBRANCH  21  24
ENDBRANCH  20  21
ENDBRANCH  18  20
ENDBRANCH  16  18
ENDBRANCH  14  16
ENDBRANCH  12  14
ENDBRANCH   8  12
BRANCH   9  26
HETATM   26  O2  UNL     1      52.051  52.950  20.720  1.00  0.00    -0.371 OA
ATOM     27  H2  UNL     1      52.806  53.250  20.227  1.00  0.00     0.212 HD
ENDBRANCH   9  26
BRANCH   1  28
HETATM   28  N1  UNL     1      51.967  58.246  20.912  1.00  0.00    -0.073 N
HETATM   29  C1  UNL     1      53.347  58.193  21.320  1.00  0.00     0.267 C
ATOM     30  H12 UNL     1      51.625  59.205  20.861  1.00  0.00     0.277 HD
ATOM     31  H11 UNL     1      51.854  57.988  19.931  1.00  0.00     0.277 HD
ENDBRANCH   1  28
TORSDOF 9
ENDMDL