MODEL 1
REMARK VINA RESULT: -8.366683573      0.000      0.000
REMARK  6 active torsions:
REMARK  status: ('A' for Active; 'I' for Inactive)
REMARK    1  A    between atoms: C5_8  and  C6_9
REMARK    2  A    between atoms: C6_9  and  C7_10
REMARK    3  A    between atoms: C7_10  and  C8_11
REMARK    4  A    between atoms: C12_17  and  C13_18
REMARK    5  A    between atoms: C13_18  and  O2_19
REMARK    6  A    between atoms: C13_18  and  C14_21
ROOT
HETATM    1  O1  UNL     1      51.303  54.593  22.716  1.00  0.00    -0.270 OA
HETATM    2  C1  UNL     1      50.895  55.534  22.009  1.00  0.00     0.259 C
HETATM    3  N1  UNL     1      51.383  56.844  22.151  1.00  0.00    -0.354 N
ATOM      4  H1  UNL     1      52.158  57.037  22.786  1.00  0.00     0.162 HD
HETATM    5  C2  UNL     1      50.785  57.911  21.397  1.00  0.00     0.163 C
HETATM    6  C3  UNL     1      49.326  57.673  21.157  1.00  0.00    -0.012 A
HETATM    7  C4  UNL     1      48.209  58.475  21.075  1.00  0.00     0.035 A
HETATM    8  C5  UNL     1      47.104  57.719  20.833  1.00  0.00     0.010 A
HETATM    9  N3  UNL     1      47.550  56.425  20.763  1.00  0.00    -0.360 N
ATOM     10  H3  UNL     1      46.961  55.611  20.590  1.00  0.00     0.165 HD
HETATM   11  C15 UNL     1      48.871  56.391  20.955  1.00  0.00     0.062 A
HETATM   12  C16 UNL     1      49.865  55.267  20.987  1.00  0.00     0.183 C
HETATM   13  C17 UNL     1      49.212  53.937  21.222  1.00  0.00     0.057 C
HETATM   14  C18 UNL     1      49.566  53.160  19.979  1.00  0.00     0.030 C
HETATM   15  C19 UNL     1      49.859  54.264  18.995  1.00  0.00     0.170 C
HETATM   16  O3  UNL     1      50.510  55.203  19.757  1.00  0.00    -0.364 OA
ENDROOT
BRANCH   8  17
HETATM   17  C6  UNL     1      45.668  58.054  20.678  1.00  0.00     0.057 C
BRANCH  17  18
HETATM   18  C7  UNL     1      45.267  58.517  19.348  1.00  0.00     0.013 C
BRANCH  18  19
HETATM   19  C8  UNL     1      45.822  59.771  18.812  1.00  0.00     0.011 C
HETATM   20  C9  UNL     1      45.073  61.016  19.205  1.00  0.00     0.008 C
HETATM   21  C10 UNL     1      45.987  62.187  18.859  1.00  0.00     0.020 C
HETATM   22  C11 UNL     1      46.182  62.136  17.355  1.00  0.00     0.114 C
HETATM   23  N2  UNL     1      45.490  61.038  16.759  1.00  0.00    -0.414 N
HETATM   24  C12 UNL     1      45.829  59.754  17.282  1.00  0.00     0.110 C
ATOM     25  H2  UNL     1      44.805  61.161  16.014  1.00  0.00     0.153 HD
BRANCH  24  26
HETATM   26  C13 UNL     1      47.166  59.295  16.746  1.00  0.00     0.151 C
BRANCH  26  27
HETATM   27  O2  UNL     1      48.123  59.178  17.724  1.00  0.00    -0.393 OA
ATOM     28  H2  UNL     1      48.502  60.012  17.973  1.00  0.00     0.210 HD
ENDBRANCH  26  27
BRANCH  26  29
HETATM   29  C14 UNL     1      46.942  57.940  16.108  1.00  0.00     0.120 C
HETATM   30  S1  UNL     1      47.993  56.750  17.019  1.00  0.00    -0.095 SA
ENDBRANCH  26  29
ENDBRANCH  24  26
ENDBRANCH  18  19
ENDBRANCH  17  18
ENDBRANCH   8  17
TORSDOF 6
ENDMDL