MODEL 1
REMARK VINA RESULT: -5.842440041      0.000      0.000
REMARK  7 active torsions:
REMARK  status: ('A' for Active; 'I' for Inactive)
REMARK    1  A    between atoms: C2_2  and  N1_3
REMARK    2  A    between atoms: N1_3  and  C3_4
REMARK    3  A    between atoms: N1_3  and  C8_10
REMARK    4  A    between atoms: C3_4  and  C4_5
REMARK    5  A    between atoms: C4_5  and  C5_6
REMARK    6  A    between atoms: C5_6  and  N2_7
REMARK    7  A    between atoms: C8_10  and  C9_11
ROOT
HETATM    1  C9  UNL     1      49.068  50.493  17.779  1.00  0.00     0.122 C
HETATM    2  C10 UNL     1      48.479  51.277  18.960  1.00  0.00     0.041 C
HETATM    3  C11 UNL     1      49.510  52.211  19.554  1.00  0.00     0.084 C
HETATM    4  S1  UNL     1      51.106  51.300  19.622  1.00  0.00    -0.095 SA
HETATM    5  C12 UNL     1      50.653  49.567  19.389  1.00  0.00     0.134 C
HETATM    6  N3  UNL     1      51.172  48.631  20.069  1.00  0.00    -0.380 N
ATOM      7  H31 UNL     1      50.916  47.653  19.938  1.00  0.00     0.158 HD
ATOM      8  H32 UNL     1      51.876  48.809  20.786  1.00  0.00     0.158 HD
HETATM    9  N4  UNL     1      49.656  49.314  18.374  1.00  0.00    -0.362 N
ATOM     10  H4  UNL     1      49.386  48.370  18.097  1.00  0.00     0.162 HD
ENDROOT
BRANCH   1  11
HETATM   11  C8  UNL     1      47.992  50.249  16.796  1.00  0.00     0.083 C
BRANCH  11  12
HETATM   12  N1  UNL     1      46.691  49.986  17.241  1.00  0.00    -0.391 N
BRANCH  12  13
HETATM   13  C2  UNL     1      45.712  50.995  17.029  1.00  0.00     0.117 C
HETATM   14  C1  UNL     1      46.025  51.884  15.853  1.00  0.00     0.026 C
ENDBRANCH  12  13
BRANCH  12  15
HETATM   15  C3  UNL     1      46.209  48.649  17.177  1.00  0.00     0.127 C
BRANCH  15  16
HETATM   16  C4  UNL     1      44.842  48.430  17.771  1.00  0.00     0.064 C
BRANCH  16  17
HETATM   17  C5  UNL     1      44.827  47.551  18.981  1.00  0.00     0.058 C
BRANCH  17  18
HETATM   18  N2  UNL     1      43.800  46.595  18.877  1.00  0.00    -0.402 N
HETATM   19  C6  UNL     1      43.277  46.270  17.610  1.00  0.00     0.148 C
HETATM   20  C7  UNL     1      43.144  46.149  20.035  1.00  0.00     0.148 C
ENDBRANCH  17  18
ENDBRANCH  16  17
ENDBRANCH  15  16
ENDBRANCH  12  15
ENDBRANCH  11  12
ENDBRANCH   1  11
TORSDOF 7
ENDMDL