MODEL 3
REMARK VINA RESULT: -6.785165670      0.591      1.696
REMARK  6 active torsions:
REMARK  status: ('A' for Active; 'I' for Inactive)
REMARK    1  A    between atoms: C2_2  and  C3_3
REMARK    2  A    between atoms: C3_3  and  C4_4
REMARK    3  A    between atoms: C4_4  and  C5_5
REMARK    4  A    between atoms: C5_5  and  C6_6
REMARK    5  A    between atoms: C6_6  and  C7_7
REMARK    6  A    between atoms: C7_7  and  C8_8
ROOT
HETATM    1  C8  UNL     1      48.158  48.630  17.072  1.00  0.00     0.383 C
HETATM    2  N1  UNL     1      49.215  49.511  16.612  1.00  0.00    -0.039 N
ATOM      3  H11 UNL     1      48.961  50.056  15.787  1.00  0.00     0.280 HD
ATOM      4  H12 UNL     1      50.004  49.018  16.196  1.00  0.00     0.280 HD
HETATM    5  C9  UNL     1      49.570  50.307  17.727  1.00  0.00     0.233 C
HETATM    6  C10 UNL     1      51.022  50.546  17.959  1.00  0.00     0.175 C
HETATM    7  S1  UNL     1      50.960  50.960  19.719  1.00  0.00     0.148 S
HETATM    8  O1  UNL     1      52.026  50.234  20.446  1.00  0.00    -0.228 OA
HETATM    9  O2  UNL     1      50.957  52.426  19.923  1.00  0.00    -0.228 OA
HETATM   10  C11 UNL     1      49.331  50.250  20.065  1.00  0.00     0.175 C
HETATM   11  C12 UNL     1      49.224  49.348  18.882  1.00  0.00     0.233 C
HETATM   12  N2  UNL     1      47.897  49.003  18.474  1.00  0.00    -0.039 N
ATOM     13  H21 UNL     1      47.423  48.300  19.041  1.00  0.00     0.280 HD
ATOM     14  H22 UNL     1      47.184  49.717  18.621  1.00  0.00     0.280 HD
ENDROOT
BRANCH   1  15
HETATM   15  C7  UNL     1      46.918  48.727  16.240  1.00  0.00     0.062 C
BRANCH  15  16
HETATM   16  C6  UNL     1      46.139  47.445  16.301  1.00  0.00     0.004 C
BRANCH  16  17
HETATM   17  C5  UNL     1      44.663  47.669  16.484  1.00  0.00     0.000 C
BRANCH  17  18
HETATM   18  C4  UNL     1      44.408  48.307  17.812  1.00  0.00     0.000 C
BRANCH  18  19
HETATM   19  C3  UNL     1      44.616  47.380  18.987  1.00  0.00    -0.000 C
BRANCH  19  20
HETATM   20  C2  UNL     1      43.325  46.568  19.111  1.00  0.00    -0.005 C
HETATM   21  C1  UNL     1      43.161  46.199  20.552  1.00  0.00     0.005 C
ENDBRANCH  19  20
ENDBRANCH  18  19
ENDBRANCH  17  18
ENDBRANCH  16  17
ENDBRANCH  15  16
ENDBRANCH   1  15
TORSDOF 6
ENDMDL