MODEL 3
REMARK VINA RESULT: -6.084789078      2.662      3.810
REMARK  5 active torsions:
REMARK  status: ('A' for Active; 'I' for Inactive)
REMARK    1  A    between atoms: C1_2  and  C2_4
REMARK       I    between atoms: C2_4  and  N1_6
REMARK    2  A    between atoms: N1_6  and  C3_8
REMARK    3  A    between atoms: C8_13  and  O3_14
REMARK    4  A    between atoms: O3_14  and  C9_15
REMARK    5  A    between atoms: C9_15  and  C10_16
ROOT
HETATM    1  C3  UNL     1      48.572  49.177  16.899  1.00  0.00     0.114 C
HETATM    2  C4  UNL     1      48.181  47.811  16.367  1.00  0.00     0.028 C
HETATM    3  C5  UNL     1      48.098  47.958  14.884  1.00  0.00     0.002 C
HETATM    4  C6  UNL     1      47.108  48.977  14.454  1.00  0.00     0.003 C
HETATM    5  C7  UNL     1      47.052  50.227  15.215  1.00  0.00     0.034 C
HETATM    6  C8  UNL     1      47.485  50.150  16.668  1.00  0.00     0.144 C
ENDROOT
BRANCH   1   7
HETATM    7  N1  UNL     1      49.077  49.114  18.221  1.00  0.00    -0.347 N
HETATM    8  C2  UNL     1      50.278  49.754  18.634  1.00  0.00     0.299 C
HETATM    9  O2  UNL     1      50.910  50.406  17.763  1.00  0.00    -0.263 OA
ATOM     10  H1  UNL     1      48.550  48.581  18.914  1.00  0.00     0.163 HD
BRANCH   8  11
HETATM   11  C1  UNL     1      50.788  49.685  19.995  1.00  0.00     0.287 C
HETATM   12  O1  UNL     1      51.989  49.951  20.248  1.00  0.00    -0.274 OA
HETATM   13  S1  UNL     1      49.710  49.216  21.336  1.00  0.00    -0.001 SA
ENDBRANCH   8  11
ENDBRANCH   1   7
BRANCH   6  14
HETATM   14  O3  UNL     1      47.897  51.404  17.067  1.00  0.00    -0.383 OA
BRANCH  14  15
HETATM   15  C9  UNL     1      47.309  51.965  18.148  1.00  0.00     0.172 C
BRANCH  15  16
HETATM   16  C10 UNL     1      48.028  53.091  18.798  1.00  0.00     0.009 A
HETATM   17  C11 UNL     1      48.549  52.720  20.196  1.00  0.00     0.007 A
HETATM   18  C12 UNL     1      47.563  53.823  19.975  1.00  0.00     0.007 A
ENDBRANCH  15  16
ENDBRANCH  14  15
ENDBRANCH   6  14
TORSDOF 5
ENDMDL