MODEL 2
REMARK VINA RESULT: -6.866792224      1.606      3.074
REMARK  6 active torsions:
REMARK  status: ('A' for Active; 'I' for Inactive)
REMARK    1  A    between atoms: C2_2  and  C3_3
REMARK    2  A    between atoms: C3_3  and  N1_4
REMARK    3  A    between atoms: C7_8  and  C8_9
REMARK    4  A    between atoms: C8_9  and  N2_10
REMARK    5  A    between atoms: N2_10  and  C9_12
REMARK    6  A    between atoms: C13_17  and  O2_18
ROOT
HETATM    1  C8  UNL     1      47.862  48.441  18.843  1.00  0.00     0.062 C
ENDROOT
BRANCH   1   2
HETATM    2  C7  UNL     1      46.671  48.311  17.909  1.00  0.00     0.052 C
HETATM    3  C6  UNL     1      45.402  48.007  18.676  1.00  0.00     0.013 C
HETATM    4  C5  UNL     1      44.276  47.912  17.705  1.00  0.00     0.031 C
HETATM    5  C4  UNL     1      44.538  47.025  16.515  1.00  0.00     0.272 C
HETATM    6  N1  UNL     1      45.870  47.208  15.977  1.00  0.00     0.089 N
HETATM    7  C14 UNL     1      46.888  47.139  16.967  1.00  0.00     0.282 C
BRANCH   6   8
HETATM    8  C3  UNL     1      45.976  48.314  15.091  1.00  0.00     0.272 C
BRANCH   8   9
HETATM    9  C2  UNL     1      46.390  47.831  13.721  1.00  0.00     0.026 C
HETATM   10  C1  UNL     1      47.790  48.399  13.486  1.00  0.00     0.007 C
ENDBRANCH   8   9
ENDBRANCH   6   8
ENDBRANCH   1   2
BRANCH   1  11
HETATM   11  N2  UNL     1      48.965  48.965  18.139  1.00  0.00    -0.395 N
ATOM     12  H2  UNL     1      48.983  48.949  17.119  1.00  0.00     0.159 HD
BRANCH  11  13
HETATM   13  C9  UNL     1      50.044  49.510  18.868  1.00  0.00     0.113 C
HETATM   14  C10 UNL     1      49.897  49.410  20.372  1.00  0.00     0.054 C
HETATM   15  C11 UNL     1      50.936  50.248  21.080  1.00  0.00     0.169 C
HETATM   16  O1  UNL     1      51.849  50.802  20.182  1.00  0.00    -0.388 OA
HETATM   17  C12 UNL     1      51.139  51.702  19.390  1.00  0.00     0.201 C
HETATM   18  C13 UNL     1      50.334  50.903  18.397  1.00  0.00     0.164 C
BRANCH  18  19
HETATM   19  O2  UNL     1      51.026  50.854  17.181  1.00  0.00    -0.391 OA
ATOM     20  H2  UNL     1      50.418  50.977  16.461  1.00  0.00     0.210 HD
ENDBRANCH  18  19
ENDBRANCH  11  13
ENDBRANCH   1  11
TORSDOF 6
ENDMDL