MODEL 3
REMARK VINA RESULT: -5.808755285      1.744      1.911
REMARK  8 active torsions:
REMARK  status: ('A' for Active; 'I' for Inactive)
REMARK    1  A    between atoms: O1_3  and  C2_4
REMARK    2  A    between atoms: C2_4  and  C3_5
REMARK    3  A    between atoms: C3_5  and  N2_6
REMARK    4  A    between atoms: N2_6  and  C4_8
REMARK    5  A    between atoms: C4_8  and  N3_10
REMARK    6  A    between atoms: N3_10  and  C5_12
REMARK    7  A    between atoms: C5_12  and  C6_13
REMARK    8  A    between atoms: C6_13  and  C7_14
ROOT
HETATM    1  N1  UNL     1      50.259  52.941  22.097  1.00  0.00    -0.164 NA
HETATM    2  C1  UNL     1      50.560  51.870  21.789  1.00  0.00     0.228 C
HETATM    3  O1  UNL     1      50.944  50.627  21.423  1.00  0.00    -0.282 OA
ENDROOT
BRANCH   3   4
HETATM    4  C2  UNL     1      50.165  49.542  21.055  1.00  0.00     0.209 C
BRANCH   4   5
HETATM    5  C3  UNL     1      49.187  49.748  19.955  1.00  0.00     0.149 C
BRANCH   5   6
HETATM    6  N2  UNL     1      49.573  49.152  18.720  1.00  0.00    -0.365 N
ATOM      7  H2  UNL     1      49.690  48.143  18.634  1.00  0.00     0.161 HD
BRANCH   6   8
HETATM    8  C4  UNL     1      49.791  50.027  17.598  1.00  0.00     0.167 C
HETATM    9  S1  UNL     1      50.996  51.132  17.741  1.00  0.00    -0.041 SA
BRANCH   8  10
HETATM   10  N3  UNL     1      48.998  49.891  16.437  1.00  0.00    -0.367 N
ATOM     11  H3  UNL     1      48.213  50.528  16.305  1.00  0.00     0.161 HD
BRANCH  10  12
HETATM   12  C5  UNL     1      49.251  48.895  15.433  1.00  0.00     0.124 C
BRANCH  12  13
HETATM   13  C6  UNL     1      48.252  47.801  15.542  1.00  0.00     0.051 C
BRANCH  13  14
HETATM   14  C7  UNL     1      46.952  48.170  16.174  1.00  0.00     0.123 C
HETATM   15  C8  UNL     1      45.729  47.641  15.533  1.00  0.00     0.032 C
HETATM   16  C9  UNL     1      44.606  47.362  16.491  1.00  0.00     0.004 C
HETATM   17  C10 UNL     1      44.640  48.184  17.739  1.00  0.00     0.026 C
HETATM   18  C11 UNL     1      46.017  48.651  18.134  1.00  0.00     0.168 C
HETATM   19  O2  UNL     1      46.953  47.788  17.535  1.00  0.00    -0.386 OA
ENDBRANCH  13  14
ENDBRANCH  12  13
ENDBRANCH  10  12
ENDBRANCH   8  10
ENDBRANCH   6   8
ENDBRANCH   5   6
ENDBRANCH   4   5
ENDBRANCH   3   4
TORSDOF 8
ENDMDL