MODEL 2
REMARK VINA RESULT: -6.924433842      0.549      1.279
REMARK  8 active torsions:
REMARK  status: ('A' for Active; 'I' for Inactive)
REMARK    1  A    between atoms: C2_2  and  S1_3
REMARK    2  A    between atoms: S1_3  and  C3_5
REMARK    3  A    between atoms: C3_5  and  C4_6
REMARK    4  A    between atoms: C4_6  and  C5_7
REMARK    5  A    between atoms: C5_7  and  N1_8
REMARK    6  A    between atoms: C5_7  and  N2_12
REMARK    7  A    between atoms: C5_7  and  C7_15
REMARK    8  A    between atoms: N2_12  and  O2_13
ROOT
HETATM    1  C5  UNL     1      50.225  54.858  21.487  1.00  0.00     0.222 C
ENDROOT
BRANCH   1   2
HETATM    2  C4  UNL     1      50.256  53.395  21.653  1.00  0.00     0.072 C
BRANCH   2   3
HETATM    3  C3  UNL     1      50.392  52.508  20.487  1.00  0.00     0.112 C
BRANCH   3   4
HETATM    4  S1  UNL     1      50.606  50.795  20.964  1.00  0.00     0.014 S
HETATM    5  O1  UNL     1      52.095  50.206  20.530  1.00  0.00    -0.258 OA
BRANCH   4   6
HETATM    6  C2  UNL     1      49.278  49.795  20.355  1.00  0.00     0.104 C
HETATM    7  C1  UNL     1      49.257  48.503  21.143  1.00  0.00     0.018 C
ENDBRANCH   4   6
ENDBRANCH   3   4
ENDBRANCH   2   3
ENDBRANCH   1   2
BRANCH   1   8
HETATM    8  N1  UNL     1      50.385  55.374  22.910  1.00  0.00    -0.053 N
ATOM      9  H13 UNL     1      50.849  54.726  23.546  1.00  0.00     0.276 HD
ATOM     10  H12 UNL     1      51.064  56.128  23.014  1.00  0.00     0.276 HD
ATOM     11  H11 UNL     1      49.432  55.622  23.177  1.00  0.00     0.276 HD
ENDBRANCH   1   8
BRANCH   1  12
HETATM   12  N2  UNL     1      51.298  55.411  20.734  1.00  0.00    -0.061 NA
BRANCH  12  13
HETATM   13  O2  UNL     1      52.200  56.066  21.527  1.00  0.00    -0.289 OA
HETATM   14  C6  UNL     1      52.739  57.172  20.910  1.00  0.00     0.231 C
ENDBRANCH  12  13
ENDBRANCH   1  12
BRANCH   1  15
HETATM   15  C7  UNL     1      48.916  55.496  21.113  1.00  0.00     0.040 C
HETATM   16  C8  UNL     1      48.615  55.543  19.663  1.00  0.00     0.008 C
HETATM   17  C9  UNL     1      47.521  56.461  19.251  1.00  0.00     0.001 C
HETATM   18  C10 UNL     1      47.306  57.695  20.044  1.00  0.00     0.000 C
HETATM   19  C11 UNL     1      47.453  57.379  21.529  1.00  0.00     0.001 C
HETATM   20  C12 UNL     1      48.919  56.928  21.661  1.00  0.00     0.008 C
ENDBRANCH   1  15
TORSDOF 8
ENDMDL