MODEL 1
REMARK VINA RESULT: -6.823447395      0.000      0.000
REMARK  7 active torsions:
REMARK  status: ('A' for Active; 'I' for Inactive)
REMARK    1  A    between atoms: O1_2  and  C2_3
REMARK    2  A    between atoms: C2_3  and  C3_4
REMARK    3  A    between atoms: C3_4  and  O2_5
REMARK    4  A    between atoms: C3_4  and  C4_7
REMARK    5  A    between atoms: C4_7  and  N1_8
REMARK    6  A    between atoms: N1_8  and  C5_11
REMARK    7  A    between atoms: C5_11  and  C6_12
ROOT
HETATM    1  C5  UNL     1      48.517  49.292  16.877  1.00  0.00     0.237 C
ENDROOT
BRANCH   1   2
HETATM    2  N1  UNL     1      49.427  49.061  17.985  1.00  0.00    -0.072 N
ATOM      3  H12 UNL     1      50.177  49.752  18.011  1.00  0.00     0.277 HD
ATOM      4  H11 UNL     1      49.995  48.226  17.842  1.00  0.00     0.277 HD
BRANCH   2   5
HETATM    5  C4  UNL     1      48.696  49.009  19.232  1.00  0.00     0.265 C
BRANCH   5   6
HETATM    6  C3  UNL     1      49.664  49.008  20.415  1.00  0.00     0.167 C
BRANCH   6   7
HETATM    7  C2  UNL     1      51.013  49.407  19.910  1.00  0.00     0.200 C
BRANCH   7   8
HETATM    8  O1  UNL     1      51.631  50.337  20.764  1.00  0.00    -0.393 OA
HETATM    9  C1  UNL     1      50.669  51.085  21.434  1.00  0.00     0.201 C
ENDBRANCH   7   8
ENDBRANCH   6   7
BRANCH   6  10
HETATM   10  O2  UNL     1      49.654  47.738  21.006  1.00  0.00    -0.392 OA
ATOM     11  H2  UNL     1      49.113  47.114  20.536  1.00  0.00     0.210 HD
ENDBRANCH   6  10
ENDBRANCH   5   6
ENDBRANCH   2   5
ENDBRANCH   1   2
BRANCH   1  12
HETATM   12  C6  UNL     1      48.156  48.000  16.242  1.00  0.00     0.020 C
HETATM   13  C7  UNL     1      48.881  47.903  14.919  1.00  0.00     0.007 C
HETATM   14  C8  UNL     1      47.857  48.080  13.864  1.00  0.00     0.001 C
HETATM   15  C9  UNL     1      46.608  47.527  14.462  1.00  0.00     0.010 C
HETATM   16  C10 UNL     1      46.681  47.807  15.974  1.00  0.00    -0.031 C
HETATM   17  C11 UNL     1      46.163  46.569  16.641  1.00  0.00     0.036 C
HETATM   18  C14 UNL     1      45.828  49.003  16.199  1.00  0.00     0.036 C
HETATM   19  C12 UNL     1      45.185  46.779  17.727  1.00  0.00     0.168 C
HETATM   20  O3  UNL     1      44.337  47.867  17.557  1.00  0.00    -0.391 OA
HETATM   21  C13 UNL     1      45.193  48.993  17.573  1.00  0.00     0.168 C
ENDBRANCH   1  12
TORSDOF 7
ENDMDL