MODEL 5
REMARK VINA RESULT: -6.613784998      4.381      8.672
REMARK  6 active torsions:
REMARK  status: ('A' for Active; 'I' for Inactive)
REMARK    1  A    between atoms: C2_2  and  C3_3
REMARK    2  A    between atoms: C3_3  and  N1_4
REMARK    3  A    between atoms: C5_7  and  C6_8
REMARK    4  A    between atoms: C6_8  and  N2_9
REMARK    5  A    between atoms: N2_9  and  C7_12
REMARK    6  A    between atoms: C12_20  and  C13_21
ROOT
HETATM    1  N1  UNL     1      46.174  47.984  16.404  1.00  0.00    -0.347 N
HETATM    2  C4  UNL     1      47.492  47.540  16.423  1.00  0.00     0.229 C
HETATM    3  O1  UNL     1      48.396  48.251  17.188  1.00  0.00    -0.339 OA
HETATM    4  C5  UNL     1      47.889  48.852  18.303  1.00  0.00     0.157 C
HETATM    5  C11 UNL     1      46.595  48.214  18.738  1.00  0.00     0.059 C
HETATM    6  C12 UNL     1      45.631  48.551  17.579  1.00  0.00     0.092 C
ENDROOT
BRANCH   4   7
HETATM    7  C6  UNL     1      48.853  49.081  19.401  1.00  0.00     0.265 C
BRANCH   7   8
HETATM    8  N2  UNL     1      50.221  49.316  19.001  1.00  0.00    -0.067 N
ATOM      9  H22 UNL     1      50.810  48.486  19.060  1.00  0.00     0.277 HD
ATOM     10  H21 UNL     1      50.331  49.474  18.000  1.00  0.00     0.277 HD
BRANCH   8  11
HETATM   11  C7  UNL     1      50.689  50.417  19.816  1.00  0.00     0.213 C
HETATM   12  C8  UNL     1      49.851  51.667  19.711  1.00  0.00     0.062 C
HETATM   13  C9  UNL     1      50.329  52.402  20.973  1.00  0.00     0.234 C
HETATM   14  N3  UNL     1      50.569  51.377  21.955  1.00  0.00    -0.073 N
HETATM   15  C10 UNL     1      50.599  50.109  21.289  1.00  0.00     0.265 C
ATOM     16  H32 UNL     1      51.410  51.551  22.505  1.00  0.00     0.277 HD
ATOM     17  H31 UNL     1      49.894  51.402  22.720  1.00  0.00     0.277 HD
ENDBRANCH   8  11
ENDBRANCH   7   8
ENDBRANCH   4   7
BRANCH   6  18
HETATM   18  C13 UNL     1      44.227  48.262  17.927  1.00  0.00     0.021 C
HETATM   19  C14 UNL     1      43.961  47.029  18.717  1.00  0.00     0.007 C
ENDBRANCH   6  18
BRANCH   1  20
HETATM   20  C3  UNL     1      45.435  48.055  15.213  1.00  0.00     0.065 C
BRANCH  20  21
HETATM   21  C2  UNL     1      45.064  46.839  14.461  1.00  0.00     0.040 C
HETATM   22  C1  UNL     1      44.499  45.665  15.183  1.00  0.00     0.010 C
ENDBRANCH  20  21
ENDBRANCH   1  20
TORSDOF 6
ENDMDL