MODEL 2
REMARK VINA RESULT: -6.390826640      1.701      2.373
REMARK  7 active torsions:
REMARK  status: ('A' for Active; 'I' for Inactive)
REMARK    1  A    between atoms: C2_2  and  C3_3
REMARK    2  A    between atoms: C4_5  and  C5_6
REMARK    3  A    between atoms: C7_8  and  N1_9
REMARK    4  A    between atoms: N1_9  and  C8_11
REMARK    5  A    between atoms: C8_11  and  C9_12
REMARK    6  A    between atoms: C9_12  and  N2_13
REMARK    7  A    between atoms: C14_18  and  O2_19
ROOT
HETATM    1  C3  UNL     1      49.882  49.482  20.428  1.00  0.00     0.152 C
HETATM    2  O1  UNL     1      48.952  50.126  19.609  1.00  0.00    -0.376 OA
HETATM    3  C4  UNL     1      49.399  49.657  18.346  1.00  0.00     0.146 C
HETATM    4  C7  UNL     1      50.849  50.227  18.413  1.00  0.00     0.137 C
HETATM    5  C14 UNL     1      51.226  49.840  19.814  1.00  0.00     0.171 C
ENDROOT
BRANCH   4   6
HETATM    6  N1  UNL     1      50.748  51.590  18.092  1.00  0.00    -0.408 N
ATOM      7  H1  UNL     1      50.331  51.874  17.206  1.00  0.00     0.154 HD
BRANCH   6   8
HETATM    8  C8  UNL     1      51.226  52.576  18.998  1.00  0.00     0.159 C
BRANCH   8   9
HETATM    9  C9  UNL     1      50.178  53.649  19.176  1.00  0.00     0.087 C
BRANCH   9  10
HETATM   10  N2  UNL     1      50.398  54.552  20.190  1.00  0.00    -0.353 N
HETATM   11  C10 UNL     1      49.350  54.924  21.050  1.00  0.00     0.068 C
HETATM   12  C11 UNL     1      49.961  55.778  22.126  1.00  0.00     0.050 C
HETATM   13  C12 UNL     1      51.199  56.325  21.471  1.00  0.00     0.050 C
HETATM   14  C13 UNL     1      51.418  55.477  20.232  1.00  0.00     0.068 C
ENDBRANCH   9  10
ENDBRANCH   8   9
ENDBRANCH   6   8
ENDBRANCH   4   6
BRANCH   3  15
HETATM   15  C5  UNL     1      48.672  50.372  17.245  1.00  0.00     0.029 C
HETATM   16  C6  UNL     1      47.294  50.753  17.757  1.00  0.00     0.007 C
ENDBRANCH   3  15
BRANCH   5  17
HETATM   17  O2  UNL     1      51.946  48.602  19.776  1.00  0.00    -0.391 OA
ATOM     18  H2  UNL     1      52.561  48.706  19.060  1.00  0.00     0.210 HD
ENDBRANCH   5  17
BRANCH   1  19
HETATM   19  C2  UNL     1      49.756  49.872  21.862  1.00  0.00     0.030 C
HETATM   20  C1  UNL     1      49.470  51.353  21.956  1.00  0.00     0.007 C
ENDBRANCH   1  19
TORSDOF 7
ENDMDL