MODEL 3
REMARK VINA RESULT: -7.335420043      1.085      1.430
REMARK  14 active torsions:
REMARK  status: ('A' for Active; 'I' for Inactive)
REMARK    1  A    between atoms: C5_5  and  O1_6
REMARK    2  A    between atoms: O1_6  and  C6_7
REMARK    3  A    between atoms: C6_7  and  C7_9
REMARK    4  A    between atoms: C7_9  and  C8_10
REMARK    5  A    between atoms: C8_10  and  C9_11
REMARK    6  A    between atoms: C13_15  and  O3_16
REMARK    7  A    between atoms: O3_16  and  C14_17
REMARK    8  A    between atoms: C14_17  and  C15_19
REMARK    9  A    between atoms: C15_19  and  C16_20
REMARK   10  A    between atoms: C16_20  and  C17_21
REMARK   11  A    between atoms: C17_21  and  C18_22
REMARK   12  A    between atoms: C18_22  and  C19_23
REMARK   13  A    between atoms: C23_29  and  O7_30
REMARK   14  A    between atoms: C27_36  and  O9_37
ROOT
HETATM    1  C1  UNL     1      51.021  54.822  22.013  1.00  0.00     0.017 C
HETATM    2  C2  UNL     1      50.878  54.356  20.786  1.00  0.00    -0.047 C
HETATM    3  C3  UNL     1      51.357  55.128  19.607  1.00  0.00     0.039 C
HETATM    4  C4  UNL     1      50.222  55.528  18.681  1.00  0.00     0.037 C
HETATM    5  C5  UNL     1      49.131  54.506  18.870  1.00  0.00     0.140 C
HETATM    6  C11 UNL     1      49.806  53.156  19.016  1.00  0.00     0.064 C
HETATM    7  C12 UNL     1      48.949  52.030  18.549  1.00  0.00     0.048 C
HETATM    8  C13 UNL     1      49.578  51.128  17.540  1.00  0.00     0.161 C
HETATM    9  C20 UNL     1      51.011  50.822  17.777  1.00  0.00    -0.056 C
HETATM   10  C21 UNL     1      51.993  51.284  16.739  1.00  0.00     0.046 C
HETATM   11  C22 UNL     1      51.470  50.177  18.829  1.00  0.00     0.010 C
HETATM   12  C23 UNL     1      50.678  49.642  19.957  1.00  0.00     0.152 C
HETATM   13  C24 UNL     1      50.881  50.550  21.131  1.00  0.00     0.087 C
HETATM   14  C25 UNL     1      49.745  50.523  22.122  1.00  0.00     0.021 C
HETATM   15  C26 UNL     1      51.212  51.954  20.692  1.00  0.00     0.172 C
HETATM   16  O8  UNL     1      52.392  52.227  20.490  1.00  0.00    -0.294 OA
HETATM   17  C27 UNL     1      50.231  53.022  20.487  1.00  0.00     0.147 C
ENDROOT
BRANCH   8  18
HETATM   18  O3  UNL     1      48.790  49.927  17.494  1.00  0.00    -0.311 OA
BRANCH  18  19
HETATM   19  C14 UNL     1      48.127  49.525  16.341  1.00  0.00     0.259 C
HETATM   20  O4  UNL     1      48.818  49.514  15.288  1.00  0.00    -0.265 OA
BRANCH  19  21
HETATM   21  C15 UNL     1      46.698  49.130  16.337  1.00  0.00     0.111 C
BRANCH  21  22
HETATM   22  C16 UNL     1      46.029  49.469  17.651  1.00  0.00     0.010 C
BRANCH  22  23
HETATM   23  C17 UNL     1      45.381  48.274  18.271  1.00  0.00     0.011 C
BRANCH  23  24
HETATM   24  C18 UNL     1      45.824  47.956  19.662  1.00  0.00     0.113 C
BRANCH  24  25
HETATM   25  C19 UNL     1      44.876  47.182  20.469  1.00  0.00     0.172 C
HETATM   26  O5  UNL     1      43.834  46.649  20.038  1.00  0.00    -0.648 OA
HETATM   27  O6  UNL     1      45.154  47.027  21.822  1.00  0.00    -0.648 OA
ENDBRANCH  24  25
ENDBRANCH  23  24
ENDBRANCH  22  23
ENDBRANCH  21  22
ENDBRANCH  19  21
ENDBRANCH  18  19
ENDBRANCH   8  18
BRANCH   5  28
HETATM   28  O1  UNL     1      48.118  54.552  17.932  1.00  0.00    -0.316 OA
BRANCH  28  29
HETATM   29  C6  UNL     1      47.678  55.693  17.305  1.00  0.00     0.259 C
HETATM   30  O2  UNL     1      47.527  55.597  16.056  1.00  0.00    -0.265 OA
BRANCH  29  31
HETATM   31  C7  UNL     1      47.389  56.970  18.029  1.00  0.00     0.111 C
BRANCH  31  32
HETATM   32  C8  UNL     1      46.466  57.833  17.211  1.00  0.00     0.009 C
BRANCH  32  33
HETATM   33  C9  UNL     1      45.876  58.891  18.146  1.00  0.00    -0.004 C
HETATM   34  C10 UNL     1      44.967  58.253  19.172  1.00  0.00     0.005 C
ENDBRANCH  32  33
ENDBRANCH  31  32
ENDBRANCH  29  31
ENDBRANCH  28  29
ENDBRANCH   5  28
BRANCH  17  35
HETATM   35  O9  UNL     1      49.112  52.947  21.282  1.00  0.00    -0.377 OA
ATOM     36  H9  UNL     1      48.713  52.104  21.104  1.00  0.00     0.211 HD
ENDBRANCH  17  35
BRANCH  12  37
HETATM   37  O7  UNL     1      51.225  48.383  20.300  1.00  0.00    -0.391 OA
ATOM     38  H7  UNL     1      50.698  48.027  21.007  1.00  0.00     0.210 HD
ENDBRANCH  12  37
TORSDOF 14
ENDMDL