MODEL 3
REMARK VINA RESULT: -7.119174751      2.699      5.782
REMARK  14 active torsions:
REMARK  status: ('A' for Active; 'I' for Inactive)
REMARK    1  A    between atoms: C2_2  and  N1_3
REMARK    2  A    between atoms: N1_3  and  C3_4
REMARK    3  A    between atoms: N1_3  and  C4_7
REMARK    4  A    between atoms: C3_4  and  O1_5
REMARK    5  A    between atoms: C4_7  and  C5_8
REMARK    6  A    between atoms: C5_8  and  O2_9
REMARK    7  A    between atoms: C5_8  and  C6_11
REMARK    8  A    between atoms: C6_11  and  O3_12
REMARK    9  A    between atoms: O3_12  and  C7_13
REMARK   10  A    between atoms: C11_18  and  C12_19
REMARK   11  A    between atoms: C12_19  and  O5_22
REMARK   12  A    between atoms: C23_32  and  C24_33
REMARK   13  A    between atoms: C25_34  and  C26_35
REMARK   14  A    between atoms: C26_35  and  O7_37
ROOT
HETATM    1  C7  UNL     1      49.608  53.571  18.364  1.00  0.00     0.178 C
HETATM    2  C8  UNL     1      48.292  52.779  18.207  1.00  0.00     0.205 C
HETATM    3  O4  UNL     1      48.481  51.947  17.153  1.00  0.00    -0.376 OA
HETATM    4  C9  UNL     1      48.387  50.614  17.324  1.00  0.00     0.074 C
HETATM    5  C10 UNL     1      47.106  50.221  18.070  1.00  0.00     0.047 C
HETATM    6  C11 UNL     1      48.543  49.870  16.055  1.00  0.00     0.054 C
HETATM    7  C15 UNL     1      48.548  48.454  16.493  1.00  0.00     0.012 C
HETATM    8  C16 UNL     1      49.237  48.493  17.805  1.00  0.00     0.017 C
HETATM    9  C17 UNL     1      49.528  49.988  18.141  1.00  0.00     0.005 C
HETATM   10  C18 UNL     1      50.888  50.212  17.615  1.00  0.00     0.022 C
HETATM   11  C19 UNL     1      49.317  50.230  19.575  1.00  0.00    -0.014 C
HETATM   12  C20 UNL     1      49.541  51.165  20.418  1.00  0.00     0.004 C
HETATM   13  C21 UNL     1      50.092  52.476  20.534  1.00  0.00    -0.053 C
HETATM   14  C22 UNL     1      50.782  52.744  21.883  1.00  0.00     0.049 C
HETATM   15  C23 UNL     1      50.152  53.545  19.703  1.00  0.00    -0.021 C
ENDROOT
BRANCH   1  16
HETATM   16  O3  UNL     1      49.375  54.790  17.731  1.00  0.00    -0.377 OA
BRANCH  16  17
HETATM   17  C6  UNL     1      47.991  55.099  17.781  1.00  0.00     0.202 C
BRANCH  17  18
HETATM   18  C5  UNL     1      47.635  56.091  16.744  1.00  0.00     0.170 C
BRANCH  18  19
HETATM   19  C4  UNL     1      46.846  57.287  17.167  1.00  0.00     0.308 C
BRANCH  19  20
HETATM   20  N1  UNL     1      46.635  57.494  18.561  1.00  0.00     0.113 N
BRANCH  20  21
HETATM   21  C2  UNL     1      45.376  58.275  18.743  1.00  0.00     0.270 C
HETATM   22  C1  UNL     1      45.603  59.716  18.438  1.00  0.00     0.037 C
ENDBRANCH  20  21
BRANCH  20  23
HETATM   23  C3  UNL     1      47.638  58.483  19.026  1.00  0.00     0.437 C
BRANCH  23  24
HETATM   24  O1  UNL     1      48.499  57.833  19.950  1.00  0.00    -0.373 OA
ATOM     25  H1  UNL     1      48.103  57.893  20.812  1.00  0.00     0.211 HD
ENDBRANCH  23  24
ENDBRANCH  20  23
ENDBRANCH  19  20
ENDBRANCH  18  19
BRANCH  18  26
HETATM   26  O2  UNL     1      47.138  55.486  15.599  1.00  0.00    -0.392 OA
ATOM     27  H2  UNL     1      47.104  54.539  15.661  1.00  0.00     0.210 HD
ENDBRANCH  18  26
ENDBRANCH  17  18
ENDBRANCH  16  17
ENDBRANCH   1  16
BRANCH  15  28
HETATM   28  C24 UNL     1      50.813  54.774  20.207  1.00  0.00     0.016 C
HETATM   29  C25 UNL     1      51.758  55.493  19.767  1.00  0.00     0.083 C
BRANCH  29  30
HETATM   30  C26 UNL     1      52.131  56.681  20.607  1.00  0.00     0.282 C
HETATM   31  O6  UNL     1      51.250  57.494  20.883  1.00  0.00    -0.260 OA
BRANCH  30  32
HETATM   32  O7  UNL     1      53.401  56.885  21.072  1.00  0.00    -0.323 OA
HETATM   33  C27 UNL     1      53.779  57.737  22.110  1.00  0.00     0.213 C
ENDBRANCH  30  32
ENDBRANCH  29  30
ENDBRANCH  15  28
BRANCH   6  34
HETATM   34  C12 UNL     1      47.635  50.216  14.944  1.00  0.00     0.057 C
HETATM   35  C13 UNL     1      46.653  49.046  14.775  1.00  0.00     0.045 C
HETATM   36  C14 UNL     1      46.854  51.457  14.997  1.00  0.00     0.045 C
BRANCH  34  37
HETATM   37  O5  UNL     1      48.404  50.229  13.754  1.00  0.00    -0.390 OA
ATOM     38  H5  UNL     1      47.803  50.341  13.027  1.00  0.00     0.210 HD
ENDBRANCH  34  37
ENDBRANCH   6  34
TORSDOF 14
ENDMDL