MODEL 1
REMARK VINA RESULT: -8.606683645      0.000      0.000
REMARK  15 active torsions:
REMARK  status: ('A' for Active; 'I' for Inactive)
REMARK    1  A    between atoms: C2_2  and  C3_3
REMARK    2  A    between atoms: C3_3  and  C5_5
REMARK    3  A    between atoms: C3_3  and  C7_7
REMARK    4  A    between atoms: C10_10  and  O1_11
REMARK    5  A    between atoms: O1_11  and  C11_12
REMARK    6  A    between atoms: C11_12  and  C12_13
REMARK    7  A    between atoms: C12_13  and  C13_14
REMARK    8  A    between atoms: C13_14  and  O2_15
REMARK    9  A    between atoms: O2_15  and  C14_16
REMARK   10  A    between atoms: C18_20  and  O3_21
REMARK   11  A    between atoms: O3_21  and  C19_22
REMARK   12  A    between atoms: C21_25  and  O5_26
REMARK   13  A    between atoms: C22_28  and  O6_29
REMARK   14  A    between atoms: C23_31  and  O7_32
REMARK   15  A    between atoms: C24_34  and  C25_35
ROOT
HETATM    1  C13 UNL     1      46.761  51.774  16.984  1.00  0.00     0.170 C
ENDROOT
BRANCH   1   2
HETATM    2  C12 UNL     1      47.670  52.168  18.158  1.00  0.00     0.053 C
BRANCH   2   3
HETATM    3  C11 UNL     1      48.955  52.748  17.681  1.00  0.00     0.178 C
BRANCH   3   4
HETATM    4  O1  UNL     1      49.211  54.065  17.950  1.00  0.00    -0.350 OA
BRANCH   4   5
HETATM    5  C10 UNL     1      48.411  55.169  17.917  1.00  0.00     0.075 A
HETATM    6  C9  UNL     1      47.587  55.538  16.888  1.00  0.00     0.038 A
HETATM    7  C8  UNL     1      46.797  56.667  16.911  1.00  0.00     0.011 A
HETATM    8  C7  UNL     1      46.816  57.489  18.015  1.00  0.00    -0.042 A
HETATM    9  C29 UNL     1      47.644  57.128  19.063  1.00  0.00     0.019 A
HETATM   10  C24 UNL     1      48.432  56.001  19.040  1.00  0.00    -0.017 A
BRANCH   8  11
HETATM   11  C3  UNL     1      45.982  58.717  18.089  1.00  0.00     0.017 C
HETATM   12  C4  UNL     1      45.412  59.001  16.716  1.00  0.00     0.029 C
BRANCH  11  13
HETATM   13  C2  UNL     1      46.807  59.878  18.512  1.00  0.00    -0.019 C
HETATM   14  C1  UNL     1      46.468  61.114  18.172  1.00  0.00     0.008 C
ENDBRANCH  11  13
BRANCH  11  15
HETATM   15  C5  UNL     1      44.850  58.576  19.018  1.00  0.00    -0.019 C
HETATM   16  C6  UNL     1      43.593  58.879  18.683  1.00  0.00     0.008 C
ENDBRANCH  11  15
ENDBRANCH   8  11
BRANCH  10  17
HETATM   17  C25 UNL     1      49.309  55.642  20.178  1.00  0.00    -0.021 C
HETATM   18  C26 UNL     1      50.760  55.557  19.765  1.00  0.00     0.019 C
HETATM   19  C27 UNL     1      49.191  56.719  21.234  1.00  0.00     0.019 C
HETATM   20  C28 UNL     1      48.872  54.352  20.841  1.00  0.00     0.019 C
ENDBRANCH  10  17
ENDBRANCH   4   5
ENDBRANCH   3   4
ENDBRANCH   2   3
ENDBRANCH   1   2
BRANCH   1  21
HETATM   21  O2  UNL     1      46.244  50.525  17.309  1.00  0.00    -0.379 OA
BRANCH  21  22
HETATM   22  C14 UNL     1      47.226  49.543  17.400  1.00  0.00     0.184 C
HETATM   23  C15 UNL     1      46.895  48.744  18.630  1.00  0.00    -0.021 C
HETATM   24  C16 UNL     1      47.783  48.534  19.593  1.00  0.00    -0.023 C
HETATM   25  C18 UNL     1      45.511  48.202  18.704  1.00  0.00     0.194 C
HETATM   26  C17 UNL     1      49.160  49.048  19.566  1.00  0.00     0.036 C
HETATM   27  C21 UNL     1      45.067  47.794  17.311  1.00  0.00     0.183 C
HETATM   28  C22 UNL     1      46.259  47.425  16.456  1.00  0.00     0.181 C
HETATM   29  C23 UNL     1      47.194  48.575  16.246  1.00  0.00     0.182 C
BRANCH  25  30
HETATM   30  O3  UNL     1      45.440  47.040  19.517  1.00  0.00    -0.309 OA
BRANCH  30  31
HETATM   31  C19 UNL     1      44.687  47.001  20.666  1.00  0.00     0.255 C
HETATM   32  C20 UNL     1      45.240  47.113  22.038  1.00  0.00     0.126 C
HETATM   33  O4  UNL     1      43.442  46.863  20.547  1.00  0.00    -0.266 OA
ENDBRANCH  30  31
ENDBRANCH  25  30
BRANCH  27  34
HETATM   34  O5  UNL     1      44.255  46.665  17.402  1.00  0.00    -0.390 OA
ATOM     35  H5  UNL     1      43.358  46.938  17.556  1.00  0.00     0.210 HD
ENDBRANCH  27  34
BRANCH  28  36
HETATM   36  O6  UNL     1      45.776  46.901  15.269  1.00  0.00    -0.390 OA
ATOM     37  H6  UNL     1      46.246  47.320  14.558  1.00  0.00     0.210 HD
ENDBRANCH  28  36
BRANCH  29  38
HETATM   38  O7  UNL     1      46.975  49.212  15.027  1.00  0.00    -0.390 OA
ATOM     39  H7  UNL     1      47.712  49.751  14.764  1.00  0.00     0.210 HD
ENDBRANCH  29  38
ENDBRANCH  21  22
ENDBRANCH   1  21
TORSDOF 15
ENDMDL