MODEL 1
REMARK VINA RESULT: -8.963804051      0.000      0.000
REMARK  14 active torsions:
REMARK  status: ('A' for Active; 'I' for Inactive)
REMARK    1  A    between atoms: C4_4  and  C5_5
REMARK    2  A    between atoms: C5_5  and  O1_6
REMARK    3  A    between atoms: C5_5  and  C6_8
REMARK    4  A    between atoms: C6_8  and  O2_9
REMARK    5  A    between atoms: C6_8  and  C7_11
REMARK    6  A    between atoms: C7_11  and  C8_13
REMARK    7  A    between atoms: C8_13  and  O4_14
REMARK    8  A    between atoms: C8_13  and  C9_16
REMARK    9  A    between atoms: C13_22  and  C14_23
REMARK   10  A    between atoms: C20_29  and  C21_30
REMARK   11  A    between atoms: C21_30  and  C22_31
REMARK   12  A    between atoms: C22_31  and  C23_32
REMARK   13  A    between atoms: C25_34  and  C26_35
REMARK   14  A    between atoms: C26_35  and  O8_37
ROOT
HETATM    1  C5  UNL     1      50.375  50.326  17.829  1.00  0.00     0.158 C
ENDROOT
BRANCH   1   2
HETATM    2  C4  UNL     1      49.571  49.219  17.200  1.00  0.00     0.021 C
HETATM    3  C3  UNL     1      49.072  49.557  15.812  1.00  0.00     0.040 C
HETATM    4  C2  UNL     1      47.697  49.013  15.549  1.00  0.00    -0.088 C
HETATM    5  C1  UNL     1      46.857  49.953  15.136  1.00  0.00     0.014 C
HETATM    6  C28 UNL     1      47.023  47.698  15.610  1.00  0.00     0.048 C
HETATM    7  C25 UNL     1      45.935  47.754  16.681  1.00  0.00     0.097 C
HETATM    8  C20 UNL     1      46.387  47.459  18.038  1.00  0.00     0.022 C
HETATM    9  C19 UNL     1      47.936  47.552  18.161  1.00  0.00     0.010 C
HETATM   10  C18 UNL     1      48.376  48.974  18.109  1.00  0.00     0.008 C
BRANCH   7  11
HETATM   11  C26 UNL     1      44.922  46.727  16.199  1.00  0.00     0.263 C
HETATM   12  O7  UNL     1      43.947  46.401  16.873  1.00  0.00    -0.265 OA
BRANCH  11  13
HETATM   13  O8  UNL     1      45.159  46.181  14.962  1.00  0.00    -0.326 OA
HETATM   14  C27 UNL     1      44.265  45.247  14.395  1.00  0.00     0.213 C
ENDBRANCH  11  13
ENDBRANCH   7  11
BRANCH   8  15
HETATM   15  C21 UNL     1      45.861  48.239  19.173  1.00  0.00    -0.025 C
BRANCH  15  16
HETATM   16  C22 UNL     1      46.006  47.846  20.573  1.00  0.00    -0.031 C
BRANCH  16  17
HETATM   17  C23 UNL     1      44.955  47.098  21.295  1.00  0.00     0.022 C
HETATM   18  C24 UNL     1      43.754  46.770  20.408  1.00  0.00     0.009 C
ENDBRANCH  16  17
ENDBRANCH  15  16
ENDBRANCH   8  15
ENDBRANCH   1   2
BRANCH   1  19
HETATM   19  O1  UNL     1      51.641  50.225  17.185  1.00  0.00    -0.392 OA
ATOM     20  H1  UNL     1      51.973  51.114  17.206  1.00  0.00     0.210 HD
ENDBRANCH   1  19
BRANCH   1  21
HETATM   21  C6  UNL     1      50.593  50.243  19.301  1.00  0.00     0.219 C
BRANCH  21  22
HETATM   22  O2  UNL     1      51.608  49.221  19.472  1.00  0.00    -0.385 OA
ATOM     23  H2  UNL     1      51.150  48.397  19.354  1.00  0.00     0.210 HD
ENDBRANCH  21  22
BRANCH  21  24
HETATM   24  C7  UNL     1      51.261  51.449  19.858  1.00  0.00     0.188 C
HETATM   25  O3  UNL     1      52.482  51.313  20.131  1.00  0.00    -0.292 OA
BRANCH  24  26
HETATM   26  C8  UNL     1      50.654  52.756  20.118  1.00  0.00     0.220 C
BRANCH  26  27
HETATM   27  O4  UNL     1      51.338  53.439  21.093  1.00  0.00    -0.385 OA
ATOM     28  H4  UNL     1      51.016  53.219  21.959  1.00  0.00     0.210 HD
ENDBRANCH  26  27
BRANCH  26  29
HETATM   29  C9  UNL     1      50.561  53.547  18.821  1.00  0.00     0.180 C
HETATM   30  O5  UNL     1      51.188  54.796  19.074  1.00  0.00    -0.308 OA
HETATM   31  C10 UNL     1      50.302  55.654  19.718  1.00  0.00     0.289 C
HETATM   32  O6  UNL     1      50.636  56.696  20.325  1.00  0.00    -0.260 OA
HETATM   33  C11 UNL     1      48.964  55.071  19.523  1.00  0.00     0.018 C
HETATM   34  C12 UNL     1      47.887  55.474  20.143  1.00  0.00     0.026 C
HETATM   35  C13 UNL     1      49.163  54.001  18.521  1.00  0.00     0.079 C
BRANCH  35  36
HETATM   36  C14 UNL     1      48.153  52.939  18.585  1.00  0.00    -0.013 C
HETATM   37  C15 UNL     1      47.271  52.839  17.595  1.00  0.00    -0.091 C
HETATM   38  C16 UNL     1      46.206  51.768  17.603  1.00  0.00     0.042 C
HETATM   39  C17 UNL     1      47.304  53.796  16.429  1.00  0.00     0.042 C
ENDBRANCH  35  36
ENDBRANCH  26  29
ENDBRANCH  24  26
ENDBRANCH  21  24
ENDBRANCH   1  21
TORSDOF 14
ENDMDL