MODEL 2
REMARK VINA RESULT: -9.159670038      2.143      7.211
REMARK  13 active torsions:
REMARK  status: ('A' for Active; 'I' for Inactive)
REMARK    1  A    between atoms: C2_2  and  C3_3
REMARK    2  A    between atoms: C3_3  and  C4_4
REMARK    3  A    between atoms: C4_4  and  C5_5
REMARK    4  A    between atoms: C5_5  and  C6_7
REMARK    5  A    between atoms: C6_7  and  C7_8
REMARK    6  A    between atoms: C7_8  and  N1_10
REMARK    7  A    between atoms: N1_10  and  C9_12
REMARK    8  A    between atoms: C9_12  and  C10_13
REMARK    9  A    between atoms: C10_13  and  O3_15
REMARK   10  A    between atoms: O3_15  and  C11_16
REMARK   11  A    between atoms: C13_20  and  O6_21
REMARK   12  A    between atoms: C24_33  and  C26_35
REMARK   13  A    between atoms: C26_35  and  O7_36
ROOT
HETATM    1  C11 UNL     1      49.958  52.032  19.994  1.00  0.00     0.286 C
HETATM    2  O4  UNL     1      50.760  52.227  21.157  1.00  0.00    -0.307 OA
HETATM    3  C12 UNL     1      50.132  53.248  21.903  1.00  0.00     0.418 C
HETATM    4  O5  UNL     1      51.125  53.907  22.515  1.00  0.00    -0.307 OA
HETATM    5  C13 UNL     1      51.528  55.101  21.967  1.00  0.00     0.273 C
HETATM    6  C14 UNL     1      50.584  55.757  21.027  1.00  0.00     0.038 C
HETATM    7  C15 UNL     1      51.298  56.778  20.221  1.00  0.00     0.024 C
HETATM    8  C16 UNL     1      49.701  56.603  21.998  1.00  0.00     0.018 C
HETATM    9  C17 UNL     1      48.678  57.068  21.053  1.00  0.00     0.009 C
HETATM   10  C18 UNL     1      48.390  55.831  20.272  1.00  0.00     0.025 C
HETATM   11  C19 UNL     1      47.963  56.311  18.933  1.00  0.00    -0.012 C
HETATM   12  C20 UNL     1      46.762  57.202  19.121  1.00  0.00     0.010 C
HETATM   13  C21 UNL     1      47.618  55.048  18.234  1.00  0.00     0.005 C
HETATM   14  C22 UNL     1      48.991  54.485  17.859  1.00  0.00     0.009 C
HETATM   15  C23 UNL     1      49.977  54.356  18.968  1.00  0.00     0.037 C
HETATM   16  C24 UNL     1      50.517  52.934  18.955  1.00  0.00     0.034 C
HETATM   17  C25 UNL     1      52.063  52.972  19.164  1.00  0.00     0.023 C
HETATM   18  C27 UNL     1      49.581  54.897  20.305  1.00  0.00     0.086 C
HETATM   19  O8  UNL     1      49.235  53.883  21.165  1.00  0.00    -0.326 OA
ENDROOT
BRANCH   1  20
HETATM   20  O3  UNL     1      50.126  50.646  19.768  1.00  0.00    -0.284 OA
BRANCH  20  21
HETATM   21  C10 UNL     1      49.568  49.667  20.626  1.00  0.00     0.300 C
HETATM   22  O2  UNL     1      50.043  49.549  21.756  1.00  0.00    -0.259 OA
BRANCH  21  23
HETATM   23  C9  UNL     1      48.414  48.887  20.035  1.00  0.00     0.166 C
BRANCH  23  24
HETATM   24  N1  UNL     1      48.845  48.374  18.818  1.00  0.00    -0.389 N
ATOM     25  H1  UNL     1      49.727  48.678  18.406  1.00  0.00     0.159 HD
BRANCH  24  26
HETATM   26  C7  UNL     1      48.009  47.396  18.148  1.00  0.00     0.084 C
HETATM   27  C8  UNL     1      46.571  47.911  18.462  1.00  0.00     0.032 C
BRANCH  26  28
HETATM   28  C6  UNL     1      48.121  47.496  16.638  1.00  0.00     0.103 C
BRANCH  28  29
HETATM   29  C5  UNL     1      48.420  48.878  16.173  1.00  0.00     0.129 C
HETATM   30  O1  UNL     1      49.533  49.344  16.278  1.00  0.00    -0.298 OA
BRANCH  29  31
HETATM   31  C4  UNL     1      47.292  49.679  15.572  1.00  0.00     0.082 C
BRANCH  31  32
HETATM   32  C3  UNL     1      47.572  51.101  15.358  1.00  0.00     0.033 C
BRANCH  32  33
HETATM   33  C2  UNL     1      46.857  52.015  16.234  1.00  0.00    -0.037 C
HETATM   34  C1  UNL     1      46.539  51.570  17.481  1.00  0.00     0.007 C
ENDBRANCH  32  33
ENDBRANCH  31  32
ENDBRANCH  29  31
ENDBRANCH  28  29
ENDBRANCH  26  28
ENDBRANCH  24  26
ENDBRANCH  23  24
ENDBRANCH  21  23
ENDBRANCH  20  21
ENDBRANCH   1  20
BRANCH  16  35
HETATM   35  C26 UNL     1      50.374  52.226  17.619  1.00  0.00     0.178 C
BRANCH  35  36
HETATM   36  O7  UNL     1      51.526  51.503  17.288  1.00  0.00    -0.400 OA
ATOM     37  H7  UNL     1      51.604  51.373  16.351  1.00  0.00     0.209 HD
ENDBRANCH  35  36
ENDBRANCH  16  35
BRANCH   5  38
HETATM   38  O6  UNL     1      51.755  55.890  23.145  1.00  0.00    -0.370 OA
ATOM     39  H6  UNL     1      51.133  56.597  23.019  1.00  0.00     0.212 HD
ENDBRANCH   5  38
TORSDOF 13
ENDMDL