MODEL 5
REMARK VINA RESULT: -7.992934750      2.446      4.513
REMARK  13 active torsions:
REMARK  status: ('A' for Active; 'I' for Inactive)
REMARK    1  A    between atoms: C2_2  and  C4_4
REMARK    2  A    between atoms: C4_4  and  C5_5
REMARK    3  A    between atoms: C4_4  and  C28_38
REMARK    4  A    between atoms: C6_6  and  C7_7
REMARK    5  A    between atoms: C7_7  and  O1_8
REMARK    6  A    between atoms: C7_7  and  C8_10
REMARK    7  A    between atoms: C8_10  and  O2_11
REMARK    8  A    between atoms: O2_11  and  C9_12
REMARK    9  A    between atoms: C9_12  and  C10_13
REMARK   10  A    between atoms: C11_14  and  C13_16
REMARK   11  A    between atoms: C14_17  and  C15_18
REMARK   12  A    between atoms: C15_18  and  O3_19
REMARK   13  A    between atoms: C16_21  and  O4_22
ROOT
HETATM    1  C15 UNL     1      46.383  47.310  17.344  1.00  0.00     0.127 C
HETATM    2  C16 UNL     1      45.789  46.674  16.122  1.00  0.00     0.189 C
HETATM    3  C17 UNL     1      44.476  46.145  16.595  1.00  0.00     0.185 A
HETATM    4  O5  UNL     1      43.386  47.041  16.687  1.00  0.00    -0.371 OA
HETATM    5  C18 UNL     1      44.125  46.812  17.831  1.00  0.00     0.179 A
HETATM    6  C19 UNL     1      45.252  47.769  18.186  1.00  0.00     0.111 C
HETATM    7  C20 UNL     1      44.798  49.163  17.930  1.00  0.00     0.038 C
HETATM    8  C21 UNL     1      45.492  47.604  19.621  1.00  0.00     0.075 C
HETATM    9  N1  UNL     1      45.682  47.475  20.752  1.00  0.00    -0.196 NA
ENDROOT
BRANCH   1  10
HETATM   10  C14 UNL     1      47.391  48.343  17.016  1.00  0.00     0.016 C
HETATM   11  C13 UNL     1      48.546  48.100  16.458  1.00  0.00     0.005 C
BRANCH  11  12
HETATM   12  C11 UNL     1      49.472  49.210  16.178  1.00  0.00    -0.064 C
HETATM   13  C10 UNL     1      49.826  49.956  17.194  1.00  0.00     0.006 C
HETATM   14  C12 UNL     1      49.933  49.409  14.790  1.00  0.00     0.048 C
BRANCH  13  15
HETATM   15  C9  UNL     1      50.731  51.127  17.220  1.00  0.00     0.197 C
BRANCH  15  16
HETATM   16  O2  UNL     1      50.556  52.048  18.089  1.00  0.00    -0.364 OA
BRANCH  16  17
HETATM   17  C8  UNL     1      50.529  52.335  19.340  1.00  0.00     0.164 C
HETATM   18  C22 UNL     1      49.341  53.049  19.882  1.00  0.00     0.187 C
HETATM   19  O6  UNL     1      48.398  53.567  19.295  1.00  0.00    -0.290 OA
HETATM   20  C23 UNL     1      49.544  53.001  21.314  1.00  0.00     0.050 C
HETATM   21  C24 UNL     1      50.321  51.996  21.641  1.00  0.00    -0.011 C
HETATM   22  C25 UNL     1      50.685  51.296  20.405  1.00  0.00     0.012 C
HETATM   23  C26 UNL     1      49.616  50.219  20.321  1.00  0.00     0.023 C
HETATM   24  C27 UNL     1      52.019  50.629  20.451  1.00  0.00     0.023 C
BRANCH  17  25
HETATM   25  C7  UNL     1      51.650  53.413  19.508  1.00  0.00     0.184 C
BRANCH  25  26
HETATM   26  C6  UNL     1      51.253  54.700  18.932  1.00  0.00     0.005 C
HETATM   27  C5  UNL     1      51.349  55.876  19.472  1.00  0.00    -0.019 C
BRANCH  27  28
HETATM   28  C4  UNL     1      51.897  56.184  20.823  1.00  0.00     0.035 C
BRANCH  28  29
HETATM   29  C2  UNL     1      50.865  56.130  21.872  1.00  0.00    -0.085 C
HETATM   30  C1  UNL     1      51.049  55.420  23.008  1.00  0.00     0.014 C
HETATM   31  C3  UNL     1      49.562  56.828  21.752  1.00  0.00     0.043 C
ENDBRANCH  28  29
BRANCH  28  32
HETATM   32  C28 UNL     1      52.668  57.475  20.748  1.00  0.00     0.008 C
HETATM   33  C29 UNL     1      53.642  57.716  21.845  1.00  0.00     0.006 C
ENDBRANCH  28  32
ENDBRANCH  27  28
ENDBRANCH  25  26
BRANCH  25  34
HETATM   34  O1  UNL     1      52.898  52.963  19.255  1.00  0.00    -0.388 OA
ATOM     35  H1  UNL     1      52.998  52.063  18.968  1.00  0.00     0.210 HD
ENDBRANCH  25  34
ENDBRANCH  17  25
ENDBRANCH  16  17
ENDBRANCH  15  16
ENDBRANCH  13  15
ENDBRANCH  11  12
ENDBRANCH   1  10
BRANCH   1  36
HETATM   36  O3  UNL     1      47.064  46.291  18.048  1.00  0.00    -0.381 OA
ATOM     37  H3  UNL     1      46.418  45.862  18.596  1.00  0.00     0.211 HD
ENDBRANCH   1  36
BRANCH   2  38
HETATM   38  O4  UNL     1      45.688  47.545  15.048  1.00  0.00    -0.389 OA
ATOM     39  H4  UNL     1      44.792  47.782  14.841  1.00  0.00     0.210 HD
ENDBRANCH   2  38
TORSDOF 13
ENDMDL