MODEL 1
REMARK VINA RESULT: -10.177393408      0.000      0.000
REMARK  15 active torsions:
REMARK  status: ('A' for Active; 'I' for Inactive)
REMARK    1  A    between atoms: C2_2  and  C19_29
REMARK    2  A    between atoms: C3_3  and  C4_4
REMARK    3  A    between atoms: C4_4  and  O1_5
REMARK    4  A    between atoms: C4_4  and  O4_18
REMARK    5  A    between atoms: O1_5  and  C5_6
REMARK    6  A    between atoms: C5_6  and  C6_8
REMARK    7  A    between atoms: C7_9  and  C8_10
REMARK    8  A    between atoms: C11_13  and  O3_14
REMARK    9  A    between atoms: O4_18  and  C14_19
REMARK   10  A    between atoms: C15_21  and  O6_22
REMARK   11  A    between atoms: C16_24  and  O7_25
REMARK   12  A    between atoms: C19_29  and  C20_30
REMARK   13  A    between atoms: C20_30  and  C21_31
REMARK   14  A    between atoms: C22_32  and  C24_34
REMARK   15  A    between atoms: C24_34  and  C25_35
ROOT
HETATM    1  C4  UNL     1      48.415  53.073  18.772  1.00  0.00     0.297 C
ENDROOT
BRANCH   1   2
HETATM    2  C3  UNL     1      48.180  54.237  19.648  1.00  0.00     0.036 C
HETATM    3  C2  UNL     1      49.041  55.233  19.816  1.00  0.00    -0.083 C
HETATM    4  C1  UNL     1      50.355  55.248  19.105  1.00  0.00     0.043 C
BRANCH   3   5
HETATM    5  C19 UNL     1      48.715  56.312  20.749  1.00  0.00     0.037 C
BRANCH   5   6
HETATM    6  C20 UNL     1      47.497  57.120  20.505  1.00  0.00     0.031 C
BRANCH   6   7
HETATM    7  C21 UNL     1      47.628  58.337  19.691  1.00  0.00    -0.024 C
HETATM    8  C22 UNL     1      46.652  58.899  18.984  1.00  0.00    -0.085 C
HETATM    9  C23 UNL     1      45.319  58.270  19.001  1.00  0.00     0.043 C
BRANCH   8  10
HETATM   10  C24 UNL     1      46.911  60.119  18.252  1.00  0.00     0.068 C
BRANCH  10  11
HETATM   11  C25 UNL     1      45.789  60.902  17.701  1.00  0.00     0.160 A
HETATM   12  O8  UNL     1      46.136  62.136  17.062  1.00  0.00    -0.370 OA
HETATM   13  C26 UNL     1      45.094  62.027  18.147  1.00  0.00     0.080 A
HETATM   14  C27 UNL     1      43.743  62.354  17.468  1.00  0.00     0.048 C
HETATM   15  C28 UNL     1      45.364  62.943  19.288  1.00  0.00     0.048 C
ENDBRANCH  10  11
ENDBRANCH   8  10
ENDBRANCH   6   7
ENDBRANCH   5   6
ENDBRANCH   3   5
ENDBRANCH   1   2
BRANCH   1  16
HETATM   16  O1  UNL     1      47.273  52.744  17.980  1.00  0.00    -0.283 OA
BRANCH  16  17
HETATM   17  C5  UNL     1      47.257  51.583  17.211  1.00  0.00     0.285 C
HETATM   18  O2  UNL     1      48.034  51.571  16.211  1.00  0.00    -0.260 OA
BRANCH  17  19
HETATM   19  C6  UNL     1      46.415  50.428  17.496  1.00  0.00     0.079 C
HETATM   20  C7  UNL     1      46.824  49.423  18.221  1.00  0.00    -0.012 C
BRANCH  20  21
HETATM   21  C8  UNL     1      46.052  48.212  18.565  1.00  0.00     0.030 C
HETATM   22  C9  UNL     1      46.105  47.896  20.004  1.00  0.00    -0.020 C
HETATM   23  C10 UNL     1      45.094  47.366  20.657  1.00  0.00     0.001 C
HETATM   24  C11 UNL     1      43.780  47.015  20.045  1.00  0.00     0.140 C
HETATM   25  C12 UNL     1      43.885  47.069  18.531  1.00  0.00     0.036 C
HETATM   26  C13 UNL     1      44.605  48.337  18.142  1.00  0.00     0.015 C
BRANCH  24  27
HETATM   27  O3  UNL     1      43.461  45.709  20.399  1.00  0.00    -0.392 OA
ATOM     28  H3  UNL     1      43.343  45.200  19.606  1.00  0.00     0.210 HD
ENDBRANCH  24  27
ENDBRANCH  20  21
ENDBRANCH  17  19
ENDBRANCH  16  17
ENDBRANCH   1  16
BRANCH   1  29
HETATM   29  O4  UNL     1      48.899  52.015  19.498  1.00  0.00    -0.327 OA
BRANCH  29  30
HETATM   30  C14 UNL     1      50.232  51.702  19.237  1.00  0.00     0.272 A
HETATM   31  O5  UNL     1      51.063  51.997  20.284  1.00  0.00    -0.329 OA
HETATM   32  C15 UNL     1      51.809  50.906  20.629  1.00  0.00     0.289 A
HETATM   33  C16 UNL     1      51.451  49.741  19.775  1.00  0.00     0.181 A
HETATM   34  C17 UNL     1      50.428  50.293  18.805  1.00  0.00     0.071 A
HETATM   35  C18 UNL     1      50.966  50.205  17.382  1.00  0.00     0.017 C
BRANCH  32  36
HETATM   36  O6  UNL     1      51.754  50.591  21.984  1.00  0.00    -0.369 OA
ATOM     37  H6  UNL     1      51.485  49.697  22.161  1.00  0.00     0.212 HD
ENDBRANCH  32  36
BRANCH  33  38
HETATM   38  O7  UNL     1      52.541  49.194  19.099  1.00  0.00    -0.390 OA
ATOM     39  H7  UNL     1      52.301  48.510  18.485  1.00  0.00     0.210 HD
ENDBRANCH  33  38
ENDBRANCH  29  30
ENDBRANCH   1  29
TORSDOF 15
ENDMDL