MODEL 4
REMARK VINA RESULT: -8.188217700      1.258      2.453
REMARK  12 active torsions:
REMARK  status: ('A' for Active; 'I' for Inactive)
REMARK    1  A    between atoms: C2_2  and  N1_3
REMARK    2  A    between atoms: N1_3  and  C3_5
REMARK    3  A    between atoms: C4_8  and  C5_9
REMARK    4  A    between atoms: C6_10  and  C7_11
REMARK    5  A    between atoms: C9_13  and  O1_14
REMARK    6  A    between atoms: C11_16  and  O2_17
REMARK    7  A    between atoms: C13_19  and  O3_20
REMARK    8  A    between atoms: C17_24  and  N3_25
REMARK    9  A    between atoms: N3_25  and  C18_27
REMARK   10  A    between atoms: C20_29  and  O4_30
REMARK   11  A    between atoms: C22_32  and  O5_33
REMARK   12  A    between atoms: C24_35  and  O6_36
ROOT
HETATM    1  C3  UNL     1      50.783  56.306  21.406  1.00  0.00     0.680 A
HETATM    2  N2  UNL     1      49.735  57.120  21.113  1.00  0.00    -0.192 N
ATOM      3  H2  UNL     1      49.798  58.108  21.360  1.00  0.00     0.184 HD
HETATM    4  C4  UNL     1      48.617  56.674  20.511  1.00  0.00     0.052 A
HETATM    5  C16 UNL     1      48.541  55.345  20.184  1.00  0.00     0.079 A
HETATM    6  C17 UNL     1      49.607  54.488  20.473  1.00  0.00     0.123 A
HETATM    7  N4  UNL     1      50.711  55.009  21.086  1.00  0.00    -0.177 N
ATOM      8  H4  UNL     1      51.497  54.396  21.304  1.00  0.00     0.186 HD
ENDROOT
BRANCH   4   9
HETATM    9  C5  UNL     1      47.511  57.608  20.220  1.00  0.00     0.031 C
HETATM   10  C6  UNL     1      47.374  58.239  19.093  1.00  0.00     0.014 C
BRANCH  10  11
HETATM   11  C7  UNL     1      46.284  59.150  18.831  1.00  0.00    -0.031 A
HETATM   12  C8  UNL     1      44.964  58.686  18.707  1.00  0.00     0.051 A
HETATM   13  C9  UNL     1      43.925  59.548  18.449  1.00  0.00     0.105 A
HETATM   14  C11 UNL     1      44.216  60.893  18.313  1.00  0.00     0.135 A
HETATM   15  C13 UNL     1      45.481  61.400  18.424  1.00  0.00     0.105 A
HETATM   16  C15 UNL     1      46.520  60.494  18.688  1.00  0.00     0.051 A
BRANCH  13  17
HETATM   17  O1  UNL     1      42.653  59.076  18.335  1.00  0.00    -0.353 OA
HETATM   18  C10 UNL     1      41.943  58.687  17.218  1.00  0.00     0.210 C
ENDBRANCH  13  17
BRANCH  14  19
HETATM   19  O2  UNL     1      43.169  61.753  18.051  1.00  0.00    -0.351 OA
HETATM   20  C12 UNL     1      42.487  62.341  19.143  1.00  0.00     0.210 C
ENDBRANCH  14  19
BRANCH  15  21
HETATM   21  O3  UNL     1      45.728  62.742  18.285  1.00  0.00    -0.353 OA
HETATM   22  C14 UNL     1      46.256  63.323  17.111  1.00  0.00     0.210 C
ENDBRANCH  15  21
ENDBRANCH  10  11
ENDBRANCH   4   9
BRANCH   1  23
HETATM   23  N1  UNL     1      51.812  56.825  21.985  1.00  0.00    -0.226 N
ATOM     24  H1  UNL     1      52.077  56.466  22.902  1.00  0.00     0.177 HD
BRANCH  23  25
HETATM   25  C2  UNL     1      52.601  57.874  21.422  1.00  0.00     0.133 C
HETATM   26  C1  UNL     1      53.618  57.293  20.463  1.00  0.00     0.027 C
ENDBRANCH  23  25
ENDBRANCH   1  23
BRANCH   6  27
HETATM   27  N3  UNL     1      49.620  53.275  20.209  1.00  0.00    -0.342 N
ATOM     28  H3  UNL     1      50.078  52.662  20.882  1.00  0.00     0.167 HD
BRANCH  27  29
HETATM   29  C18 UNL     1      49.070  52.672  19.079  1.00  0.00     0.039 A
HETATM   30  C19 UNL     1      49.121  51.303  18.928  1.00  0.00     0.069 A
HETATM   31  C20 UNL     1      48.582  50.616  17.865  1.00  0.00     0.106 A
HETATM   32  C22 UNL     1      47.942  51.379  16.883  1.00  0.00     0.135 A
HETATM   33  C24 UNL     1      47.863  52.750  16.985  1.00  0.00     0.106 A
HETATM   34  C26 UNL     1      48.419  53.382  18.066  1.00  0.00     0.069 A
BRANCH  31  35
HETATM   35  O4  UNL     1      48.662  49.250  17.762  1.00  0.00    -0.353 OA
HETATM   36  C21 UNL     1      48.292  48.408  18.801  1.00  0.00     0.210 C
ENDBRANCH  31  35
BRANCH  32  37
HETATM   37  O5  UNL     1      47.394  50.713  15.807  1.00  0.00    -0.351 OA
HETATM   38  C23 UNL     1      48.213  50.342  14.687  1.00  0.00     0.210 C
ENDBRANCH  32  37
BRANCH  33  39
HETATM   39  O6  UNL     1      47.212  53.500  15.977  1.00  0.00    -0.353 OA
HETATM   40  C25 UNL     1      47.117  54.891  16.185  1.00  0.00     0.210 C
ENDBRANCH  33  39
ENDBRANCH  27  29
ENDBRANCH   6  27
TORSDOF 12
ENDMDL