MODEL 2
REMARK VINA RESULT: -8.965164436      2.037      3.957
REMARK  15 active torsions:
REMARK  status: ('A' for Active; 'I' for Inactive)
REMARK    1  A    between atoms: C2_2  and  C3_3
REMARK    2  A    between atoms: C3_3  and  C5_5
REMARK    3  A    between atoms: C5_5  and  C7_7
REMARK    4  A    between atoms: C7_7  and  C8_8
REMARK    5  A    between atoms: C8_8  and  C9_9
REMARK    6  A    between atoms: C9_9  and  O2_11
REMARK    7  A    between atoms: O2_11  and  C10_12
REMARK    8  A    between atoms: C10_12  and  C11_13
REMARK    9  A    between atoms: C13_16  and  O4_17
REMARK   10  A    between atoms: C14_19  and  C15_20
REMARK   11  A    between atoms: C16_21  and  C17_22
REMARK   12  A    between atoms: C17_22  and  O5_23
REMARK   13  A    between atoms: O5_23  and  C18_24
REMARK   14  A    between atoms: C26_34  and  O7_35
REMARK   15  A    between atoms: C27_37  and  O8_38
ROOT
HETATM    1  C11 UNL     1      51.555  51.900  19.036  1.00  0.00     0.177 C
HETATM    2  O3  UNL     1      50.259  52.106  18.506  1.00  0.00    -0.370 OA
HETATM    3  C12 UNL     1      49.959  50.976  17.800  1.00  0.00     0.190 C
HETATM    4  C13 UNL     1      48.664  50.988  17.066  1.00  0.00     0.182 C
HETATM    5  C14 UNL     1      48.175  49.527  17.255  1.00  0.00     0.177 C
HETATM    6  O6  UNL     1      49.232  48.884  17.874  1.00  0.00    -0.363 OA
HETATM    7  C24 UNL     1      49.696  49.843  18.780  1.00  0.00     0.115 C
HETATM    8  C25 UNL     1      48.687  50.232  19.825  1.00  0.00     0.052 C
HETATM    9  C26 UNL     1      50.976  49.506  19.458  1.00  0.00     0.186 C
HETATM   10  C27 UNL     1      51.525  50.791  20.070  1.00  0.00     0.181 C
ENDROOT
BRANCH   1  11
HETATM   11  C10 UNL     1      52.042  53.150  19.715  1.00  0.00     0.213 C
BRANCH  11  12
HETATM   12  O2  UNL     1      51.570  53.322  21.030  1.00  0.00    -0.319 OA
BRANCH  12  13
HETATM   13  C9  UNL     1      50.894  54.403  21.505  1.00  0.00     0.258 C
HETATM   14  O1  UNL     1      51.304  54.944  22.589  1.00  0.00    -0.265 OA
BRANCH  13  15
HETATM   15  C8  UNL     1      49.704  55.049  20.904  1.00  0.00     0.111 C
BRANCH  15  16
HETATM   16  C7  UNL     1      49.998  56.466  20.476  1.00  0.00     0.014 C
BRANCH  16  17
HETATM   17  C5  UNL     1      48.745  57.341  20.557  1.00  0.00    -0.014 C
HETATM   18  C6  UNL     1      48.586  57.880  21.916  1.00  0.00     0.010 C
BRANCH  17  19
HETATM   19  C3  UNL     1      47.556  56.686  19.982  1.00  0.00    -0.015 C
HETATM   20  C4  UNL     1      47.666  56.746  18.418  1.00  0.00     0.010 C
BRANCH  19  21
HETATM   21  C2  UNL     1      46.270  57.360  20.299  1.00  0.00    -0.000 C
HETATM   22  C1  UNL     1      45.584  58.139  19.234  1.00  0.00     0.005 C
ENDBRANCH  19  21
ENDBRANCH  17  19
ENDBRANCH  16  17
ENDBRANCH  15  16
ENDBRANCH  13  15
ENDBRANCH  12  13
ENDBRANCH  11  12
ENDBRANCH   1  11
BRANCH  10  23
HETATM   23  O8  UNL     1      52.822  50.611  20.532  1.00  0.00    -0.390 OA
ATOM     24  H8  UNL     1      52.780  50.512  21.476  1.00  0.00     0.210 HD
ENDBRANCH  10  23
BRANCH   9  25
HETATM   25  O7  UNL     1      50.780  48.610  20.519  1.00  0.00    -0.390 OA
ATOM     26  H7  UNL     1      51.140  48.945  21.332  1.00  0.00     0.210 HD
ENDBRANCH   9  25
BRANCH   4  27
HETATM   27  O4  UNL     1      47.738  51.905  17.483  1.00  0.00    -0.390 OA
ATOM     28  H4  UNL     1      47.116  52.203  16.830  1.00  0.00     0.210 HD
ENDBRANCH   4  27
BRANCH   5  29
HETATM   29  C15 UNL     1      47.724  48.971  15.994  1.00  0.00     0.010 C
HETATM   30  C16 UNL     1      46.903  48.083  15.597  1.00  0.00     0.038 C
BRANCH  30  31
HETATM   31  C17 UNL     1      45.980  47.164  16.235  1.00  0.00     0.103 C
HETATM   32  C22 UNL     1      45.212  46.470  15.430  1.00  0.00     0.123 C
HETATM   33  C23 UNL     1      44.190  45.465  15.695  1.00  0.00     0.085 C
HETATM   34  F1  UNL     1      45.403  46.740  14.060  1.00  0.00    -0.208 F
BRANCH  31  35
HETATM   35  O5  UNL     1      45.909  47.034  17.585  1.00  0.00    -0.339 OA
BRANCH  35  36
HETATM   36  C18 UNL     1      45.190  47.616  18.585  1.00  0.00     0.057 C
HETATM   37  C19 UNL     1      46.172  47.817  19.770  1.00  0.00     0.045 C
HETATM   38  C20 UNL     1      44.669  49.007  18.253  1.00  0.00     0.045 C
HETATM   39  C21 UNL     1      44.057  46.818  19.221  1.00  0.00     0.045 C
ENDBRANCH  35  36
ENDBRANCH  31  35
ENDBRANCH  30  31
ENDBRANCH   5  29
TORSDOF 15
ENDMDL