MODEL 3
REMARK VINA RESULT: -8.225823601      0.951      1.636
REMARK  14 active torsions:
REMARK  status: ('A' for Active; 'I' for Inactive)
REMARK    1  A    between atoms: C2_2  and  C3_3
REMARK    2  A    between atoms: C3_3  and  C4_5
REMARK    3  A    between atoms: C4_5  and  O3_7
REMARK    4  A    between atoms: O3_7  and  C5_8
REMARK    5  A    between atoms: C15_19  and  C17_21
REMARK    6  A    between atoms: C17_21  and  C18_22
REMARK    7  A    between atoms: C18_22  and  C19_24
REMARK    8  A    between atoms: C20_25  and  C21_26
REMARK    9  A    between atoms: C21_26  and  O6_27
REMARK   10  A    between atoms: C21_26  and  C22_29
REMARK   11  A    between atoms: C22_29  and  C23_30
REMARK   12  A    between atoms: C22_29  and  C24_33
REMARK   13  A    between atoms: C23_30  and  O7_31
REMARK   14  A    between atoms: C24_33  and  O8_35
ROOT
HETATM    1  C5  UNL     1      46.311  49.229  17.023  1.00  0.00     0.177 C
HETATM    2  C6  UNL     1      45.966  48.601  18.351  1.00  0.00     0.021 C
HETATM    3  C7  UNL     1      46.848  48.539  19.331  1.00  0.00    -0.059 C
HETATM    4  C8  UNL     1      46.290  47.881  20.539  1.00  0.00     0.043 C
HETATM    5  C9  UNL     1      45.053  47.198  20.066  1.00  0.00     0.088 C
HETATM    6  C10 UNL     1      44.734  47.970  18.851  1.00  0.00     0.158 C
HETATM    7  O4  UNL     1      43.601  48.085  18.313  1.00  0.00    -0.293 OA
HETATM    8  C11 UNL     1      48.234  49.117  19.097  1.00  0.00    -0.018 C
HETATM    9  C12 UNL     1      49.086  48.042  18.617  1.00  0.00     0.020 C
HETATM   10  C13 UNL     1      48.742  49.428  20.527  1.00  0.00     0.020 C
HETATM   11  C14 UNL     1      48.057  50.394  18.440  1.00  0.00     0.017 C
HETATM   12  C15 UNL     1      49.092  51.098  17.650  1.00  0.00    -0.031 C
HETATM   13  C16 UNL     1      49.011  52.618  17.913  1.00  0.00     0.016 C
HETATM   14  C26 UNL     1      48.321  50.712  16.403  1.00  0.00     0.022 C
HETATM   15  C27 UNL     1      47.117  50.455  17.250  1.00  0.00    -0.007 C
HETATM   16  C28 UNL     1      46.213  51.686  17.205  1.00  0.00     0.018 C
ENDROOT
BRANCH  12  17
HETATM   17  C17 UNL     1      50.495  50.729  17.680  1.00  0.00     0.092 C
BRANCH  17  18
HETATM   18  C18 UNL     1      51.353  51.912  17.954  1.00  0.00     0.149 C
HETATM   19  O5  UNL     1      52.262  52.252  17.158  1.00  0.00    -0.293 OA
BRANCH  18  20
HETATM   20  C19 UNL     1      51.180  52.730  19.153  1.00  0.00     0.048 C
HETATM   21  C20 UNL     1      51.724  53.947  19.279  1.00  0.00     0.009 C
BRANCH  21  22
HETATM   22  C21 UNL     1      51.490  54.678  20.522  1.00  0.00     0.149 C
BRANCH  22  23
HETATM   23  O6  UNL     1      50.359  54.122  21.127  1.00  0.00    -0.391 OA
ATOM     24  H6  UNL     1      50.389  53.185  20.976  1.00  0.00     0.210 HD
ENDBRANCH  22  23
BRANCH  22  25
HETATM   25  C22 UNL     1      51.261  56.136  20.402  1.00  0.00     0.070 C
BRANCH  25  26
HETATM   26  C23 UNL     1      49.784  56.388  20.746  1.00  0.00     0.174 C
BRANCH  26  27
HETATM   27  O7  UNL     1      49.630  57.025  21.952  1.00  0.00    -0.400 OA
ATOM     28  H7  UNL     1      50.029  56.544  22.668  1.00  0.00     0.209 HD
ENDBRANCH  26  27
ENDBRANCH  25  26
BRANCH  25  29
HETATM   29  C24 UNL     1      52.033  56.973  21.422  1.00  0.00     0.123 C
HETATM   30  C25 UNL     1      53.330  57.445  20.756  1.00  0.00     0.040 C
BRANCH  29  31
HETATM   31  O8  UNL     1      52.307  56.301  22.589  1.00  0.00    -0.395 OA
ATOM     32  H8  UNL     1      53.214  56.367  22.862  1.00  0.00     0.210 HD
ENDBRANCH  29  31
ENDBRANCH  25  29
ENDBRANCH  22  25
ENDBRANCH  21  22
ENDBRANCH  18  20
ENDBRANCH  17  18
ENDBRANCH  12  17
BRANCH   1  33
HETATM   33  O3  UNL     1      46.844  48.313  16.131  1.00  0.00    -0.304 OA
BRANCH  33  34
HETATM   34  C4  UNL     1      46.204  47.963  14.967  1.00  0.00     0.330 C
HETATM   35  O2  UNL     1      46.319  48.764  13.988  1.00  0.00    -0.256 OA
BRANCH  34  36
HETATM   36  C3  UNL     1      45.421  46.740  14.820  1.00  0.00     0.223 C
HETATM   37  O1  UNL     1      45.057  46.074  15.814  1.00  0.00    -0.287 OA
BRANCH  36  38
HETATM   38  C2  UNL     1      45.046  46.274  13.468  1.00  0.00     0.085 C
HETATM   39  C1  UNL     1      44.549  44.840  13.472  1.00  0.00     0.013 C
ENDBRANCH  36  38
ENDBRANCH  34  36
ENDBRANCH  33  34
ENDBRANCH   1  33
TORSDOF 14
ENDMDL