MODEL 3
REMARK VINA RESULT: -5.870767572      1.731      2.297
REMARK  16 active torsions:
REMARK  status: ('A' for Active; 'I' for Inactive)
REMARK    1  A    between atoms: C2_2  and  C4_4
REMARK    2  A    between atoms: C5_6  and  O2_7
REMARK    3  A    between atoms: O2_7  and  C6_8
REMARK    4  A    between atoms: C7_9  and  O3_10
REMARK    5  A    between atoms: C8_12  and  N1_13
REMARK    6  A    between atoms: C10_18  and  N2_19
REMARK    7  A    between atoms: C11_23  and  O4_24
REMARK    8  A    between atoms: O4_24  and  C12_25
REMARK    9  A    between atoms: C13_26  and  N3_27
REMARK   10  A    between atoms: C15_32  and  N4_33
REMARK   11  A    between atoms: C17_38  and  N5_39
REMARK   12  A    between atoms: C18_43  and  N6_44
REMARK   13  A    between atoms: C20_50  and  N7_51
REMARK   14  A    between atoms: N7_51  and  C21_53
REMARK   15  A    between atoms: C21_53  and  C22_54
REMARK   16  A    between atoms: C22_54  and  C23_55
ROOT
HETATM    1  C6  UNL     1     -12.204  -6.150   9.864  1.00  0.00     0.186 C
HETATM    2  C7  UNL     1     -12.982  -5.920  11.120  1.00  0.00     0.180 C
HETATM    3  C8  UNL     1     -12.629  -6.800  12.255  1.00  0.00     0.216 C
HETATM    4  C9  UNL     1     -12.416  -8.209  11.817  1.00  0.00     0.071 C
HETATM    5  C10 UNL     1     -12.959  -8.434  10.412  1.00  0.00     0.217 C
HETATM    6  C11 UNL     1     -12.157  -7.626   9.433  1.00  0.00     0.184 C
ENDROOT
BRANCH   1   7
HETATM    7  O2  UNL     1     -12.686  -5.457   8.791  1.00  0.00    -0.348 OA
BRANCH   7   8
HETATM    8  C5  UNL     1     -11.874  -4.496   8.192  1.00  0.00     0.299 C
HETATM    9  O1  UNL     1     -11.567  -4.842   6.903  1.00  0.00    -0.347 OA
HETATM   10  C4  UNL     1     -10.798  -3.970   6.181  1.00  0.00     0.182 C
HETATM   11  C20 UNL     1     -10.642  -2.616   6.850  1.00  0.00     0.186 C
HETATM   12  C19 UNL     1     -12.063  -2.258   7.228  1.00  0.00     0.187 C
HETATM   13  C18 UNL     1     -12.677  -3.221   8.192  1.00  0.00     0.309 C
HETATM   14  O5  UNL     1     -12.646  -1.320   6.816  1.00  0.00    -0.293 OA
BRANCH  10  15
HETATM   15  C2  UNL     1     -11.401  -3.825   4.793  1.00  0.00    -0.062 C
HETATM   16  C1  UNL     1     -12.515  -4.472   4.490  1.00  0.00     0.016 C
HETATM   17  C3  UNL     1     -10.788  -2.978   3.741  1.00  0.00     0.045 C
ENDBRANCH  10  15
BRANCH  11  18
HETATM   18  N7  UNL     1      -9.930  -1.641   6.189  1.00  0.00    -0.388 N
ATOM     19  H7  UNL     1     -10.023  -1.571   5.176  1.00  0.00     0.159 HD
BRANCH  18  20
HETATM   20  C21 UNL     1      -9.085  -0.743   6.849  1.00  0.00     0.056 C
BRANCH  20  21
HETATM   21  C22 UNL     1      -8.931  -0.727   8.315  1.00  0.00     0.044 C
BRANCH  21  22
HETATM   22  C23 UNL     1      -8.121   0.331   8.977  1.00  0.00     0.001 C
HETATM   23  C24 UNL     1      -6.981   0.688   7.995  1.00  0.00     0.005 C
ENDBRANCH  21  22
ENDBRANCH  20  21
ENDBRANCH  18  20
ENDBRANCH  11  18
BRANCH  13  24
HETATM   24  N6  UNL     1     -12.590  -2.623   9.523  1.00  0.00    -0.063 N
ATOM     25  H63 UNL     1     -13.498  -2.324   9.879  1.00  0.00     0.275 HD
ATOM     26  H62 UNL     1     -12.375  -3.308  10.248  1.00  0.00     0.275 HD
ATOM     27  H61 UNL     1     -11.913  -1.861   9.488  1.00  0.00     0.275 HD
ENDBRANCH  13  24
ENDBRANCH   7   8
ENDBRANCH   1   7
BRANCH   2  28
HETATM   28  O3  UNL     1     -14.355  -5.853  10.966  1.00  0.00    -0.391 OA
ATOM     29  H3  UNL     1     -14.685  -5.049  10.580  1.00  0.00     0.210 HD
ENDBRANCH   2  28
BRANCH   6  30
HETATM   30  O4  UNL     1     -10.884  -8.100   9.214  1.00  0.00    -0.372 OA
BRANCH  30  31
HETATM   31  C12 UNL     1     -10.521  -8.251   7.886  1.00  0.00     0.182 C
HETATM   32  C13 UNL     1      -9.281  -7.365   7.666  1.00  0.00     0.216 C
HETATM   33  C14 UNL     1      -8.017  -8.061   8.018  1.00  0.00     0.068 C
HETATM   34  C15 UNL     1      -8.080  -9.201   8.956  1.00  0.00     0.187 C
HETATM   35  C16 UNL     1      -9.265 -10.129   8.741  1.00  0.00     0.068 C
HETATM   36  C17 UNL     1      -9.994  -9.627   7.529  1.00  0.00     0.216 C
BRANCH  32  37
HETATM   37  N3  UNL     1      -9.254  -7.151   6.224  1.00  0.00    -0.072 N
ATOM     38  H33 UNL     1      -8.442  -7.554   5.755  1.00  0.00     0.274 HD
ATOM     39  H32 UNL     1      -9.955  -7.683   5.708  1.00  0.00     0.274 HD
ATOM     40  H31 UNL     1      -9.336  -6.140   6.125  1.00  0.00     0.274 HD
ENDBRANCH  32  37
BRANCH  34  41
HETATM   41  N4  UNL     1      -6.908 -10.056   8.697  1.00  0.00    -0.075 N
ATOM     42  H43 UNL     1      -6.262  -9.651   8.020  1.00  0.00     0.274 HD
ATOM     43  H42 UNL     1      -6.264 -10.097   9.487  1.00  0.00     0.274 HD
ATOM     44  H41 UNL     1      -7.251 -10.975   8.418  1.00  0.00     0.274 HD
ENDBRANCH  34  41
BRANCH  36  45
HETATM   45  N5  UNL     1     -10.921 -10.511   6.928  1.00  0.00    -0.072 N
ATOM     46  H53 UNL     1     -11.652  -9.977   6.458  1.00  0.00     0.274 HD
ATOM     47  H52 UNL     1     -10.488 -10.973   6.129  1.00  0.00     0.274 HD
ATOM     48  H51 UNL     1     -11.342 -11.206   7.544  1.00  0.00     0.274 HD
ENDBRANCH  36  45
ENDBRANCH  30  31
ENDBRANCH   6  30
BRANCH   3  49
HETATM   49  N1  UNL     1     -11.592  -6.280  13.133  1.00  0.00    -0.072 N
ATOM     50  H13 UNL     1     -10.704  -6.222  12.635  1.00  0.00     0.274 HD
ATOM     51  H12 UNL     1     -11.754  -5.291  13.323  1.00  0.00     0.274 HD
ATOM     52  H11 UNL     1     -11.474  -6.793  14.007  1.00  0.00     0.274 HD
ENDBRANCH   3  49
BRANCH   5  53
HETATM   53  N2  UNL     1     -12.899  -9.848  10.186  1.00  0.00    -0.072 N
ATOM     54  H23 UNL     1     -11.984 -10.253  10.387  1.00  0.00     0.274 HD
ATOM     55  H22 UNL     1     -13.427 -10.391  10.868  1.00  0.00     0.274 HD
ATOM     56  H21 UNL     1     -13.205  -9.993   9.224  1.00  0.00     0.274 HD
ENDBRANCH   5  53
TORSDOF 16
ENDMDL