MODEL 1
REMARK VINA RESULT: -5.599362570      0.000      0.000
REMARK  14 active torsions:
REMARK  status: ('A' for Active; 'I' for Inactive)
REMARK    1  A    between atoms: O1_2  and  C2_3
REMARK    2  A    between atoms: C2_3  and  C3_4
REMARK    3  A    between atoms: C3_4  and  O2_5
REMARK    4  A    between atoms: C3_4  and  C4_7
REMARK    5  A    between atoms: C4_7  and  O3_8
REMARK    6  A    between atoms: C8_17  and  O4_18
REMARK    7  A    between atoms: C9_20  and  O5_21
REMARK    8  A    between atoms: C10_23  and  C11_24
REMARK    9  A    between atoms: C11_24  and  C12_25
REMARK   10  A    between atoms: C12_25  and  C13_26
REMARK   11  A    between atoms: C17_30  and  N3_31
REMARK   12  A    between atoms: C17_30  and  C18_35
REMARK   13  A    between atoms: C20_39  and  O8_40
REMARK   14  A    between atoms: C20_39  and  C21_42
ROOT
HETATM    1  C2  UNL     1     -12.225  -6.485   8.859  1.00  0.00     0.160 C
HETATM    2  C5  UNL     1     -13.185  -5.310   8.918  1.00  0.00     0.078 C
HETATM    3  C6  UNL     1     -13.270  -4.503   7.924  1.00  0.00     0.039 C
HETATM    4  S1  UNL     1     -14.510  -3.270   8.437  1.00  0.00    -0.002 SA
HETATM    5  N1  UNL     1     -14.306  -3.667  10.178  1.00  0.00    -0.061 NA
HETATM    6  N2  UNL     1     -14.051  -5.031   9.991  1.00  0.00    -0.293 N
ATOM      7  H2  UNL     1     -14.457  -5.758  10.580  1.00  0.00     0.183 HD
HETATM    8  C7  UNL     1     -12.570  -4.455   6.640  1.00  0.00     0.073 C
HETATM    9  C8  UNL     1     -11.709  -5.648   6.527  1.00  0.00     0.168 C
HETATM   10  C9  UNL     1     -11.219  -6.277   7.768  1.00  0.00     0.191 C
HETATM   11  C10 UNL     1     -12.010  -3.085   6.400  1.00  0.00     0.053 C
HETATM   12  C17 UNL     1     -12.615  -2.427   5.229  1.00  0.00     0.218 C
HETATM   13  C19 UNL     1     -13.935  -3.185   5.096  1.00  0.00     0.101 C
HETATM   14  C20 UNL     1     -13.586  -4.564   5.500  1.00  0.00     0.163 C
ENDROOT
BRANCH   9  15
HETATM   15  O4  UNL     1     -10.650  -5.593   5.639  1.00  0.00    -0.392 OA
ATOM     16  H4  UNL     1      -9.993  -6.276   5.694  1.00  0.00     0.210 HD
ENDBRANCH   9  15
BRANCH  11  17
HETATM   17  C11 UNL     1     -10.597  -2.840   6.725  1.00  0.00     0.013 C
BRANCH  17  18
HETATM   18  C12 UNL     1     -10.441  -2.110   8.069  1.00  0.00     0.028 C
BRANCH  18  19
HETATM   19  C13 UNL     1      -9.370  -1.072   7.814  1.00  0.00    -0.025 C
HETATM   20  C14 UNL     1      -8.706  -0.495   8.808  1.00  0.00    -0.091 C
HETATM   21  C15 UNL     1      -7.652   0.527   8.572  1.00  0.00     0.042 C
HETATM   22  C16 UNL     1      -9.061  -0.914  10.203  1.00  0.00     0.042 C
ENDBRANCH  18  19
ENDBRANCH  17  18
ENDBRANCH  11  17
BRANCH  14  23
HETATM   23  O8  UNL     1     -12.866  -5.183   4.401  1.00  0.00    -0.377 OA
ATOM     24  H8  UNL     1     -13.010  -4.615   3.654  1.00  0.00     0.211 HD
ENDBRANCH  14  23
BRANCH  14  25
HETATM   25  C21 UNL     1     -14.737  -5.390   5.694  1.00  0.00     0.210 C
HETATM   26  O9  UNL     1     -15.902  -4.865   5.787  1.00  0.00    -0.646 OA
HETATM   27  O10 UNL     1     -14.722  -6.752   5.798  1.00  0.00    -0.646 OA
ENDBRANCH  14  25
BRANCH  10  28
HETATM   28  O5  UNL     1     -10.061  -5.605   8.282  1.00  0.00    -0.389 OA
ATOM     29  H5  UNL     1      -9.381  -6.234   8.491  1.00  0.00     0.210 HD
ENDBRANCH  10  28
BRANCH  12  30
HETATM   30  N3  UNL     1     -13.089  -1.044   5.576  1.00  0.00    -0.060 N
ATOM     31  H33 UNL     1     -14.027  -0.866   5.215  1.00  0.00     0.275 HD
ATOM     32  H32 UNL     1     -13.287  -0.952   6.572  1.00  0.00     0.275 HD
ATOM     33  H31 UNL     1     -12.423  -0.340   5.258  1.00  0.00     0.275 HD
ENDBRANCH  12  30
BRANCH  12  34
HETATM   34  C18 UNL     1     -11.946  -2.353   3.962  1.00  0.00     0.211 C
HETATM   35  O6  UNL     1     -12.080  -1.532   3.035  1.00  0.00    -0.646 OA
HETATM   36  O7  UNL     1     -10.964  -3.332   3.647  1.00  0.00    -0.646 OA
ENDBRANCH  12  34
BRANCH   1  37
HETATM   37  O1  UNL     1     -11.464  -6.627   9.978  1.00  0.00    -0.373 OA
HETATM   38  C1  UNL     1     -11.741  -6.114  11.164  1.00  0.00     0.203 C
ENDBRANCH   1  37
BRANCH   1  39
HETATM   39  C3  UNL     1     -13.097  -7.672   8.557  1.00  0.00     0.185 C
BRANCH  39  40
HETATM   40  O2  UNL     1     -14.086  -7.828   9.553  1.00  0.00    -0.390 OA
ATOM     41  H2  UNL     1     -14.648  -8.567   9.353  1.00  0.00     0.210 HD
ENDBRANCH  39  40
BRANCH  39  42
HETATM   42  C4  UNL     1     -12.314  -8.960   8.421  1.00  0.00     0.199 C
BRANCH  42  43
HETATM   43  O3  UNL     1     -11.915  -9.413   9.698  1.00  0.00    -0.398 OA
ATOM     44  H3  UNL     1     -11.843 -10.360   9.695  1.00  0.00     0.209 HD
ENDBRANCH  42  43
ENDBRANCH  39  42
ENDBRANCH   1  39
TORSDOF 14
ENDMDL