MODEL 3
REMARK VINA RESULT: -6.606950454      2.759      4.433
REMARK  17 active torsions:
REMARK  status: ('A' for Active; 'I' for Inactive)
REMARK    1  A    between atoms: C2_2  and  C3_3
REMARK    2  A    between atoms: C3_3  and  C4_4
REMARK    3  A    between atoms: C4_4  and  N1_5
REMARK    4  A    between atoms: N1_5  and  C5_7
REMARK    5  A    between atoms: C7_9  and  O1_10
REMARK    6  A    between atoms: C8_12  and  N2_13
REMARK    7  A    between atoms: C10_18  and  O2_19
REMARK    8  A    between atoms: O2_19  and  C11_20
REMARK    9  A    between atoms: C12_22  and  O4_23
REMARK   10  A    between atoms: O4_23  and  C13_24
REMARK   11  A    between atoms: C14_26  and  C15_27
REMARK   12  A    between atoms: C15_27  and  N3_28
REMARK   13  A    between atoms: C16_32  and  O6_33
REMARK   14  A    between atoms: C17_35  and  O7_37
REMARK   15  A    between atoms: C19_39  and  O8_41
REMARK   16  A    between atoms: C21_43  and  N4_44
REMARK   17  A    between atoms: C23_49  and  N5_50
ROOT
HETATM    1  C11 UNL     1     -11.212  -3.845   6.642  1.00  0.00     0.293 C
HETATM    2  O3  UNL     1     -10.696  -5.103   6.896  1.00  0.00    -0.327 OA
HETATM    3  C12 UNL     1     -10.934  -6.035   5.926  1.00  0.00     0.296 C
HETATM    4  C21 UNL     1     -12.315  -5.841   5.335  1.00  0.00     0.240 C
HETATM    5  C22 UNL     1     -12.230  -4.591   4.471  1.00  0.00     0.075 C
HETATM    6  C23 UNL     1     -11.397  -3.555   5.189  1.00  0.00     0.240 C
ENDROOT
BRANCH   3   7
HETATM    7  O4  UNL     1     -10.773  -7.292   6.488  1.00  0.00    -0.326 OA
BRANCH   7   8
HETATM    8  C13 UNL     1      -9.524  -7.385   7.171  1.00  0.00     0.300 C
HETATM    9  O5  UNL     1      -8.608  -7.461   6.184  1.00  0.00    -0.348 OA
HETATM   10  C14 UNL     1      -7.912  -8.617   6.030  1.00  0.00     0.181 C
HETATM   11  C16 UNL     1      -7.486  -9.239   7.343  1.00  0.00     0.186 C
HETATM   12  C17 UNL     1      -8.779  -9.664   8.001  1.00  0.00     0.117 C
HETATM   13  C18 UNL     1      -8.529 -10.394   9.302  1.00  0.00     0.052 C
HETATM   14  C19 UNL     1      -9.642  -8.465   8.165  1.00  0.00     0.137 C
HETATM   15  C20 UNL     1      -9.345  -7.908   9.571  1.00  0.00     0.054 C
BRANCH  10  16
HETATM   16  C15 UNL     1      -6.770  -8.497   5.045  1.00  0.00     0.264 C
BRANCH  16  17
HETATM   17  N3  UNL     1      -7.269  -8.946   3.741  1.00  0.00    -0.077 N
ATOM     18  H33 UNL     1      -7.952  -8.307   3.334  1.00  0.00     0.274 HD
ATOM     19  H32 UNL     1      -6.569  -8.878   3.002  1.00  0.00     0.274 HD
ATOM     20  H31 UNL     1      -7.630  -9.892   3.863  1.00  0.00     0.274 HD
ENDBRANCH  16  17
ENDBRANCH  10  16
BRANCH  11  21
HETATM   21  O6  UNL     1      -6.676  -8.463   8.104  1.00  0.00    -0.390 OA
ATOM     22  H6  UNL     1      -6.463  -8.824   8.956  1.00  0.00     0.210 HD
ENDBRANCH  11  21
BRANCH  12  23
HETATM   23  O7  UNL     1      -9.416 -10.564   7.119  1.00  0.00    -0.384 OA
ATOM     24  H7  UNL     1      -8.950 -11.390   7.180  1.00  0.00     0.210 HD
ENDBRANCH  12  23
BRANCH  14  25
HETATM   25  O8  UNL     1     -10.977  -8.950   8.245  1.00  0.00    -0.382 OA
ATOM     26  H8  UNL     1     -11.179  -9.260   9.120  1.00  0.00     0.210 HD
ENDBRANCH  14  25
ENDBRANCH   7   8
ENDBRANCH   3   7
BRANCH   4  27
HETATM   27  N4  UNL     1     -13.360  -5.778   6.320  1.00  0.00    -0.070 N
ATOM     28  H43 UNL     1     -13.090  -6.280   7.165  1.00  0.00     0.274 HD
ATOM     29  H42 UNL     1     -13.440  -4.835   6.700  1.00  0.00     0.274 HD
ATOM     30  H41 UNL     1     -14.264  -6.107   5.980  1.00  0.00     0.274 HD
ENDBRANCH   4  27
BRANCH   1  31
HETATM   31  O2  UNL     1     -10.308  -2.917   7.156  1.00  0.00    -0.352 OA
BRANCH  31  32
HETATM   32  C10 UNL     1     -10.828  -1.646   7.302  1.00  0.00     0.149 C
HETATM   33  C5  UNL     1      -9.814  -0.592   7.622  1.00  0.00     0.108 C
HETATM   34  C6  UNL     1      -9.079  -1.082   8.866  1.00  0.00     0.061 C
HETATM   35  C7  UNL     1     -10.072  -0.875  10.008  1.00  0.00     0.150 C
HETATM   36  C8  UNL     1     -11.335  -1.656   9.782  1.00  0.00     0.214 C
HETATM   37  C9  UNL     1     -11.892  -1.588   8.406  1.00  0.00     0.069 C
BRANCH  33  38
HETATM   38  N1  UNL     1      -8.847  -0.332   6.619  1.00  0.00    -0.414 N
ATOM     39  H1  UNL     1      -8.969  -0.671   5.664  1.00  0.00     0.153 HD
BRANCH  38  40
HETATM   40  C4  UNL     1      -7.702   0.420   6.997  1.00  0.00     0.114 C
BRANCH  40  41
HETATM   41  C3  UNL     1      -6.607   0.440   5.941  1.00  0.00     0.019 C
BRANCH  41  42
HETATM   42  C2  UNL     1      -5.269   0.681   6.627  1.00  0.00    -0.003 C
HETATM   43  C1  UNL     1      -4.332   1.431   5.739  1.00  0.00     0.005 C
ENDBRANCH  41  42
ENDBRANCH  40  41
ENDBRANCH  38  40
ENDBRANCH  33  38
BRANCH  35  44
HETATM   44  O1  UNL     1      -9.524  -1.277  11.226  1.00  0.00    -0.393 OA
ATOM     45  H1  UNL     1      -9.903  -0.789  11.947  1.00  0.00     0.210 HD
ENDBRANCH  35  44
BRANCH  36  46
HETATM   46  N2  UNL     1     -11.166  -3.019  10.276  1.00  0.00    -0.072 N
ATOM     47  H23 UNL     1     -10.203  -3.210  10.552  1.00  0.00     0.274 HD
ATOM     48  H22 UNL     1     -11.609  -3.156  11.184  1.00  0.00     0.274 HD
ATOM     49  H21 UNL     1     -11.505  -3.681   9.579  1.00  0.00     0.274 HD
ENDBRANCH  36  46
ENDBRANCH  31  32
ENDBRANCH   1  31
BRANCH   6  50
HETATM   50  N5  UNL     1     -10.108  -3.330   4.593  1.00  0.00    -0.070 N
ATOM     51  H53 UNL     1      -9.362  -3.829   5.078  1.00  0.00     0.274 HD
ATOM     52  H52 UNL     1     -10.014  -3.784   3.684  1.00  0.00     0.274 HD
ATOM     53  H51 UNL     1      -9.938  -2.326   4.545  1.00  0.00     0.274 HD
ENDBRANCH   6  50
TORSDOF 17
ENDMDL