MODEL 1
REMARK VINA RESULT: -9.596399798      0.000      0.000
REMARK  13 active torsions:
REMARK  status: ('A' for Active; 'I' for Inactive)
REMARK    1  A    between atoms: C2_2  and  C4_4
REMARK    2  A    between atoms: C4_4  and  N1_5
REMARK    3  A    between atoms: C4_4  and  C11_25
REMARK    4  A    between atoms: N1_5  and  C5_7
REMARK    5  A    between atoms: N3_13  and  O1_15
REMARK    6  A    between atoms: O1_15  and  C9_16
REMARK    7  A    between atoms: C10_19  and  O2_20
REMARK    8  A    between atoms: C11_25  and  C12_30
REMARK    9  A    between atoms: N7_26  and  O4_28
REMARK       I    between atoms: C12_30  and  N8_32
REMARK   10  A    between atoms: C14_34  and  O6_35
REMARK   11  A    between atoms: C14_34  and  C15_37
REMARK   12  A    between atoms: C15_37  and  O7_38
REMARK   13  A    between atoms: C15_37  and  C16_40
ROOT
HETATM    1  C4  UNL     1     -13.994  -2.137   6.582  1.00  0.00     0.144 C
ENDROOT
BRANCH   1   2
HETATM    2  C2  UNL     1     -15.242  -2.973   6.758  1.00  0.00     0.006 C
HETATM    3  C1  UNL     1     -15.392  -3.950   5.595  1.00  0.00     0.012 C
HETATM    4  C3  UNL     1     -15.134  -3.824   8.004  1.00  0.00     0.012 C
ENDBRANCH   1   2
BRANCH   1   5
HETATM    5  N1  UNL     1     -13.576  -1.969   5.237  1.00  0.00    -0.365 N
ATOM      6  H1  UNL     1     -14.253  -1.500   4.636  1.00  0.00     0.161 HD
BRANCH   5   7
HETATM    7  C5  UNL     1     -12.496  -2.308   4.658  1.00  0.00     0.118 A
HETATM    8  C6  UNL     1     -11.497  -2.923   5.433  1.00  0.00     0.066 A
HETATM    9  C7  UNL     1     -10.325  -3.295   4.825  1.00  0.00     0.110 A
HETATM   10  N2  UNL     1     -10.155  -3.065   3.501  1.00  0.00    -0.200 N
HETATM   11  C8  UNL     1     -11.124  -2.480   2.799  1.00  0.00     0.703 A
ATOM     12  H2  UNL     1      -9.286  -3.338   3.043  1.00  0.00     0.183 HD
HETATM   13  N3  UNL     1     -10.962  -2.257   1.545  1.00  0.00    -0.092 N
HETATM   14  N6  UNL     1     -12.319  -2.086   3.353  1.00  0.00    -0.175 N
ATOM     15  H3  UNL     1     -11.701  -1.808   1.003  1.00  0.00     0.213 HD
ATOM     16  H6  UNL     1     -13.042  -1.640   2.788  1.00  0.00     0.186 HD
BRANCH  13  17
HETATM   17  O1  UNL     1      -9.790  -2.626   0.942  1.00  0.00    -0.214 OA
BRANCH  17  18
HETATM   18  C9  UNL     1      -9.528  -2.098  -0.359  1.00  0.00     0.406 C
HETATM   19  N4  UNL     1      -8.131  -2.345  -0.654  1.00  0.00    -0.082 NA
HETATM   20  N5  UNL     1      -8.190  -3.735  -0.949  1.00  0.00    -0.084 NA
HETATM   21  C10 UNL     1      -9.333  -3.756  -1.858  1.00  0.00     0.378 C
HETATM   22  O3  UNL     1     -10.236  -2.874  -1.302  1.00  0.00    -0.298 OA
BRANCH  21  23
HETATM   23  O2  UNL     1      -9.850  -5.039  -2.009  1.00  0.00    -0.357 OA
ATOM     24  H2  UNL     1     -10.211  -5.373  -1.196  1.00  0.00     0.214 HD
ENDBRANCH  21  23
ENDBRANCH  17  18
ENDBRANCH  13  17
ENDBRANCH   5   7
ENDBRANCH   1   5
BRANCH   1  25
HETATM   25  C11 UNL     1     -14.116  -0.810   7.290  1.00  0.00     0.124 C
HETATM   26  N7  UNL     1     -14.252   0.262   6.618  1.00  0.00    -0.266 N
ATOM     27  H7  UNL     1     -14.328   1.125   7.157  1.00  0.00     0.194 HD
BRANCH  26  28
HETATM   28  O4  UNL     1     -14.308   0.391   5.266  1.00  0.00    -0.290 OA
ATOM     29  H4  UNL     1     -14.629  -0.244   4.637  1.00  0.00     0.244 HD
ENDBRANCH  26  28
BRANCH  25  30
HETATM   30  C12 UNL     1     -14.090  -0.807   8.735  1.00  0.00     0.288 C
HETATM   31  O5  UNL     1     -15.104  -0.535   9.405  1.00  0.00    -0.264 OA
HETATM   32  N8  UNL     1     -12.870  -1.124   9.428  1.00  0.00    -0.253 N
HETATM   33  C13 UNL     1     -11.575  -1.448   8.864  1.00  0.00     0.199 A
HETATM   34  N9  UNL     1     -12.748  -1.188  10.803  1.00  0.00    -0.307 N
HETATM   35  C14 UNL     1     -10.675  -1.604  10.043  1.00  0.00     0.139 A
HETATM   36  C22 UNL     1     -11.594  -1.443  11.237  1.00  0.00     0.122 A
ATOM     37  H9  UNL     1     -13.541  -1.037  11.426  1.00  0.00     0.186 HD
BRANCH  35  38
HETATM   38  O6  UNL     1     -10.165  -2.899  10.194  1.00  0.00    -0.380 OA
ATOM     39  H6  UNL     1      -9.218  -2.945  10.143  1.00  0.00     0.211 HD
ENDBRANCH  35  38
BRANCH  35  40
HETATM   40  C15 UNL     1      -9.583  -0.568  10.139  1.00  0.00     0.192 C
BRANCH  40  41
HETATM   41  O7  UNL     1      -8.587  -1.155  10.955  1.00  0.00    -0.387 OA
ATOM     42  H7  UNL     1      -7.894  -0.507  11.006  1.00  0.00     0.210 HD
ENDBRANCH  40  41
BRANCH  40  43
HETATM   43  C16 UNL     1      -8.893  -0.338   8.831  1.00  0.00    -0.026 A
HETATM   44  C17 UNL     1      -7.735   0.462   8.819  1.00  0.00     0.010 A
HETATM   45  C18 UNL     1      -7.049   0.713   7.660  1.00  0.00     0.001 A
HETATM   46  C19 UNL     1      -7.489   0.177   6.473  1.00  0.00     0.000 A
HETATM   47  C20 UNL     1      -8.610  -0.610   6.420  1.00  0.00     0.001 A
HETATM   48  C21 UNL     1      -9.287  -0.845   7.628  1.00  0.00     0.010 A
ENDBRANCH  40  43
ENDBRANCH  35  40
ENDBRANCH  25  30
ENDBRANCH   1  25
TORSDOF 13
ENDMDL