MODEL 5
REMARK VINA RESULT: -5.464755095      2.695      7.703
REMARK  15 active torsions:
REMARK  status: ('A' for Active; 'I' for Inactive)
REMARK    1  A    between atoms: N1_1  and  C1_5
REMARK    2  A    between atoms: C3_7  and  N2_8
REMARK    3  A    between atoms: C4_12  and  O1_13
REMARK    4  A    between atoms: O1_13  and  C5_14
REMARK    5  A    between atoms: C6_16  and  O3_17
REMARK    6  A    between atoms: O3_17  and  C7_18
REMARK    7  A    between atoms: C8_19  and  C9_20
REMARK    8  A    between atoms: C10_22  and  C11_23
REMARK    9  A    between atoms: C12_25  and  C13_26
REMARK   10  A    between atoms: C13_26  and  O4_27
REMARK   11  A    between atoms: C14_29  and  N3_30
REMARK   12  A    between atoms: C14_29  and  C15_34
REMARK   13  A    between atoms: C16_37  and  N4_38
REMARK   14  A    between atoms: C18_43  and  N5_44
REMARK   15  A    between atoms: C19_48  and  N6_49
ROOT
HETATM    1  C5  UNL     1     -12.125  -4.148   7.941  1.00  0.00     0.293 C
HETATM    2  O2  UNL     1     -11.936  -5.526   7.880  1.00  0.00    -0.327 OA
HETATM    3  C6  UNL     1     -11.354  -6.039   9.036  1.00  0.00     0.293 C
HETATM    4  C16 UNL     1     -12.392  -6.053  10.116  1.00  0.00     0.240 C
HETATM    5  C17 UNL     1     -13.489  -5.067   9.777  1.00  0.00     0.075 C
HETATM    6  C18 UNL     1     -12.827  -3.803   9.257  1.00  0.00     0.240 C
ENDROOT
BRANCH   3   7
HETATM    7  O3  UNL     1     -10.966  -7.358   8.719  1.00  0.00    -0.350 OA
BRANCH   7   8
HETATM    8  C7  UNL     1      -9.758  -7.380   8.044  1.00  0.00     0.177 C
HETATM    9  C8  UNL     1      -9.860  -8.094   6.726  1.00  0.00     0.033 C
HETATM   10  C10 UNL     1      -8.572  -8.914   6.594  1.00  0.00     0.012 C
HETATM   11  C12 UNL     1      -8.335  -9.301   8.008  1.00  0.00     0.064 C
HETATM   12  C14 UNL     1      -8.681  -8.105   8.862  1.00  0.00     0.242 C
BRANCH   9  13
HETATM   13  C9  UNL     1     -11.083  -8.982   6.660  1.00  0.00     0.093 C
HETATM   14  S1  UNL     1     -12.288  -8.395   5.466  1.00  0.00    -0.097 SA
ENDBRANCH   9  13
BRANCH  10  15
HETATM   15  C11 UNL     1      -7.542  -8.067   5.942  1.00  0.00     0.091 C
HETATM   16  S2  UNL     1      -6.803  -8.769   4.457  1.00  0.00    -0.097 SA
ENDBRANCH  10  15
BRANCH  11  17
HETATM   17  C13 UNL     1      -7.051  -9.954   8.337  1.00  0.00     0.172 C
BRANCH  17  18
HETATM   18  O4  UNL     1      -7.336 -11.027   9.212  1.00  0.00    -0.400 OA
ATOM     19  H4  UNL     1      -6.991 -11.817   8.812  1.00  0.00     0.209 HD
ENDBRANCH  17  18
ENDBRANCH  11  17
BRANCH  12  20
HETATM   20  N3  UNL     1      -7.599  -7.214   9.112  1.00  0.00    -0.057 N
ATOM     21  H33 UNL     1      -7.757  -6.291   8.708  1.00  0.00     0.276 HD
ATOM     22  H32 UNL     1      -7.545  -6.937  10.092  1.00  0.00     0.276 HD
ATOM     23  H31 UNL     1      -6.731  -7.637   8.782  1.00  0.00     0.276 HD
ENDBRANCH  12  20
BRANCH  12  24
HETATM   24  C15 UNL     1      -9.248  -8.512  10.172  1.00  0.00     0.213 C
HETATM   25  O5  UNL     1      -9.805  -9.633  10.287  1.00  0.00    -0.646 OA
HETATM   26  O6  UNL     1      -9.202  -7.713  11.306  1.00  0.00    -0.646 OA
ENDBRANCH  12  24
ENDBRANCH   7   8
ENDBRANCH   3   7
BRANCH   4  27
HETATM   27  N4  UNL     1     -11.786  -5.698  11.403  1.00  0.00    -0.070 N
ATOM     28  H43 UNL     1     -10.787  -5.903  11.424  1.00  0.00     0.274 HD
ATOM     29  H42 UNL     1     -11.735  -4.689  11.536  1.00  0.00     0.274 HD
ATOM     30  H41 UNL     1     -12.285  -6.158  12.165  1.00  0.00     0.274 HD
ENDBRANCH   4  27
BRANCH   1  31
HETATM   31  O1  UNL     1     -13.013  -3.818   6.920  1.00  0.00    -0.350 OA
BRANCH  31  32
HETATM   32  C4  UNL     1     -12.366  -3.088   5.895  1.00  0.00     0.185 C
HETATM   33  C3  UNL     1     -12.137  -4.032   4.766  1.00  0.00     0.216 C
HETATM   34  C2  UNL     1     -11.880  -3.388   3.447  1.00  0.00     0.068 C
HETATM   35  C1  UNL     1     -11.894  -1.898   3.466  1.00  0.00     0.187 C
HETATM   36  C20 UNL     1     -13.133  -1.431   4.169  1.00  0.00     0.068 C
HETATM   37  C19 UNL     1     -13.244  -1.924   5.571  1.00  0.00     0.216 C
BRANCH  33  38
HETATM   38  N2  UNL     1     -10.947  -4.829   5.099  1.00  0.00    -0.072 N
ATOM     39  H23 UNL     1     -11.150  -5.822   5.211  1.00  0.00     0.274 HD
ATOM     40  H22 UNL     1     -10.293  -4.916   4.321  1.00  0.00     0.274 HD
ATOM     41  H21 UNL     1     -10.527  -4.411   5.929  1.00  0.00     0.274 HD
ENDBRANCH  33  38
BRANCH  35  42
HETATM   42  N1  UNL     1     -12.011  -1.451   2.069  1.00  0.00    -0.075 N
ATOM     43  H13 UNL     1     -11.133  -1.102   1.685  1.00  0.00     0.274 HD
ATOM     44  H12 UNL     1     -12.144  -2.220   1.412  1.00  0.00     0.274 HD
ATOM     45  H11 UNL     1     -12.763  -0.763   2.038  1.00  0.00     0.274 HD
ENDBRANCH  35  42
BRANCH  37  46
HETATM   46  N6  UNL     1     -14.649  -2.211   5.847  1.00  0.00    -0.072 N
ATOM     47  H63 UNL     1     -14.950  -3.070   5.387  1.00  0.00     0.274 HD
ATOM     48  H62 UNL     1     -14.787  -2.493   6.817  1.00  0.00     0.274 HD
ATOM     49  H61 UNL     1     -15.252  -1.426   5.599  1.00  0.00     0.274 HD
ENDBRANCH  37  46
ENDBRANCH  31  32
ENDBRANCH   1  31
BRANCH   6  50
HETATM   50  N5  UNL     1     -11.870  -3.375  10.263  1.00  0.00    -0.070 N
ATOM     51  H53 UNL     1     -12.002  -3.872  11.143  1.00  0.00     0.274 HD
ATOM     52  H52 UNL     1     -10.926  -3.694  10.044  1.00  0.00     0.274 HD
ATOM     53  H51 UNL     1     -11.903  -2.364  10.395  1.00  0.00     0.274 HD
ENDBRANCH   6  50
TORSDOF 15
ENDMDL