MODEL 2
REMARK VINA RESULT: -9.879639226      3.568      6.162
REMARK  12 active torsions:
REMARK  status: ('A' for Active; 'I' for Inactive)
REMARK    1  A    between atoms: C2_2  and  N1_3
REMARK    2  A    between atoms: N1_3  and  C3_5
REMARK    3  A    between atoms: C6_13  and  N4_14
REMARK       I    between atoms: N4_14  and  C7_16
REMARK    4  A    between atoms: C7_16  and  C8_18
REMARK    5  A    between atoms: C9_23  and  O4_24
REMARK    6  A    between atoms: O4_24  and  C10_25
REMARK    7  A    between atoms: C13_28  and  O5_29
REMARK    8  A    between atoms: C15_32  and  O6_33
REMARK    9  A    between atoms: O6_33  and  C16_34
REMARK   10  A    between atoms: C16_34  and  C17_35
REMARK       I    between atoms: C17_35  and  N6_37
REMARK   11  A    between atoms: N6_37  and  N7_39
REMARK       I    between atoms: N7_39  and  C18_41
REMARK   12  A    between atoms: C18_41  and  C19_43
ROOT
HETATM    1  C10 UNL     1      -9.240  -1.246   6.895  1.00  0.00     0.111 A
HETATM    2  C11 UNL     1      -8.359  -0.321   6.395  1.00  0.00     0.043 A
HETATM    3  C12 UNL     1      -7.629   0.537   7.214  1.00  0.00     0.039 A
HETATM    4  C13 UNL     1      -7.771   0.483   8.568  1.00  0.00     0.068 A
HETATM    5  C14 UNL     1      -8.665  -0.457   9.063  1.00  0.00     0.076 A
HETATM    6  C15 UNL     1      -9.396  -1.312   8.299  1.00  0.00     0.105 A
ENDROOT
BRANCH   1   7
HETATM    7  O4  UNL     1      -9.977  -2.106   6.105  1.00  0.00    -0.287 OA
BRANCH   7   8
HETATM    8  C9  UNL     1     -10.697  -1.802   4.999  1.00  0.00     0.194 C
HETATM    9  C3  UNL     1     -12.075  -1.772   5.194  1.00  0.00     0.155 C
HETATM   10  N2  UNL     1     -13.030  -1.273   4.348  1.00  0.00    -0.326 N
HETATM   11  C4  UNL     1     -12.890  -1.020   3.035  1.00  0.00     0.103 C
ATOM     12  H2  UNL     1     -13.943  -1.071   4.757  1.00  0.00     0.169 HD
HETATM   13  N3  UNL     1     -13.858  -0.392   2.472  1.00  0.00    -0.385 N
HETATM   14  C5  UNL     1     -11.810  -1.365   2.210  1.00  0.00     0.096 C
ATOM     15  H32 UNL     1     -14.643  -0.141   3.072  1.00  0.00     0.157 HD
ATOM     16  H31 UNL     1     -13.752  -0.200   1.475  1.00  0.00     0.157 HD
HETATM   17  C6  UNL     1     -10.558  -1.811   2.568  1.00  0.00     0.113 C
HETATM   18  N5  UNL     1     -10.033  -1.558   3.818  1.00  0.00    -0.320 N
ATOM     19  H5  UNL     1      -9.093  -1.167   3.870  1.00  0.00     0.169 HD
BRANCH   9  20
HETATM   20  N1  UNL     1     -12.445  -2.284   6.287  1.00  0.00    -0.373 N
ATOM     21  H1  UNL     1     -12.102  -1.814   7.124  1.00  0.00     0.161 HD
BRANCH  20  22
HETATM   22  C2  UNL     1     -13.270  -3.419   6.523  1.00  0.00     0.117 C
HETATM   23  C1  UNL     1     -12.310  -4.568   6.886  1.00  0.00     0.026 C
ENDBRANCH  20  22
ENDBRANCH   9  20
BRANCH  17  24
HETATM   24  N4  UNL     1      -9.810  -2.582   1.647  1.00  0.00    -0.304 N
HETATM   25  C7  UNL     1      -9.400  -2.182   0.395  1.00  0.00     0.323 C
HETATM   26  O1  UNL     1      -9.699  -1.069  -0.155  1.00  0.00    -0.260 OA
ATOM     27  H4  UNL     1      -9.551  -3.525   1.939  1.00  0.00     0.171 HD
BRANCH  25  28
HETATM   28  C8  UNL     1      -8.546  -3.048  -0.434  1.00  0.00     0.270 C
HETATM   29  O2  UNL     1      -8.942  -3.296  -1.606  1.00  0.00    -0.640 OA
HETATM   30  O3  UNL     1      -7.361  -3.583  -0.002  1.00  0.00    -0.640 OA
ENDBRANCH  25  28
ENDBRANCH  17  24
ENDBRANCH   7   8
ENDBRANCH   1   7
BRANCH   6  31
HETATM   31  O6  UNL     1     -10.294  -2.258   8.755  1.00  0.00    -0.339 OA
BRANCH  31  32
HETATM   32  C16 UNL     1     -10.904  -2.156  10.010  1.00  0.00     0.280 C
BRANCH  32  33
HETATM   33  C17 UNL     1     -12.395  -2.157   9.883  1.00  0.00     0.260 C
HETATM   34  O7  UNL     1     -13.010  -3.216  10.104  1.00  0.00    -0.269 OA
HETATM   35  N6  UNL     1     -13.053  -0.978   9.523  1.00  0.00    -0.265 N
ATOM     36  H6  UNL     1     -12.503  -0.137   9.349  1.00  0.00     0.190 HD
BRANCH  35  37
HETATM   37  N7  UNL     1     -14.433  -0.921   9.395  1.00  0.00    -0.261 N
HETATM   38  C18 UNL     1     -15.038  -0.527   8.184  1.00  0.00     0.306 C
HETATM   39  O8  UNL     1     -14.327  -0.234   7.203  1.00  0.00    -0.262 OA
ATOM     40  H7  UNL     1     -15.020  -1.167  10.191  1.00  0.00     0.190 HD
BRANCH  38  41
HETATM   41  C19 UNL     1     -16.478  -0.462   8.074  1.00  0.00     0.208 A
HETATM   42  N8  UNL     1     -17.273  -1.362   7.468  1.00  0.00    -0.264 N
HETATM   43  N9  UNL     1     -18.509  -0.927   7.585  1.00  0.00    -0.226 N
ATOM     44  H8  UNL     1     -16.974  -2.220   7.005  1.00  0.00     0.190 HD
HETATM   45  N10 UNL     1     -18.559   0.216   8.240  1.00  0.00    -0.226 N
ATOM     46  H9  UNL     1     -19.326  -1.413   7.215  1.00  0.00     0.210 HD
HETATM   47  N11 UNL     1     -17.310   0.508   8.545  1.00  0.00    -0.264 N
ATOM     48  H10 UNL     1     -19.391   0.762   8.464  1.00  0.00     0.210 HD
ATOM     49  H11 UNL     1     -17.011   1.338   9.057  1.00  0.00     0.190 HD
ENDBRANCH  38  41
ENDBRANCH  35  37
ENDBRANCH  32  33
ENDBRANCH  31  32
ENDBRANCH   6  31
BRANCH   4  50
HETATM   50  O5  UNL     1      -7.096   1.291   9.461  1.00  0.00    -0.361 OA
ATOM     51  H5  UNL     1      -6.981   1.098  10.384  1.00  0.00     0.217 HD
ENDBRANCH   4  50
TORSDOF 12
ENDMDL