MODEL 5
REMARK VINA RESULT: -7.135323540      2.087      3.319
REMARK  13 active torsions:
REMARK  status: ('A' for Active; 'I' for Inactive)
REMARK    1  A    between atoms: C12_18  and  C13_19
REMARK    2  A    between atoms: C13_19  and  C14_20
REMARK       I    between atoms: C14_20  and  N3_22
REMARK    3  A    between atoms: N3_22  and  C15_24
REMARK    4  A    between atoms: C15_24  and  O3_25
REMARK    5  A    between atoms: C15_24  and  C16_28
REMARK    6  A    between atoms: O3_25  and  O4_26
REMARK    7  A    between atoms: C16_28  and  C17_30
REMARK    8  A    between atoms: C17_30  and  C18_32
REMARK    9  A    between atoms: C18_32  and  O6_33
REMARK   10  A    between atoms: C18_32  and  C19_35
REMARK   11  A    between atoms: C19_35  and  O7_36
REMARK   12  A    between atoms: C19_35  and  C20_38
REMARK   13  A    between atoms: C20_38  and  O8_39
ROOT
HETATM    1  C13 UNL     1     -10.803  -6.034   6.048  1.00  0.00     0.117 C
ENDROOT
BRANCH   1   2
HETATM    2  C12 UNL     1     -11.188  -7.198   6.929  1.00  0.00     0.096 C
HETATM    3  C11 UNL     1     -10.982  -6.968   8.377  1.00  0.00     0.042 C
HETATM    4  C10 UNL     1     -12.135  -7.395   9.261  1.00  0.00     0.233 C
HETATM    5  N2  UNL     1     -12.525  -8.768   9.053  1.00  0.00    -0.074 N
HETATM    6  C9  UNL     1     -13.134  -9.324  10.247  1.00  0.00     0.251 C
ATOM      7  H22 UNL     1     -11.742  -9.337   8.729  1.00  0.00     0.277 HD
ATOM      8  H21 UNL     1     -13.134  -8.866   8.240  1.00  0.00     0.277 HD
HETATM    9  C8  UNL     1     -12.108 -10.283  10.860  1.00  0.00     0.150 C
HETATM   10  N1  UNL     1     -11.198  -9.476  11.641  1.00  0.00    -0.359 N
HETATM   11  C7  UNL     1      -9.786  -9.615  11.646  1.00  0.00     0.217 C
ATOM     12  H1  UNL     1     -11.602  -8.750  12.233  1.00  0.00     0.162 HD
HETATM   13  C6  UNL     1      -9.058 -10.886  11.753  1.00  0.00     0.103 C
HETATM   14  O1  UNL     1      -9.104  -8.545  11.548  1.00  0.00    -0.274 OA
HETATM   15  C5  UNL     1      -8.638 -11.485  10.439  1.00  0.00     0.009 C
HETATM   16  C4  UNL     1      -7.922 -10.543   9.525  1.00  0.00     0.003 C
HETATM   17  C3  UNL     1      -8.821 -10.305   8.314  1.00  0.00     0.032 C
HETATM   18  C2  UNL     1      -8.291  -9.293   7.362  1.00  0.00     0.127 C
HETATM   19  C1  UNL     1      -7.203  -8.419   8.017  1.00  0.00     0.040 C
HETATM   20  O10 UNL     1      -9.160  -8.529   6.650  1.00  0.00    -0.316 OA
HETATM   21  C21 UNL     1     -10.455  -8.393   6.374  1.00  0.00     0.263 C
HETATM   22  O9  UNL     1     -11.230  -9.123   5.691  1.00  0.00    -0.265 OA
ENDBRANCH   1   2
BRANCH   1  23
HETATM   23  C14 UNL     1     -11.938  -5.356   5.394  1.00  0.00     0.220 C
HETATM   24  O2  UNL     1     -12.846  -6.076   4.907  1.00  0.00    -0.274 OA
HETATM   25  N3  UNL     1     -11.959  -3.949   5.342  1.00  0.00    -0.331 N
ATOM     26  H3  UNL     1     -11.175  -3.453   5.767  1.00  0.00     0.165 HD
BRANCH  25  27
HETATM   27  C15 UNL     1     -12.993  -3.156   4.740  1.00  0.00     0.283 C
BRANCH  27  28
HETATM   28  O3  UNL     1     -14.016  -3.028   5.655  1.00  0.00    -0.215 OA
BRANCH  28  29
HETATM   29  O4  UNL     1     -14.985  -3.890   5.491  1.00  0.00    -0.248 OA
ATOM     30  H4  UNL     1     -15.537  -3.999   6.255  1.00  0.00     0.253 HD
ENDBRANCH  28  29
ENDBRANCH  27  28
BRANCH  27  31
HETATM   31  C16 UNL     1     -12.579  -1.856   4.196  1.00  0.00     0.182 C
HETATM   32  S1  UNL     1     -13.838  -0.548   4.510  1.00  0.00    -0.080 SA
BRANCH  31  33
HETATM   33  C17 UNL     1     -12.074  -1.773   2.840  1.00  0.00     0.176 C
HETATM   34  O5  UNL     1     -12.700  -0.991   2.088  1.00  0.00    -0.294 OA
BRANCH  33  35
HETATM   35  C18 UNL     1     -10.941  -2.470   2.213  1.00  0.00     0.219 C
BRANCH  35  36
HETATM   36  O6  UNL     1      -9.918  -2.765   3.098  1.00  0.00    -0.385 OA
ATOM     37  H6  UNL     1      -9.483  -1.994   3.444  1.00  0.00     0.210 HD
ENDBRANCH  35  36
BRANCH  35  38
HETATM   38  C19 UNL     1     -10.399  -1.726   1.006  1.00  0.00     0.177 C
BRANCH  38  39
HETATM   39  O7  UNL     1      -9.773  -0.555   1.481  1.00  0.00    -0.390 OA
ATOM     40  H7  UNL     1      -9.389  -0.116   0.732  1.00  0.00     0.210 HD
ENDBRANCH  38  39
BRANCH  38  41
HETATM   41  C20 UNL     1      -9.311  -2.537   0.333  1.00  0.00     0.198 C
BRANCH  41  42
HETATM   42  O8  UNL     1      -8.629  -1.707  -0.561  1.00  0.00    -0.398 OA
ATOM     43  H8  UNL     1      -8.751  -0.806  -0.289  1.00  0.00     0.209 HD
ENDBRANCH  41  42
ENDBRANCH  38  41
ENDBRANCH  35  38
ENDBRANCH  33  35
ENDBRANCH  31  33
ENDBRANCH  27  31
ENDBRANCH  25  27
ENDBRANCH   1  23
TORSDOF 13
ENDMDL