MODEL 5
REMARK VINA RESULT: -6.059152674      4.116      6.343
REMARK  15 active torsions:
REMARK  status: ('A' for Active; 'I' for Inactive)
REMARK    1  A    between atoms: C4_4  and  N1_5
REMARK    2  A    between atoms: N1_5  and  O1_6
REMARK    3  A    between atoms: C5_8  and  O2_9
REMARK    4  A    between atoms: C6_11  and  O3_12
REMARK    5  A    between atoms: O3_12  and  C7_13
REMARK    6  A    between atoms: C11_17  and  O4_18
REMARK    7  A    between atoms: O4_18  and  C12_19
REMARK    8  A    between atoms: C12_19  and  O5_20
REMARK    9  A    between atoms: C12_19  and  C13_22
REMARK   10  A    between atoms: C13_22  and  O6_23
REMARK   11  A    between atoms: C13_22  and  C14_25
REMARK   12  A    between atoms: C14_25  and  O7_26
REMARK   13  A    between atoms: C14_25  and  C15_28
REMARK   14  A    between atoms: S1_31  and  N2_32
REMARK   15  A    between atoms: C20_41  and  N4_42
ROOT
HETATM    1  C7  UNL     1     -11.417  -6.815   6.259  1.00  0.00     0.155 C
HETATM    2  C8  UNL     1     -12.473  -6.768   5.211  1.00  0.00     0.041 C
HETATM    3  C9  UNL     1     -13.077  -5.423   4.961  1.00  0.00     0.013 C
HETATM    4  C10 UNL     1     -12.160  -4.670   4.014  1.00  0.00     0.012 C
HETATM    5  C11 UNL     1     -13.430  -4.645   6.181  1.00  0.00     0.130 C
HETATM    6  C19 UNL     1     -12.753  -5.169   7.431  1.00  0.00     0.067 C
HETATM    7  C20 UNL     1     -11.315  -5.503   7.006  1.00  0.00     0.214 C
ENDROOT
BRANCH   5   8
HETATM    8  O4  UNL     1     -14.787  -4.463   6.347  1.00  0.00    -0.353 OA
BRANCH   8   9
HETATM    9  C12 UNL     1     -15.160  -3.371   7.079  1.00  0.00     0.288 C
BRANCH   9  10
HETATM   10  O5  UNL     1     -16.567  -3.274   7.189  1.00  0.00    -0.369 OA
ATOM     11  H5  UNL     1     -16.826  -2.818   7.981  1.00  0.00     0.212 HD
ENDBRANCH   9  10
BRANCH   9  12
HETATM   12  C13 UNL     1     -14.685  -2.114   6.398  1.00  0.00     0.203 C
BRANCH  12  13
HETATM   13  O6  UNL     1     -15.534  -1.693   5.406  1.00  0.00    -0.388 OA
ATOM     14  H6  UNL     1     -15.264  -0.871   5.015  1.00  0.00     0.210 HD
ENDBRANCH  12  13
BRANCH  12  15
HETATM   15  C14 UNL     1     -14.493  -0.990   7.417  1.00  0.00     0.184 C
BRANCH  15  16
HETATM   16  O7  UNL     1     -15.760  -0.532   7.836  1.00  0.00    -0.391 OA
ATOM     17  H7  UNL     1     -15.650   0.027   8.596  1.00  0.00     0.210 HD
ENDBRANCH  15  16
BRANCH  15  18
HETATM   18  C15 UNL     1     -13.721  -1.486   8.598  1.00  0.00     0.243 C
HETATM   19  C16 UNL     1     -14.150  -0.765   9.830  1.00  0.00     0.222 C
HETATM   20  O8  UNL     1     -14.199  -1.696  10.888  1.00  0.00    -0.309 OA
HETATM   21  S1  UNL     1     -12.390  -2.328  11.005  1.00  0.00     0.033 SA
HETATM   22  C17 UNL     1     -11.520  -1.247   9.475  1.00  0.00     0.279 C
HETATM   23  C18 UNL     1     -10.137  -1.841   9.306  1.00  0.00     0.055 C
HETATM   24  N3  UNL     1     -12.322  -1.440   8.305  1.00  0.00    -0.051 N
ATOM     25  H32 UNL     1     -12.028  -2.272   7.793  1.00  0.00     0.279 HD
ATOM     26  H31 UNL     1     -12.118  -0.732   7.600  1.00  0.00     0.279 HD
BRANCH  21  27
HETATM   27  N2  UNL     1     -12.219  -4.312  10.663  1.00  0.00    -0.360 NA
ATOM     28  H22 UNL     1     -12.966  -4.636  10.049  1.00  0.00     0.165 HD
ATOM     29  H21 UNL     1     -12.403  -4.878  11.490  1.00  0.00     0.165 HD
ENDBRANCH  21  27
ENDBRANCH  15  18
ENDBRANCH  12  15
ENDBRANCH   9  12
ENDBRANCH   8   9
ENDBRANCH   5   8
BRANCH   7  30
HETATM   30  N4  UNL     1     -10.535  -5.599   8.201  1.00  0.00    -0.072 N
ATOM     31  H43 UNL     1     -10.984  -6.213   8.880  1.00  0.00     0.274 HD
ATOM     32  H42 UNL     1      -9.679  -6.130   8.036  1.00  0.00     0.274 HD
ATOM     33  H41 UNL     1     -10.325  -4.690   8.615  1.00  0.00     0.274 HD
ENDBRANCH   7  30
BRANCH   1  34
HETATM   34  O3  UNL     1     -10.214  -7.215   5.701  1.00  0.00    -0.351 OA
BRANCH  34  35
HETATM   35  C6  UNL     1      -9.986  -8.580   5.848  1.00  0.00     0.291 C
HETATM   36  C5  UNL     1      -9.265  -9.190   4.701  1.00  0.00     0.195 C
HETATM   37  C4  UNL     1      -7.785  -9.152   4.774  1.00  0.00     0.142 C
HETATM   38  C3  UNL     1      -7.206  -8.315   5.851  1.00  0.00     0.058 C
HETATM   39  C2  UNL     1      -8.153  -7.859   6.902  1.00  0.00     0.122 C
HETATM   40  C1  UNL     1      -7.467  -7.856   8.263  1.00  0.00     0.040 C
HETATM   41  O9  UNL     1      -9.227  -8.743   7.001  1.00  0.00    -0.354 OA
BRANCH  36  42
HETATM   42  O2  UNL     1      -9.722 -10.512   4.547  1.00  0.00    -0.389 OA
ATOM     43  H2  UNL     1     -10.215 -10.788   5.311  1.00  0.00     0.210 HD
ENDBRANCH  36  42
BRANCH  37  44
HETATM   44  N1  UNL     1      -7.298 -10.527   4.976  1.00  0.00    -0.096 NA
BRANCH  44  45
HETATM   45  O1  UNL     1      -7.393 -10.914   6.250  1.00  0.00    -0.296 OA
ATOM     46  H1  UNL     1      -7.909 -11.705   6.346  1.00  0.00     0.238 HD
ENDBRANCH  44  45
ENDBRANCH  37  44
ENDBRANCH  34  35
ENDBRANCH   1  34
TORSDOF 15
ENDMDL