MODEL 4
REMARK VINA RESULT: -5.266293786      2.329      7.478
REMARK  17 active torsions:
REMARK  status: ('A' for Active; 'I' for Inactive)
REMARK    1  A    between atoms: C2_2  and  C3_3
REMARK    2  A    between atoms: C3_3  and  C4_4
REMARK    3  A    between atoms: C5_5  and  O1_6
REMARK    4  A    between atoms: C7_8  and  N1_9
REMARK    5  A    between atoms: C10_16  and  C11_17
REMARK    6  A    between atoms: C10_16  and  O4_20
REMARK    7  A    between atoms: C11_17  and  O3_18
REMARK    8  A    between atoms: O4_20  and  C12_21
REMARK    9  A    between atoms: C13_22  and  N2_23
REMARK   10  A    between atoms: C15_28  and  N3_29
REMARK   11  A    between atoms: C16_33  and  O5_34
REMARK   12  A    between atoms: O5_34  and  C17_35
REMARK   13  A    between atoms: C18_36  and  N4_37
REMARK   14  A    between atoms: C20_42  and  N5_43
REMARK   15  A    between atoms: C22_48  and  N6_49
REMARK   16  A    between atoms: C23_53  and  O6_54
REMARK   17  A    between atoms: C24_56  and  O7_57
ROOT
HETATM    1  C12 UNL     1     -11.316  -6.320   9.335  1.00  0.00     0.187 C
HETATM    2  C13 UNL     1     -10.372  -7.420   9.118  1.00  0.00     0.217 C
HETATM    3  C14 UNL     1     -10.580  -8.085   7.788  1.00  0.00     0.071 C
HETATM    4  C15 UNL     1     -10.224  -7.187   6.625  1.00  0.00     0.217 C
HETATM    5  C16 UNL     1     -10.529  -5.729   6.966  1.00  0.00     0.183 C
HETATM    6  C24 UNL     1     -11.578  -5.636   8.048  1.00  0.00     0.180 C
ENDROOT
BRANCH   5   7
HETATM    7  O5  UNL     1     -10.974  -5.130   5.831  1.00  0.00    -0.371 OA
BRANCH   7   8
HETATM    8  C17 UNL     1     -11.429  -3.866   5.780  1.00  0.00     0.183 C
HETATM    9  C18 UNL     1     -12.529  -3.639   4.759  1.00  0.00     0.216 C
HETATM   10  C19 UNL     1     -12.952  -2.195   4.651  1.00  0.00     0.068 C
HETATM   11  C20 UNL     1     -13.099  -1.568   6.004  1.00  0.00     0.187 C
HETATM   12  C21 UNL     1     -11.797  -0.994   6.494  1.00  0.00     0.068 C
HETATM   13  C22 UNL     1     -10.609  -1.451   5.743  1.00  0.00     0.216 C
HETATM   14  C23 UNL     1     -10.317  -2.892   5.673  1.00  0.00     0.179 C
BRANCH   9  15
HETATM   15  N4  UNL     1     -13.748  -4.340   5.208  1.00  0.00    -0.072 N
ATOM     16  H43 UNL     1     -13.662  -4.699   6.159  1.00  0.00     0.274 HD
ATOM     17  H42 UNL     1     -14.528  -3.702   5.366  1.00  0.00     0.274 HD
ATOM     18  H41 UNL     1     -13.974  -5.072   4.534  1.00  0.00     0.274 HD
ENDBRANCH   9  15
BRANCH  11  19
HETATM   19  N5  UNL     1     -14.119  -0.525   5.893  1.00  0.00    -0.075 N
ATOM     20  H53 UNL     1     -13.746   0.413   6.039  1.00  0.00     0.274 HD
ATOM     21  H52 UNL     1     -14.447  -0.390   4.937  1.00  0.00     0.274 HD
ATOM     22  H51 UNL     1     -14.868  -0.762   6.542  1.00  0.00     0.274 HD
ENDBRANCH  11  19
BRANCH  13  23
HETATM   23  N6  UNL     1      -9.454  -0.720   6.320  1.00  0.00    -0.072 N
ATOM     24  H63 UNL     1      -9.027  -0.059   5.672  1.00  0.00     0.274 HD
ATOM     25  H62 UNL     1      -9.719  -0.042   7.034  1.00  0.00     0.274 HD
ATOM     26  H61 UNL     1      -8.808  -1.434   6.656  1.00  0.00     0.274 HD
ENDBRANCH  13  23
BRANCH  14  27
HETATM   27  O6  UNL     1      -9.512  -3.121   4.531  1.00  0.00    -0.391 OA
ATOM     28  H6  UNL     1      -9.069  -2.333   4.239  1.00  0.00     0.210 HD
ENDBRANCH  14  27
ENDBRANCH   7   8
ENDBRANCH   5   7
BRANCH   4  29
HETATM   29  N3  UNL     1      -8.864  -7.399   6.179  1.00  0.00    -0.072 N
ATOM     30  H33 UNL     1      -8.336  -6.526   6.167  1.00  0.00     0.274 HD
ATOM     31  H32 UNL     1      -8.319  -7.906   6.877  1.00  0.00     0.274 HD
ATOM     32  H31 UNL     1      -8.831  -7.866   5.273  1.00  0.00     0.274 HD
ENDBRANCH   4  29
BRANCH   6  33
HETATM   33  O7  UNL     1     -12.711  -6.288   7.481  1.00  0.00    -0.390 OA
ATOM     34  H7  UNL     1     -13.085  -5.671   6.863  1.00  0.00     0.210 HD
ENDBRANCH   6  33
BRANCH   1  35
HETATM   35  O4  UNL     1     -12.388  -6.537  10.135  1.00  0.00    -0.343 OA
BRANCH  35  36
HETATM   36  C10 UNL     1     -12.491  -5.896  11.348  1.00  0.00     0.192 C
HETATM   37  C4  UNL     1     -13.956  -5.521  11.503  1.00  0.00     0.085 C
HETATM   38  C5  UNL     1     -14.195  -4.494  12.535  1.00  0.00     0.163 C
HETATM   39  C7  UNL     1     -13.289  -3.293  12.445  1.00  0.00     0.241 C
HETATM   40  C8  UNL     1     -11.962  -3.623  11.832  1.00  0.00     0.154 C
HETATM   41  C9  UNL     1     -11.733  -2.606  10.698  1.00  0.00     0.042 C
HETATM   42  O2  UNL     1     -11.738  -4.820  11.340  1.00  0.00    -0.345 OA
BRANCH  37  43
HETATM   43  C3  UNL     1     -14.611  -5.178  10.215  1.00  0.00     0.039 C
BRANCH  43  44
HETATM   44  C2  UNL     1     -15.699  -6.038   9.766  1.00  0.00    -0.036 C
HETATM   45  C1  UNL     1     -16.074  -7.100  10.466  1.00  0.00     0.007 C
ENDBRANCH  43  44
ENDBRANCH  37  43
BRANCH  38  46
HETATM   46  O1  UNL     1     -15.502  -4.075  12.564  1.00  0.00    -0.388 OA
HETATM   47  C6  UNL     1     -16.282  -4.680  13.526  1.00  0.00     0.202 C
ENDBRANCH  38  46
BRANCH  39  48
HETATM   48  N1  UNL     1     -13.944  -2.170  11.809  1.00  0.00    -0.070 N
ATOM     49  H13 UNL     1     -13.522  -1.958  10.905  1.00  0.00     0.274 HD
ATOM     50  H12 UNL     1     -14.882  -2.418  11.494  1.00  0.00     0.274 HD
ATOM     51  H11 UNL     1     -13.960  -1.348  12.412  1.00  0.00     0.274 HD
ENDBRANCH  39  48
BRANCH  36  52
HETATM   52  C11 UNL     1     -12.257  -6.884  12.483  1.00  0.00     0.233 C
BRANCH  52  53
HETATM   53  O3  UNL     1     -10.999  -6.619  13.031  1.00  0.00    -0.395 OA
ATOM     54  H3  UNL     1     -10.384  -7.249  12.672  1.00  0.00     0.209 HD
ENDBRANCH  52  53
ENDBRANCH  36  52
ENDBRANCH  35  36
ENDBRANCH   1  35
BRANCH   2  55
HETATM   55  N2  UNL     1      -8.974  -7.079   9.201  1.00  0.00    -0.072 N
ATOM     56  H23 UNL     1      -8.871  -6.111   9.507  1.00  0.00     0.274 HD
ATOM     57  H22 UNL     1      -8.545  -7.567   9.986  1.00  0.00     0.274 HD
ATOM     58  H21 UNL     1      -8.425  -7.234   8.355  1.00  0.00     0.274 HD
ENDBRANCH   2  55
TORSDOF 17
ENDMDL