MODEL 2
REMARK VINA RESULT: -8.768235842      5.956      7.514
REMARK  11 active torsions:
REMARK  status: ('A' for Active; 'I' for Inactive)
REMARK    1  A    between atoms: N1_3  and  C3_5
REMARK    2  A    between atoms: C4_6  and  C5_7
REMARK    3  A    between atoms: N2_8  and  N3_10
REMARK       I    between atoms: N3_10  and  C6_12
REMARK       I    between atoms: C6_12  and  N5_16
REMARK    4  A    between atoms: N5_16  and  N6_18
REMARK       I    between atoms: N6_18  and  C7_19
REMARK    5  A    between atoms: C7_19  and  C8_21
REMARK    6  A    between atoms: C9_24  and  O2_25
REMARK    7  A    between atoms: C16_37  and  S1_38
REMARK    8  A    between atoms: S1_38  and  C17_39
REMARK    9  A    between atoms: C17_39  and  C18_40
REMARK   10  A    between atoms: C18_40  and  C19_42
REMARK   11  A    between atoms: N12_47  and  N13_48
ROOT
HETATM    1  C1  UNL     1     -13.845  -0.517   4.031  1.00  0.00     0.123 C
HETATM    2  C2  UNL     1     -14.076   0.191   3.057  1.00  0.00    -0.074 C
HETATM    3  N1  UNL     1     -14.283   1.002   2.031  1.00  0.00    -0.309 N
ATOM      4  H1  UNL     1     -14.717   1.904   2.228  1.00  0.00     0.177 HD
ENDROOT
BRANCH   3   5
HETATM    5  C3  UNL     1     -13.956   0.722   0.698  1.00  0.00     0.164 A
HETATM    6  C4  UNL     1     -12.933   0.059   0.116  1.00  0.00     0.098 A
HETATM    7  N9  UNL     1     -12.952   0.321  -1.211  1.00  0.00    -0.331 N
HETATM    8  C16 UNL     1     -13.959   1.110  -1.491  1.00  0.00     0.168 A
ATOM      9  H9  UNL     1     -12.284  -0.041  -1.891  1.00  0.00     0.168 HD
HETATM   10  N12 UNL     1     -14.590   1.365  -0.343  1.00  0.00    -0.221 N
BRANCH   6  11
HETATM   11  C5  UNL     1     -12.050  -0.991   0.693  1.00  0.00     0.140 C
HETATM   12  N2  UNL     1     -10.935  -0.769   1.190  1.00  0.00    -0.307 N
ATOM     13  H2  UNL     1     -10.563   0.181   1.223  1.00  0.00     0.186 HD
BRANCH  12  14
HETATM   14  N3  UNL     1     -10.196  -1.838   1.702  1.00  0.00    -0.270 N
HETATM   15  C6  UNL     1     -10.762  -2.450   2.819  1.00  0.00     0.217 C
HETATM   16  N4  UNL     1     -11.517  -3.404   3.041  1.00  0.00    -0.368 N
HETATM   17  N5  UNL     1     -10.430  -1.670   4.060  1.00  0.00    -0.199 N
ATOM     18  H42 UNL     1     -11.743  -3.933   2.198  1.00  0.00     0.159 HD
ATOM     19  H41 UNL     1     -11.931  -3.852   3.859  1.00  0.00     0.159 HD
ATOM     20  H5  UNL     1     -10.211  -0.675   4.050  1.00  0.00     0.205 HD
ATOM     21  H3  UNL     1      -9.315  -2.145   1.292  1.00  0.00     0.190 HD
BRANCH  17  22
HETATM   22  N6  UNL     1     -10.446  -2.415   5.200  1.00  0.00    -0.277 NA
HETATM   23  C7  UNL     1     -10.460  -3.151   6.303  1.00  0.00     0.367 C
HETATM   24  O1  UNL     1     -10.284  -4.367   6.466  1.00  0.00    -0.247 OA
BRANCH  23  25
HETATM   25  C8  UNL     1     -10.763  -2.486   7.605  1.00  0.00     0.188 A
HETATM   26  N7  UNL     1      -9.858  -2.202   8.558  1.00  0.00    -0.325 N
HETATM   27  C9  UNL     1     -10.251  -1.532   9.681  1.00  0.00     0.168 A
ATOM     28  H7  UNL     1      -8.885  -2.485   8.443  1.00  0.00     0.168 HD
HETATM   29  C10 UNL     1     -11.576  -1.153   9.838  1.00  0.00     0.092 A
HETATM   30  C11 UNL     1     -11.986  -0.514  11.008  1.00  0.00     0.034 A
HETATM   31  N8  UNL     1     -12.499  -1.410   8.911  1.00  0.00    -0.283 N
HETATM   32  C12 UNL     1     -13.287  -0.161  11.181  1.00  0.00     0.004 A
HETATM   33  C13 UNL     1     -14.241  -0.427  10.202  1.00  0.00     0.018 A
HETATM   34  C14 UNL     1     -13.797  -1.056   9.093  1.00  0.00     0.101 A
HETATM   35  C15 UNL     1     -12.086  -2.064   7.812  1.00  0.00     0.286 A
HETATM   36  O3  UNL     1     -12.946  -2.312   6.946  1.00  0.00    -0.265 OA
BRANCH  27  37
HETATM   37  O2  UNL     1      -9.393  -1.190  10.702  1.00  0.00    -0.344 OA
ATOM     38  H2  UNL     1      -9.431  -1.574  11.571  1.00  0.00     0.219 HD
ENDBRANCH  27  37
ENDBRANCH  23  25
ENDBRANCH  17  22
ENDBRANCH  12  14
ENDBRANCH   6  11
BRANCH   8  39
HETATM   39  S1  UNL     1     -14.465   1.823  -3.089  1.00  0.00    -0.084 SA
BRANCH  39  40
HETATM   40  C17 UNL     1     -13.143   1.424  -4.269  1.00  0.00     0.169 C
BRANCH  40  41
HETATM   41  C18 UNL     1     -12.724   2.774  -4.872  1.00  0.00     0.199 C
HETATM   42  O4  UNL     1     -11.564   3.143  -4.766  1.00  0.00    -0.289 OA
BRANCH  41  43
HETATM   43  C19 UNL     1     -13.739   3.551  -5.571  1.00  0.00     0.157 C
HETATM   44  N10 UNL     1     -14.413   3.074  -6.544  1.00  0.00    -0.385 N
ATOM     45 2H10 UNL     1     -14.308   2.118  -6.884  1.00  0.00     0.157 HD
ATOM     46 1H10 UNL     1     -15.124   3.618  -7.033  1.00  0.00     0.157 HD
HETATM   47  N11 UNL     1     -13.887   4.893  -5.094  1.00  0.00    -0.079 NA
ENDBRANCH  41  43
ENDBRANCH  40  41
ENDBRANCH  39  40
ENDBRANCH   8  39
BRANCH  10  48
HETATM   48  N13 UNL     1     -15.718   2.168  -0.145  1.00  0.00    -0.335 N
ATOM     49 2H13 UNL     1     -16.585   2.171  -0.684  1.00  0.00     0.177 HD
ATOM     50 1H13 UNL     1     -15.763   2.869   0.594  1.00  0.00     0.177 HD
ENDBRANCH  10  48
ENDBRANCH   3   5
TORSDOF 11
ENDMDL