MODEL 4
REMARK VINA RESULT: -5.355044558      1.278      3.286
REMARK  5 active torsions:
REMARK  status: ('A' for Active; 'I' for Inactive)
REMARK    1  A    between atoms: C2_2  and  C3_3
REMARK    2  A    between atoms: C5_9  and  N3_10
REMARK    3  A    between atoms: C7_18  and  N6_19
REMARK    4  A    between atoms: N6_19  and  C9_21
REMARK    5  A    between atoms: C9_21  and  C10_22
ROOT
HETATM    1  C3  UNL     1       6.282  19.078  73.426  1.00  0.00     0.055 A
HETATM    2  N1  UNL     1       6.322  18.444  74.637  1.00  0.00    -0.339 N
ATOM      3  H1  UNL     1       6.334  17.424  74.648  1.00  0.00     0.167 HD
HETATM    4  C4  UNL     1       6.347  19.084  75.793  1.00  0.00     0.166 A
HETATM    5  N2  UNL     1       6.383  18.709  77.104  1.00  0.00    -0.173 N
ATOM      6  H2  UNL     1       6.402  17.749  77.446  1.00  0.00     0.186 HD
HETATM    7  C5  UNL     1       6.390  19.815  77.874  1.00  0.00     0.679 A
HETATM    8  N4  UNL     1       6.359  20.862  77.044  1.00  0.00    -0.173 N
ATOM      9  H4  UNL     1       6.357  21.838  77.341  1.00  0.00     0.186 HD
HETATM   10  C6  UNL     1       6.331  20.453  75.766  1.00  0.00     0.167 A
HETATM   11  N5  UNL     1       6.292  21.094  74.594  1.00  0.00    -0.324 N
ATOM     12  H5  UNL     1       6.282  22.113  74.593  1.00  0.00     0.169 HD
HETATM   13  C7  UNL     1       6.266  20.426  73.380  1.00  0.00     0.128 A
ENDROOT
BRANCH  13  14
HETATM   14  N6  UNL     1       6.177  21.188  72.220  1.00  0.00    -0.365 N
HETATM   15  C8  UNL     1       7.218  20.909  71.170  1.00  0.00     0.151 C
BRANCH  14  16
HETATM   16  C9  UNL     1       5.322  22.259  71.822  1.00  0.00     0.167 C
BRANCH  16  17
HETATM   17  C10 UNL     1       5.244  23.218  72.988  1.00  0.00     0.072 C
HETATM   18  N7  UNL     1       4.955  24.440  72.845  1.00  0.00    -0.410 N
ATOM     19  H72 UNL     1       4.769  24.776  71.900  1.00  0.00     0.155 HD
ATOM     20  H71 UNL     1       4.903  25.087  73.632  1.00  0.00     0.155 HD
ENDBRANCH  16  17
ENDBRANCH  14  16
ENDBRANCH  13  14
BRANCH   1  21
HETATM   21  C2  UNL     1       6.269  18.208  72.253  1.00  0.00     0.056 C
HETATM   22  C1  UNL     1       5.817  16.782  72.673  1.00  0.00     0.011 C
ENDBRANCH   1  21
BRANCH   7  23
HETATM   23  N3  UNL     1       6.424  19.840  79.171  1.00  0.00    -0.234 N
ATOM     24  H32 UNL     1       6.115  20.595  79.783  1.00  0.00     0.174 HD
ATOM     25  H31 UNL     1       6.772  19.096  79.775  1.00  0.00     0.174 HD
ENDBRANCH   7  23
TORSDOF 5
ENDMDL