MODEL 4
REMARK VINA RESULT: -5.399599253      1.425      2.139
REMARK  5 active torsions:
REMARK  status: ('A' for Active; 'I' for Inactive)
REMARK    1  A    between atoms: N1_2  and  C3_4
REMARK    2  A    between atoms: C3_4  and  C4_5
REMARK    3  A    between atoms: C4_5  and  C5_6
REMARK    4  A    between atoms: C5_6  and  N2_7
REMARK    5  A    between atoms: C8_12  and  N4_13
ROOT
HETATM    1  N2  UNL     1       5.898  19.199  73.699  1.00  0.00    -0.184 N
HETATM    2  C6  UNL     1       5.728  20.413  74.203  1.00  0.00     0.069 A
HETATM    3  C7  UNL     1       6.094  20.398  75.524  1.00  0.00     0.053 A
HETATM    4  N3  UNL     1       6.491  19.170  75.828  1.00  0.00    -0.194 N
ATOM      5  H3  UNL     1       6.823  18.848  76.737  1.00  0.00     0.184 HD
HETATM    6  C8  UNL     1       6.373  18.430  74.711  1.00  0.00     0.678 A
HETATM    7  C9  UNL     1       5.963  21.701  76.257  1.00  0.00     0.079 C
HETATM    8  C10 UNL     1       4.663  22.345  75.871  1.00  0.00     0.120 C
HETATM    9  N5  UNL     1       4.415  22.447  74.484  1.00  0.00    -0.416 N
ATOM     10  H5  UNL     1       3.678  23.048  74.116  1.00  0.00     0.153 HD
HETATM   11  C11 UNL     1       5.246  21.668  73.618  1.00  0.00     0.174 C
ENDROOT
BRANCH   1  12
HETATM   12  C5  UNL     1       5.661  18.699  72.352  1.00  0.00     0.149 C
BRANCH  12  13
HETATM   13  C4  UNL     1       6.733  19.164  71.393  1.00  0.00     0.051 C
BRANCH  13  14
HETATM   14  C3  UNL     1       7.811  19.882  72.153  1.00  0.00     0.273 C
BRANCH  14  15
HETATM   15  N1  UNL     1       8.822  20.448  71.298  1.00  0.00     0.080 N
HETATM   16  C1  UNL     1      10.151  19.983  71.620  1.00  0.00     0.309 C
HETATM   17  C2  UNL     1       8.517  20.303  69.894  1.00  0.00     0.309 C
ENDBRANCH  14  15
ENDBRANCH  13  14
ENDBRANCH  12  13
ENDBRANCH   1  12
BRANCH   6  18
HETATM   18  N4  UNL     1       6.667  17.165  74.598  1.00  0.00    -0.234 N
ATOM     19  H42 UNL     1       6.663  16.625  73.733  1.00  0.00     0.174 HD
ATOM     20  H41 UNL     1       6.938  16.564  75.378  1.00  0.00     0.174 HD
ENDBRANCH   6  18
TORSDOF 5
ENDMDL