MODEL 3
REMARK VINA RESULT: -5.488926777      1.031      1.072
REMARK  5 active torsions:
REMARK  status: ('A' for Active; 'I' for Inactive)
REMARK    1  A    between atoms: C2_2  and  C3_3
REMARK    2  A    between atoms: C3_3  and  C4_4
REMARK    3  A    between atoms: C4_4  and  N1_5
REMARK    4  A    between atoms: N2_8  and  C7_9
REMARK    5  A    between atoms: C8_12  and  N4_13
ROOT
HETATM    1  C7  UNL     1       6.368  20.109  76.621  1.00  0.00     0.710 A
HETATM    2  N3  UNL     1       6.051  19.377  77.696  1.00  0.00    -0.020 N
ATOM      3  H3  UNL     1       5.560  18.483  77.667  1.00  0.00     0.203 HD
HETATM    4  C8  UNL     1       6.467  19.982  78.808  1.00  0.00     0.705 A
HETATM    5  N5  UNL     1       7.069  21.142  78.416  1.00  0.00    -0.118 N
ATOM      6  H5  UNL     1       7.494  21.835  79.032  1.00  0.00     0.206 HD
HETATM    7  N6  UNL     1       7.005  21.209  77.106  1.00  0.00    -0.117 N
ATOM      8  H6  UNL     1       7.378  21.970  76.537  1.00  0.00     0.206 HD
ENDROOT
BRANCH   1   9
HETATM    9  N2  UNL     1       6.132  19.846  75.261  1.00  0.00    -0.213 N
HETATM   10  C6  UNL     1       6.342  18.548  74.640  1.00  0.00     0.171 C
HETATM   11  C5  UNL     1       6.871  18.884  73.239  1.00  0.00     0.292 C
HETATM   12  N1  UNL     1       5.742  19.374  72.472  1.00  0.00     0.091 N
HETATM   13  C10 UNL     1       4.977  20.390  73.174  1.00  0.00     0.292 C
HETATM   14  C9  UNL     1       5.658  20.923  74.412  1.00  0.00     0.171 C
BRANCH  12  15
HETATM   15  C4  UNL     1       6.303  19.904  71.235  1.00  0.00     0.272 C
BRANCH  15  16
HETATM   16  C3  UNL     1       7.536  20.724  71.417  1.00  0.00     0.030 C
BRANCH  16  17
HETATM   17  C2  UNL     1       8.747  20.109  70.773  1.00  0.00    -0.003 C
HETATM   18  C1  UNL     1       9.958  20.032  71.636  1.00  0.00     0.005 C
ENDBRANCH  16  17
ENDBRANCH  15  16
ENDBRANCH  12  15
ENDBRANCH   1   9
BRANCH   4  19
HETATM   19  N4  UNL     1       6.375  19.626  80.053  1.00  0.00    -0.233 N
ATOM     20  H42 UNL     1       7.173  19.282  80.587  1.00  0.00     0.174 HD
ATOM     21  H41 UNL     1       5.576  19.614  80.686  1.00  0.00     0.174 HD
ENDBRANCH   4  19
TORSDOF 5
ENDMDL