MODEL 1
REMARK VINA RESULT: -5.403678738      0.000      0.000
REMARK  5 active torsions:
REMARK  status: ('A' for Active; 'I' for Inactive)
REMARK    1  A    between atoms: C3_5  and  N2_6
REMARK    2  A    between atoms: N2_6  and  C4_8
REMARK    3  A    between atoms: C4_8  and  C5_9
REMARK    4  A    between atoms: C5_9  and  N3_10
REMARK    5  A    between atoms: C8_15  and  N5_16
ROOT
HETATM    1  C1  UNL     1       7.380  18.866  77.211  1.00  0.00     0.070 C
HETATM    2  C2  UNL     1       6.658  19.644  76.171  1.00  0.00     0.047 A
HETATM    3  N1  UNL     1       6.262  19.010  75.028  1.00  0.00    -0.194 N
ATOM      4  H1  UNL     1       6.464  18.018  74.902  1.00  0.00     0.184 HD
HETATM    5  C3  UNL     1       5.611  19.685  74.074  1.00  0.00     0.679 A
HETATM    6  N4  UNL     1       5.344  20.985  74.232  1.00  0.00    -0.176 N
ATOM      7  H4  UNL     1       4.847  21.478  73.491  1.00  0.00     0.186 HD
HETATM    8  C8  UNL     1       5.708  21.671  75.339  1.00  0.00     0.137 A
HETATM    9  C9  UNL     1       6.386  20.983  76.341  1.00  0.00     0.111 A
HETATM   10  C10 UNL     1       6.792  21.675  77.530  1.00  0.00     0.105 C
HETATM   11  N6  UNL     1       7.138  22.237  78.482  1.00  0.00    -0.191 NA
ENDROOT
BRANCH   8  12
HETATM   12  N5  UNL     1       5.433  22.902  75.442  1.00  0.00    -0.384 N
ATOM     13  H52 UNL     1       5.200  23.472  74.629  1.00  0.00     0.157 HD
ATOM     14  H51 UNL     1       5.439  23.352  76.358  1.00  0.00     0.157 HD
ENDBRANCH   8  12
BRANCH   5  15
HETATM   15  N2  UNL     1       5.250  19.072  73.018  1.00  0.00    -0.224 N
ATOM     16  H2  UNL     1       4.339  18.615  72.974  1.00  0.00     0.177 HD
BRANCH  15  17
HETATM   17  C4  UNL     1       6.141  19.029  71.881  1.00  0.00     0.168 C
BRANCH  17  18
HETATM   18  C5  UNL     1       6.474  20.410  71.362  1.00  0.00     0.291 C
BRANCH  18  19
HETATM   19  N3  UNL     1       7.845  20.436  70.887  1.00  0.00     0.081 N
HETATM   20  C6  UNL     1       8.756  20.156  71.996  1.00  0.00     0.309 C
HETATM   21  C7  UNL     1       7.999  19.352  69.935  1.00  0.00     0.309 C
ENDBRANCH  18  19
ENDBRANCH  17  18
ENDBRANCH  15  17
ENDBRANCH   5  15
TORSDOF 5
ENDMDL