MODEL 1
REMARK VINA RESULT: -5.952878067      0.000      0.000
REMARK  4 active torsions:
REMARK  status: ('A' for Active; 'I' for Inactive)
REMARK    1  A    between atoms: C5_8  and  C6_9
REMARK    2  A    between atoms: C6_9  and  C7_10
REMARK    3  A    between atoms: C7_10  and  N3_11
REMARK    4  A    between atoms: N3_11  and  C8_13
ROOT
HETATM    1  C7  UNL     1       4.786  21.560  73.750  1.00  0.00     0.068 C
ENDROOT
BRANCH   1   2
HETATM    2  C6  UNL     1       5.345  21.978  75.075  1.00  0.00     0.120 C
BRANCH   2   3
HETATM    3  C5  UNL     1       5.962  20.822  75.802  1.00  0.00     0.079 C
HETATM    4  N1  UNL     1       6.547  21.065  77.058  1.00  0.00    -0.375 N
HETATM    5  C1  UNL     1       7.161  22.329  77.366  1.00  0.00     0.150 C
HETATM    6  C2  UNL     1       6.519  19.981  78.044  1.00  0.00     0.125 C
HETATM    7  C3  UNL     1       7.113  18.788  77.345  1.00  0.00     0.039 C
HETATM    8  C4  UNL     1       6.553  18.531  75.995  1.00  0.00     0.122 C
HETATM    9  N2  UNL     1       5.971  19.637  75.318  1.00  0.00    -0.380 N
ATOM     10  H2  UNL     1       5.540  19.480  74.407  1.00  0.00     0.160 HD
ENDBRANCH   2   3
ENDBRANCH   1   2
BRANCH   1  11
HETATM   11  N3  UNL     1       5.571  21.820  72.633  1.00  0.00    -0.376 N
ATOM     12  H3  UNL     1       5.434  22.725  72.183  1.00  0.00     0.164 HD
BRANCH  11  13
HETATM   13  C8  UNL     1       6.508  20.996  72.070  1.00  0.00    -0.011 C
HETATM   14  C9  UNL     1       7.905  21.229  72.622  1.00  0.00     0.080 C
HETATM   15  C10 UNL     1       8.804  20.062  72.209  1.00  0.00     0.238 C
HETATM   16  N4  UNL     1       8.838  20.051  70.762  1.00  0.00    -0.074 N
HETATM   17  C11 UNL     1       7.517  19.597  70.321  1.00  0.00     0.238 C
ATOM     18  H42 UNL     1       9.114  20.945  70.357  1.00  0.00     0.277 HD
ATOM     19  H41 UNL     1       9.604  19.497  70.380  1.00  0.00     0.277 HD
HETATM   20  C12 UNL     1       6.526  20.734  70.595  1.00  0.00     0.080 C
ENDBRANCH  11  13
ENDBRANCH   1  11
TORSDOF 4
ENDMDL