MODEL 5
REMARK VINA RESULT: -5.866981699      2.196      5.912
REMARK  6 active torsions:
REMARK  status: ('A' for Active; 'I' for Inactive)
REMARK    1  A    between atoms: O1_1  and  C1_3
REMARK    2  A    between atoms: C1_3  and  C2_4
REMARK    3  A    between atoms: C2_4  and  C3_5
REMARK    4  A    between atoms: C3_5  and  N1_6
REMARK    5  A    between atoms: N1_6  and  C4_8
REMARK    6  A    between atoms: C5_11  and  N3_12
ROOT
HETATM    1  C4  UNL     1       6.168  19.611  75.785  1.00  0.00     0.707 A
HETATM    2  N2  UNL     1       6.999  19.253  74.790  1.00  0.00    -0.020 N
ATOM      3  H2  UNL     1       7.678  18.492  74.827  1.00  0.00     0.203 HD
HETATM    4  C5  UNL     1       6.788  20.061  73.742  1.00  0.00     0.709 A
HETATM    5  N4  UNL     1       5.822  20.933  74.072  1.00  0.00    -0.117 N
ATOM      6  H4  UNL     1       5.445  21.673  73.480  1.00  0.00     0.206 HD
HETATM    7  N5  UNL     1       5.447  20.649  75.327  1.00  0.00    -0.117 N
ATOM      8  H5  UNL     1       4.728  21.144  75.854  1.00  0.00     0.206 HD
ENDROOT
BRANCH   1   9
HETATM    9  N1  UNL     1       6.112  19.031  76.949  1.00  0.00    -0.224 N
ATOM     10  H1  UNL     1       5.409  18.306  77.100  1.00  0.00     0.177 HD
BRANCH   9  11
HETATM   11  C3  UNL     1       6.993  19.362  78.027  1.00  0.00     0.140 C
BRANCH  11  12
HETATM   12  C2  UNL     1       6.647  20.750  78.581  1.00  0.00     0.046 C
BRANCH  12  13
HETATM   13  C1  UNL     1       7.613  21.786  78.051  1.00  0.00     0.165 C
BRANCH  13  14
HETATM   14  O1  UNL     1       6.890  22.614  77.196  1.00  0.00    -0.401 OA
ATOM     15  H1  UNL     1       6.867  23.475  77.598  1.00  0.00     0.209 HD
ENDBRANCH  13  14
ENDBRANCH  12  13
ENDBRANCH  11  12
ENDBRANCH   9  11
ENDBRANCH   1   9
BRANCH   4  16
HETATM   16  N3  UNL     1       7.434  20.059  72.469  1.00  0.00    -0.216 N
HETATM   17  C6  UNL     1       8.850  19.976  72.321  1.00  0.00     0.141 C
HETATM   18  C7  UNL     1       9.391  20.625  71.090  1.00  0.00     0.020 C
HETATM   19  C8  UNL     1       8.602  20.332  69.848  1.00  0.00     0.003 C
HETATM   20  C9  UNL     1       7.431  19.433  70.170  1.00  0.00     0.020 C
HETATM   21  C10 UNL     1       6.623  20.147  71.251  1.00  0.00     0.141 C
ENDBRANCH   4  16
TORSDOF 6
ENDMDL