MODEL 1
REMARK VINA RESULT: -6.488120085      0.000      0.000
REMARK  5 active torsions:
REMARK  status: ('A' for Active; 'I' for Inactive)
REMARK    1  A    between atoms: C2_2  and  C3_3
REMARK    2  A    between atoms: C3_3  and  C4_4
REMARK    3  A    between atoms: C4_4  and  N1_5
REMARK    4  A    between atoms: C7_8  and  N2_9
REMARK    5  A    between atoms: C9_14  and  N4_15
ROOT
HETATM    1  N1  UNL     1       6.334  19.551  76.037  1.00  0.00    -0.301 N
HETATM    2  C5  UNL     1       5.702  20.608  75.491  1.00  0.00     0.129 A
HETATM    3  C6  UNL     1       5.925  20.650  74.146  1.00  0.00     0.071 A
HETATM    4  C7  UNL     1       5.546  21.479  73.102  1.00  0.00     0.132 A
HETATM    5  N3  UNL     1       5.934  21.262  71.835  1.00  0.00    -0.176 N
ATOM      6  H3  UNL     1       5.644  21.884  71.081  1.00  0.00     0.186 HD
HETATM    7  C9  UNL     1       6.716  20.200  71.594  1.00  0.00     0.680 A
HETATM    8  N5  UNL     1       7.093  19.390  72.586  1.00  0.00    -0.174 N
ATOM      9  H5  UNL     1       7.690  18.595  72.360  1.00  0.00     0.186 HD
HETATM   10  C11 UNL     1       6.729  19.567  73.867  1.00  0.00     0.151 A
HETATM   11  N6  UNL     1       6.941  18.949  75.032  1.00  0.00    -0.282 N
ATOM     12  H6  UNL     1       7.508  18.107  75.134  1.00  0.00     0.189 HD
ENDROOT
BRANCH   1  13
HETATM   13  C4  UNL     1       6.292  19.235  77.433  1.00  0.00     0.148 C
BRANCH  13  14
HETATM   14  C3  UNL     1       6.712  20.365  78.329  1.00  0.00     0.021 C
BRANCH  14  15
HETATM   15  C2  UNL     1       7.122  21.596  77.589  1.00  0.00    -0.003 C
HETATM   16  C1  UNL     1       8.290  22.219  78.333  1.00  0.00     0.005 C
ENDBRANCH  14  15
ENDBRANCH  13  14
ENDBRANCH   1  13
BRANCH   4  17
HETATM   17  N2  UNL     1       4.796  22.477  73.406  1.00  0.00    -0.379 N
HETATM   18  C8  UNL     1       4.844  23.757  72.728  1.00  0.00     0.147 C
ATOM     19  H2  UNL     1       4.128  22.361  74.168  1.00  0.00     0.160 HD
ENDBRANCH   4  17
BRANCH   7  20
HETATM   20  N4  UNL     1       7.089  19.999  70.354  1.00  0.00    -0.230 N
HETATM   21  C10 UNL     1       8.488  20.182  70.006  1.00  0.00     0.165 C
ATOM     22  H4  UNL     1       6.410  19.720  69.646  1.00  0.00     0.177 HD
ENDBRANCH   7  20
TORSDOF 5
ENDMDL