MODEL 1
REMARK VINA RESULT: -7.519027228      0.000      0.000
REMARK  6 active torsions:
REMARK  status: ('A' for Active; 'I' for Inactive)
REMARK    1  A    between atoms: C3_3  and  C4_4
REMARK    2  A    between atoms: C4_4  and  C5_5
REMARK    3  A    between atoms: C5_5  and  N1_6
REMARK    4  A    between atoms: N1_6  and  C6_8
REMARK    5  A    between atoms: C7_11  and  N3_12
REMARK    6  A    between atoms: C11_17  and  N5_18
ROOT
HETATM    1  C1  UNL     1      10.022  20.040  71.752  1.00  0.00     0.012 C
HETATM    2  C2  UNL     1       9.005  20.031  71.088  1.00  0.00    -0.117 C
HETATM    3  C3  UNL     1       7.790  20.024  70.273  1.00  0.00     0.094 C
ENDROOT
BRANCH   3   4
HETATM    4  C4  UNL     1       6.604  20.083  71.242  1.00  0.00     0.032 C
BRANCH   4   5
HETATM    5  C5  UNL     1       6.530  18.691  71.880  1.00  0.00     0.139 C
BRANCH   5   6
HETATM    6  N1  UNL     1       5.592  18.744  72.982  1.00  0.00    -0.226 N
ATOM      7  H1  UNL     1       4.930  17.979  73.115  1.00  0.00     0.177 HD
BRANCH   6   8
HETATM    8  C6  UNL     1       5.582  19.759  73.811  1.00  0.00     0.681 A
HETATM    9  N2  UNL     1       6.100  19.651  75.045  1.00  0.00    -0.176 N
HETATM   10  C7  UNL     1       6.113  20.656  75.929  1.00  0.00     0.135 A
ATOM     11  H2  UNL     1       6.503  18.756  75.323  1.00  0.00     0.186 HD
HETATM   12  C10 UNL     1       5.572  21.870  75.568  1.00  0.00     0.098 A
HETATM   13  C11 UNL     1       5.041  22.000  74.317  1.00  0.00     0.118 A
HETATM   14  N6  UNL     1       5.054  20.941  73.455  1.00  0.00    -0.177 N
ATOM     15  H6  UNL     1       4.655  21.050  72.522  1.00  0.00     0.185 HD
BRANCH  10  16
HETATM   16  N3  UNL     1       6.678  20.482  77.231  1.00  0.00    -0.274 N
HETATM   17  C8  UNL     1       6.671  19.169  77.844  1.00  0.00     0.170 C
HETATM   18  C9  UNL     1       7.224  21.589  77.881  1.00  0.00     0.185 C
HETATM   19  N4  UNL     1       7.691  22.505  78.434  1.00  0.00    -0.172 NA
ENDBRANCH  10  16
BRANCH  13  20
HETATM   20  N5  UNL     1       4.530  23.124  73.956  1.00  0.00    -0.385 N
ATOM     21  H52 UNL     1       5.054  23.990  74.077  1.00  0.00     0.157 HD
ATOM     22  H51 UNL     1       3.596  23.145  73.547  1.00  0.00     0.157 HD
ENDBRANCH  13  20
ENDBRANCH   6   8
ENDBRANCH   5   6
ENDBRANCH   4   5
ENDBRANCH   3   4
TORSDOF 6
ENDMDL