MODEL 1
REMARK VINA RESULT: -6.185237564      0.000      0.000
REMARK  6 active torsions:
REMARK  status: ('A' for Active; 'I' for Inactive)
REMARK    1  A    between atoms: C2_2  and  C3_3
REMARK    2  A    between atoms: C3_3  and  C4_4
REMARK    3  A    between atoms: C4_4  and  N1_5
REMARK    4  A    between atoms: N1_5  and  C5_7
REMARK    5  A    between atoms: C6_10  and  N3_11
REMARK    6  A    between atoms: C10_17  and  N5_18
ROOT
HETATM    1  C5  UNL     1       6.222  20.328  72.778  1.00  0.00     0.707 A
HETATM    2  N2  UNL     1       6.503  19.988  74.049  1.00  0.00    -0.021 N
ATOM      3  H2  UNL     1       6.960  19.095  74.234  1.00  0.00     0.203 HD
HETATM    4  C6  UNL     1       6.195  20.801  75.090  1.00  0.00     0.709 A
HETATM    5  N4  UNL     1       5.594  21.966  74.785  1.00  0.00    -0.022 N
ATOM      6  H4  UNL     1       5.351  22.596  75.549  1.00  0.00     0.203 HD
HETATM    7  C10 UNL     1       5.295  22.345  73.530  1.00  0.00     0.705 A
HETATM    8  N6  UNL     1       5.616  21.513  72.531  1.00  0.00    -0.022 N
ATOM      9  H6  UNL     1       5.400  21.776  71.570  1.00  0.00     0.203 HD
ENDROOT
BRANCH   1  10
HETATM   10  N1  UNL     1       6.494  19.592  71.763  1.00  0.00    -0.225 N
ATOM     11  H1  UNL     1       6.387  18.580  71.841  1.00  0.00     0.177 HD
BRANCH  10  12
HETATM   12  C4  UNL     1       6.949  20.158  70.515  1.00  0.00     0.138 C
BRANCH  12  13
HETATM   13  C3  UNL     1       8.409  19.905  70.261  1.00  0.00     0.020 C
BRANCH  13  14
HETATM   14  C2  UNL     1       9.164  20.465  71.472  1.00  0.00    -0.003 C
HETATM   15  C1  UNL     1      10.439  19.690  71.720  1.00  0.00     0.005 C
ENDBRANCH  13  14
ENDBRANCH  12  13
ENDBRANCH  10  12
ENDBRANCH   1  10
BRANCH   4  16
HETATM   16  N3  UNL     1       6.500  20.426  76.427  1.00  0.00    -0.217 N
HETATM   17  C7  UNL     1       6.936  21.084  77.633  1.00  0.00     0.143 C
HETATM   18  C8  UNL     1       6.477  19.902  78.459  1.00  0.00     0.041 C
HETATM   19  C9  UNL     1       6.492  19.175  77.152  1.00  0.00     0.143 C
ENDBRANCH   4  16
BRANCH   7  20
HETATM   20  N5  UNL     1       4.716  23.471  73.265  1.00  0.00    -0.234 N
ATOM     21  H52 UNL     1       5.192  24.347  73.481  1.00  0.00     0.174 HD
ATOM     22  H51 UNL     1       3.790  23.524  72.842  1.00  0.00     0.174 HD
ENDBRANCH   7  20
TORSDOF 6
ENDMDL