MODEL 4
REMARK VINA RESULT: -6.527334822      3.067      7.478
REMARK  7 active torsions:
REMARK  status: ('A' for Active; 'I' for Inactive)
REMARK    1  A    between atoms: C1_4  and  C2_5
REMARK    2  A    between atoms: C1_4  and  N3_15
REMARK    3  A    between atoms: C2_5  and  C3_6
REMARK    4  A    between atoms: C3_6  and  C4_7
REMARK    5  A    between atoms: C4_7  and  C5_8
REMARK    6  A    between atoms: C5_8  and  N2_9
REMARK    7  A    between atoms: N3_15  and  C10_17
ROOT
HETATM    1  N1  UNL     1      11.591   4.508  12.028  1.00  0.00    -0.389 N
ATOM      2  H11 UNL     1      11.606   4.700  13.030  1.00  0.00     0.157 HD
ATOM      3  H12 UNL     1      11.857   3.586  11.683  1.00  0.00     0.157 HD
HETATM    4  C1  UNL     1      11.242   5.416  11.210  1.00  0.00     0.071 C
ENDROOT
BRANCH   4   5
HETATM    5  C2  UNL     1      11.219   5.139   9.763  1.00  0.00     0.075 C
BRANCH   5   6
HETATM    6  C3  UNL     1      11.643   6.403   9.064  1.00  0.00     0.009 C
BRANCH   6   7
HETATM    7  C4  UNL     1      12.390   6.109   7.814  1.00  0.00     0.031 C
BRANCH   7   8
HETATM    8  C5  UNL     1      12.946   4.735   7.819  1.00  0.00     0.272 C
BRANCH   8   9
HETATM    9  N2  UNL     1      12.974   4.205   6.471  1.00  0.00     0.092 N
HETATM   10  C6  UNL     1      11.693   4.054   5.926  1.00  0.00     0.298 C
HETATM   11  C7  UNL     1      11.276   2.670   5.551  1.00  0.00     0.198 C
HETATM   12  O1  UNL     1      11.957   1.650   6.107  1.00  0.00    -0.388 OA
HETATM   13  C8  UNL     1      13.131   1.859   6.734  1.00  0.00     0.198 C
HETATM   14  C9  UNL     1      13.879   3.106   6.404  1.00  0.00     0.298 C
ENDBRANCH   8   9
ENDBRANCH   7   8
ENDBRANCH   6   7
ENDBRANCH   5   6
ENDBRANCH   4   5
BRANCH   4  15
HETATM   15  N3  UNL     1      10.877   6.681  11.683  1.00  0.00    -0.364 N
ATOM     16  H3  UNL     1      11.055   7.497  11.098  1.00  0.00     0.162 HD
BRANCH  15  17
HETATM   17  C10 UNL     1      10.251   6.872  12.986  1.00  0.00     0.186 A
HETATM   18  C11 UNL     1       8.826   6.558  13.033  1.00  0.00     0.094 A
HETATM   19  N4  UNL     1       8.593   7.932  13.168  1.00  0.00    -0.357 N
HETATM   20  C12 UNL     1       9.800   8.246  13.132  1.00  0.00     0.120 A
ATOM     21  H4  UNL     1       7.739   8.482  13.261  1.00  0.00     0.166 HD
HETATM   22  N5  UNL     1      10.600   9.461  13.197  1.00  0.00    -0.085 NA
ENDBRANCH  15  17
ENDBRANCH   4  15
TORSDOF 7
ENDMDL