MODEL 1
REMARK VINA RESULT: -5.824962934      0.000      0.000
REMARK  8 active torsions:
REMARK  status: ('A' for Active; 'I' for Inactive)
REMARK    1  A    between atoms: N1_1  and  C1_5
REMARK    2  A    between atoms: C1_5  and  C2_6
REMARK    3  A    between atoms: C2_6  and  C3_7
REMARK    4  A    between atoms: C3_7  and  C4_8
REMARK    5  A    between atoms: C4_8  and  N2_9
REMARK    6  A    between atoms: N5_19  and  C10_21
REMARK    7  A    between atoms: C10_21  and  C11_22
REMARK    8  A    between atoms: C11_22  and  N6_23
ROOT
HETATM    1  N2  UNL     1      11.321   6.496  11.020  1.00  0.00    -0.338 N
HETATM    2  C5  UNL     1      11.734   7.676  10.462  1.00  0.00     0.184 A
HETATM    3  N3  UNL     1      11.978   7.514   9.160  1.00  0.00    -0.350 N
ATOM      4  H3  UNL     1      12.297   8.231   8.509  1.00  0.00     0.166 HD
HETATM    5  C6  UNL     1      11.724   6.228   8.869  1.00  0.00     0.065 A
HETATM    6  C7  UNL     1      11.804   5.511   7.685  1.00  0.00     0.049 A
HETATM    7  C8  UNL     1      11.468   4.183   7.719  1.00  0.00     0.092 A
HETATM    8  N4  UNL     1      11.070   3.578   8.854  1.00  0.00    -0.351 N
ATOM      9  H4  UNL     1      10.831   2.587   8.829  1.00  0.00     0.166 HD
HETATM   10  C9  UNL     1      10.980   4.238  10.017  1.00  0.00     0.130 A
HETATM   11  N5  UNL     1      10.602   3.633  11.057  1.00  0.00    -0.373 N
ATOM     12  H5  UNL     1      10.561   4.205  11.901  1.00  0.00     0.161 HD
HETATM   13  C12 UNL     1      11.310   5.584  10.037  1.00  0.00     0.106 A
ENDROOT
BRANCH   1  14
HETATM   14  C4  UNL     1      10.973   6.317  12.423  1.00  0.00     0.130 C
BRANCH  14  15
HETATM   15  C3  UNL     1      11.203   7.637  13.125  1.00  0.00     0.022 C
BRANCH  15  16
HETATM   16  C2  UNL     1       9.891   8.299  13.499  1.00  0.00     0.029 C
BRANCH  16  17
HETATM   17  C1  UNL     1       8.805   7.254  13.304  1.00  0.00     0.229 C
BRANCH  17  18
HETATM   18  N1  UNL     1       7.732   7.531  14.210  1.00  0.00    -0.079 N
ATOM     19  H13 UNL     1       8.036   7.542  15.183  1.00  0.00     0.274 HD
ATOM     20  H12 UNL     1       7.412   8.499  14.151  1.00  0.00     0.274 HD
ATOM     21  H11 UNL     1       6.981   6.861  14.043  1.00  0.00     0.274 HD
ENDBRANCH  17  18
ENDBRANCH  16  17
ENDBRANCH  15  16
ENDBRANCH  14  15
ENDBRANCH   1  14
BRANCH  11  22
HETATM   22  C10 UNL     1      10.227   2.277  11.227  1.00  0.00     0.148 C
BRANCH  22  23
HETATM   23  C11 UNL     1       8.909   2.103  11.960  1.00  0.00     0.249 C
BRANCH  23  24
HETATM   24  N6  UNL     1       7.964   1.378  11.145  1.00  0.00    -0.078 N
ATOM     25  H63 UNL     1       7.972   1.702  10.178  1.00  0.00     0.274 HD
ATOM     26  H62 UNL     1       8.261   0.415  10.986  1.00  0.00     0.274 HD
ATOM     27  H61 UNL     1       7.030   1.424  11.551  1.00  0.00     0.274 HD
ENDBRANCH  23  24
ENDBRANCH  22  23
ENDBRANCH  11  22
TORSDOF 8
ENDMDL