MODEL 2
REMARK VINA RESULT: -7.697586439      1.526      6.967
REMARK  5 active torsions:
REMARK  status: ('A' for Active; 'I' for Inactive)
REMARK    1  A    between atoms: C2_2  and  C3_3
REMARK    2  A    between atoms: C3_3  and  C4_4
REMARK    3  A    between atoms: C4_4  and  N1_5
REMARK    4  A    between atoms: N5_18  and  C10_19
REMARK    5  A    between atoms: C10_19  and  C11_20
ROOT
HETATM    1  N1  UNL     1      11.367   3.525   8.340  1.00  0.00    -0.374 N
ATOM      2  H1  UNL     1      11.172   2.731   8.950  1.00  0.00     0.161 HD
HETATM    3  C5  UNL     1      11.435   4.708   8.841  1.00  0.00     0.133 A
HETATM    4  N2  UNL     1      11.685   5.823   8.134  1.00  0.00    -0.337 N
ATOM      5  H2  UNL     1      11.836   5.758   7.127  1.00  0.00     0.168 HD
HETATM    6  C6  UNL     1      11.739   7.023   8.739  1.00  0.00     0.183 A
HETATM    7  N3  UNL     1      11.552   7.193  10.055  1.00  0.00    -0.336 N
ATOM      8  H3  UNL     1      11.603   8.125  10.469  1.00  0.00     0.168 HD
HETATM    9  C7  UNL     1      11.298   6.126  10.818  1.00  0.00     0.140 A
HETATM   10  C8  UNL     1      11.238   4.887  10.223  1.00  0.00     0.122 A
HETATM   11  N4  UNL     1      10.973   4.026  11.223  1.00  0.00    -0.346 N
ATOM     12  H4  UNL     1      10.862   3.016  11.124  1.00  0.00     0.167 HD
HETATM   13  C9  UNL     1      10.876   4.719  12.382  1.00  0.00     0.185 A
HETATM   14  N5  UNL     1      11.077   6.027  12.142  1.00  0.00    -0.321 N
ENDROOT
BRANCH   1  15
HETATM   15  C4  UNL     1      11.562   3.311   6.937  1.00  0.00     0.125 C
BRANCH  15  16
HETATM   16  C3  UNL     1      12.576   2.220   6.651  1.00  0.00     0.046 C
BRANCH  16  17
HETATM   17  C2  UNL     1      13.942   2.786   6.469  1.00  0.00    -0.035 C
HETATM   18  C1  UNL     1      15.033   2.035   6.494  1.00  0.00     0.007 C
ENDBRANCH  16  17
ENDBRANCH  15  16
ENDBRANCH   1  15
BRANCH  14  19
HETATM   19  C10 UNL     1      11.049   7.077  13.142  1.00  0.00     0.204 C
BRANCH  19  20
HETATM   20  C11 UNL     1       9.788   7.817  13.152  1.00  0.00     0.105 C
HETATM   21  N6  UNL     1       9.728   9.104  13.130  1.00  0.00    -0.390 N
ATOM     22  H62 UNL     1      10.606   9.622  13.105  1.00  0.00     0.157 HD
ATOM     23  H61 UNL     1       8.848   9.620  13.136  1.00  0.00     0.157 HD
HETATM   24  N7  UNL     1       8.569   7.098  13.186  1.00  0.00    -0.086 NA
ENDBRANCH  19  20
ENDBRANCH  14  19
TORSDOF 5
ENDMDL