MODEL 1
REMARK VINA RESULT: -6.924630122      0.000      0.000
REMARK  7 active torsions:
REMARK  status: ('A' for Active; 'I' for Inactive)
REMARK    1  A    between atoms: C3_5  and  N2_6
REMARK    2  A    between atoms: N2_6  and  C4_8
REMARK    3  A    between atoms: C4_8  and  C5_9
REMARK    4  A    between atoms: C5_9  and  N3_10
REMARK    5  A    between atoms: N3_10  and  C6_13
REMARK    6  A    between atoms: C6_13  and  C7_14
REMARK    7  A    between atoms: C7_14  and  C8_15
ROOT
HETATM    1  N3  UNL     1      11.267   6.400   9.765  1.00  0.00    -0.073 N
ATOM      2  H31 UNL     1      11.102   7.252  10.301  1.00  0.00     0.277 HD
ATOM      3  H32 UNL     1      10.424   6.394   9.190  1.00  0.00     0.277 HD
ENDROOT
BRANCH   1   4
HETATM    4  C5  UNL     1      11.300   5.251  10.632  1.00  0.00     0.251 C
BRANCH   4   5
HETATM    5  C4  UNL     1      10.930   5.743  12.037  1.00  0.00     0.148 C
BRANCH   5   6
HETATM    6  N2  UNL     1      10.614   7.126  12.073  1.00  0.00    -0.374 N
ATOM      7  H2  UNL     1      10.954   7.730  11.325  1.00  0.00     0.161 HD
BRANCH   6   8
HETATM    8  C3  UNL     1       9.916   7.640  13.014  1.00  0.00     0.116 A
HETATM    9  N1  UNL     1      10.312   8.652  13.796  1.00  0.00    -0.350 N
HETATM   10  C2  UNL     1       9.483   9.118  14.769  1.00  0.00     0.106 A
ATOM     11  H1  UNL     1      11.232   9.072  13.663  1.00  0.00     0.166 HD
HETATM   12  C1  UNL     1       8.231   8.593  14.998  1.00  0.00     0.104 A
HETATM   13  N6  UNL     1       7.839   7.580  14.215  1.00  0.00    -0.371 N
HETATM   14  C12 UNL     1       8.659   7.110  13.243  1.00  0.00     0.136 A
ATOM     15  H6  UNL     1       6.919   7.161  14.351  1.00  0.00     0.164 HD
ENDBRANCH   6   8
ENDBRANCH   5   6
ENDBRANCH   4   5
ENDBRANCH   1   4
BRANCH   1  16
HETATM   16  C6  UNL     1      12.434   6.534   8.950  1.00  0.00     0.239 C
BRANCH  16  17
HETATM   17  C7  UNL     1      11.977   6.487   7.492  1.00  0.00     0.103 C
BRANCH  17  18
HETATM   18  C8  UNL     1      12.289   5.155   6.899  1.00  0.00     0.074 C
HETATM   19  N4  UNL     1      13.272   4.451   7.344  1.00  0.00    -0.380 N
HETATM   20  C9  UNL     1      13.530   3.176   6.738  1.00  0.00     0.122 C
ATOM     21  H4  UNL     1      13.853   4.791   8.110  1.00  0.00     0.160 HD
HETATM   22  C10 UNL     1      12.288   2.410   6.410  1.00  0.00     0.039 C
HETATM   23  C11 UNL     1      11.272   3.219   5.658  1.00  0.00     0.122 C
HETATM   24  N5  UNL     1      11.510   4.638   5.832  1.00  0.00    -0.380 N
ATOM     25  H5  UNL     1      11.103   5.289   5.161  1.00  0.00     0.160 HD
ENDBRANCH  17  18
ENDBRANCH  16  17
ENDBRANCH   1  16
TORSDOF 7
ENDMDL