MODEL 1
REMARK VINA RESULT: -8.178015279      0.000      0.000
REMARK  6 active torsions:
REMARK  status: ('A' for Active; 'I' for Inactive)
REMARK    1  A    between atoms: C1_4  and  C2_6
REMARK    2  A    between atoms: C2_6  and  N3_7
REMARK    3  A    between atoms: N3_7  and  C3_10
REMARK    4  A    between atoms: C3_10  and  C4_11
REMARK    5  A    between atoms: C4_11  and  N4_12
REMARK    6  A    between atoms: C6_14  and  C7_15
ROOT
HETATM    1  N4  UNL     1      11.171   6.227  11.297  1.00  0.00    -0.285 N
HETATM    2  C5  UNL     1      11.129   5.214  10.416  1.00  0.00     0.143 A
HETATM    3  C6  UNL     1      11.514   5.677   9.171  1.00  0.00     0.076 A
HETATM    4  N5  UNL     1      11.779   6.983   9.357  1.00  0.00    -0.284 N
ATOM      5  H5  UNL     1      12.091   7.630   8.634  1.00  0.00     0.188 HD
HETATM    6  N6  UNL     1      11.568   7.297  10.637  1.00  0.00    -0.240 N
ATOM      7  H6  UNL     1      11.695   8.224  11.044  1.00  0.00     0.208 HD
ENDROOT
BRANCH   1   8
HETATM    8  C4  UNL     1      10.852   6.201  12.707  1.00  0.00     0.177 C
BRANCH   8   9
HETATM    9  C3  UNL     1       9.358   6.167  12.840  1.00  0.00     0.254 C
BRANCH   9  10
HETATM   10  N3  UNL     1       8.744   7.470  12.803  1.00  0.00    -0.067 N
ATOM     11  H32 UNL     1       7.875   7.491  12.271  1.00  0.00     0.277 HD
ATOM     12  H31 UNL     1       9.259   8.142  12.233  1.00  0.00     0.277 HD
BRANCH  10  13
HETATM   13  C2  UNL     1       8.580   7.897  14.192  1.00  0.00     0.304 C
BRANCH  13  14
HETATM   14  C1  UNL     1       9.275   9.177  14.435  1.00  0.00     0.112 C
HETATM   15  N1  UNL     1       8.961   9.968  15.400  1.00  0.00    -0.390 N
ATOM     16  H12 UNL     1       9.441  10.851  15.569  1.00  0.00     0.157 HD
ATOM     17  H11 UNL     1       8.202   9.716  16.034  1.00  0.00     0.157 HD
HETATM   18  N2  UNL     1      10.331   9.528  13.552  1.00  0.00    -0.086 NA
ENDBRANCH  13  14
ENDBRANCH  10  13
ENDBRANCH   9  10
ENDBRANCH   8   9
ENDBRANCH   1   8
BRANCH   3  19
HETATM   19  C7  UNL     1      11.608   4.905   7.936  1.00  0.00    -0.007 A
HETATM   20  C8  UNL     1      11.667   5.490   6.694  1.00  0.00     0.014 A
HETATM   21  C9  UNL     1      11.754   4.737   5.558  1.00  0.00     0.001 A
HETATM   22  C10 UNL     1      11.784   3.357   5.632  1.00  0.00     0.000 A
HETATM   23  C11 UNL     1      11.725   2.727   6.865  1.00  0.00     0.001 A
HETATM   24  C12 UNL     1      11.638   3.526   7.992  1.00  0.00     0.014 A
ENDBRANCH   3  19
TORSDOF 6
ENDMDL