MODEL 4
REMARK VINA RESULT: -6.828850600      1.063      1.162
REMARK  7 active torsions:
REMARK  status: ('A' for Active; 'I' for Inactive)
REMARK    1  A    between atoms: C3_7  and  C4_8
REMARK    2  A    between atoms: C4_8  and  C5_9
REMARK    3  A    between atoms: C5_9  and  S1_10
REMARK    4  A    between atoms: S1_10  and  C6_11
REMARK    5  A    between atoms: C6_11  and  C7_12
REMARK    6  A    between atoms: C7_12  and  N3_13
REMARK    7  A    between atoms: N3_13  and  C8_15
ROOT
HETATM    1  C7  UNL     1      10.859   6.498  12.599  1.00  0.00     0.148 C
ENDROOT
BRANCH   1   2
HETATM    2  C6  UNL     1      10.669   5.030  12.355  1.00  0.00     0.094 C
BRANCH   2   3
HETATM    3  S1  UNL     1      11.218   4.629  10.674  1.00  0.00    -0.167 SA
BRANCH   3   4
HETATM    4  C5  UNL     1      11.732   6.119   9.780  1.00  0.00     0.078 C
BRANCH   4   5
HETATM    5  C4  UNL     1      11.199   6.156   8.384  1.00  0.00     0.051 C
BRANCH   5   6
HETATM    6  C3  UNL     1      11.781   5.110   7.520  1.00  0.00    -0.024 A
HETATM    7  C1  UNL     1      11.168   4.337   6.551  1.00  0.00     0.115 A
HETATM    8  N1  UNL     1      12.095   3.526   6.031  1.00  0.00    -0.312 N
HETATM    9  N2  UNL     1      13.271   3.733   6.613  1.00  0.00    -0.312 N
ATOM     10  H1  UNL     1      11.923   2.844   5.292  1.00  0.00     0.186 HD
HETATM   11  C2  UNL     1      13.088   4.716   7.539  1.00  0.00     0.115 A
ATOM     12  H2  UNL     1      14.144   3.248   6.407  1.00  0.00     0.186 HD
ENDBRANCH   5   6
ENDBRANCH   4   5
ENDBRANCH   3   4
ENDBRANCH   2   3
ENDBRANCH   1   2
BRANCH   1  13
HETATM   13  N3  UNL     1       9.652   7.254  12.561  1.00  0.00    -0.223 N
ATOM     14  H3  UNL     1       9.089   7.190  11.713  1.00  0.00     0.177 HD
BRANCH  13  15
HETATM   15  C8  UNL     1       9.215   8.006  13.500  1.00  0.00     0.709 A
HETATM   16  N4  UNL     1       8.120   7.744  14.235  1.00  0.00    -0.115 N
HETATM   17  N5  UNL     1       7.975   8.749  15.114  1.00  0.00    -0.213 N
ATOM     18  H4  UNL     1       7.511   6.931  14.142  1.00  0.00     0.207 HD
HETATM   19  N6  UNL     1       8.943   9.628  14.949  1.00  0.00    -0.213 N
ATOM     20  H5  UNL     1       7.228   8.821  15.805  1.00  0.00     0.210 HD
HETATM   21  N7  UNL     1       9.696   9.171  13.964  1.00  0.00    -0.115 N
ATOM     22  H6  UNL     1       9.084  10.489  15.477  1.00  0.00     0.210 HD
ATOM     23  H7  UNL     1      10.528   9.639  13.605  1.00  0.00     0.207 HD
ENDBRANCH  13  15
ENDBRANCH   1  13
TORSDOF 7
ENDMDL