MODEL 3
REMARK VINA RESULT: -6.236867541      1.469      1.584
REMARK  8 active torsions:
REMARK  status: ('A' for Active; 'I' for Inactive)
REMARK    1  A    between atoms: C2_3  and  C3_4
REMARK    2  A    between atoms: C3_4  and  N2_5
REMARK    3  A    between atoms: N2_5  and  C4_7
REMARK    4  A    between atoms: C4_7  and  N3_8
REMARK    5  A    between atoms: N3_8  and  C5_10
REMARK    6  A    between atoms: C5_10  and  N4_12
REMARK    7  A    between atoms: N4_12  and  C6_14
REMARK    8  A    between atoms: C6_14  and  C7_15
ROOT
HETATM    1  N1  UNL     1       9.006   9.812  15.434  1.00  0.00    -0.197 NA
HETATM    2  C1  UNL     1       8.561   8.847  14.959  1.00  0.00     0.064 C
HETATM    3  C2  UNL     1       7.967   7.663  14.383  1.00  0.00     0.168 C
ENDROOT
BRANCH   3   4
HETATM    4  C3  UNL     1       8.635   7.089  13.190  1.00  0.00     0.071 C
BRANCH   4   5
HETATM    5  N2  UNL     1       9.697   7.755  12.591  1.00  0.00    -0.386 N
ATOM      6  H2  UNL     1       9.515   8.603  12.054  1.00  0.00     0.160 HD
BRANCH   5   7
HETATM    7  C4  UNL     1      11.027   7.280  12.710  1.00  0.00     0.244 C
BRANCH   7   8
HETATM    8  N3  UNL     1      11.598   7.350  11.349  1.00  0.00    -0.351 N
ATOM      9  H3  UNL     1      12.159   8.153  11.064  1.00  0.00     0.163 HD
BRANCH   8  10
HETATM   10  C5  UNL     1      11.352   6.275  10.440  1.00  0.00     0.168 C
HETATM   11  S1  UNL     1      11.262   4.732  11.020  1.00  0.00    -0.041 SA
BRANCH  10  12
HETATM   12  N4  UNL     1      11.208   6.587   9.068  1.00  0.00    -0.365 N
ATOM     13  H4  UNL     1      11.086   7.557   8.779  1.00  0.00     0.161 HD
BRANCH  12  14
HETATM   14  C6  UNL     1      11.230   5.550   8.084  1.00  0.00     0.154 C
BRANCH  14  15
HETATM   15  C7  UNL     1      12.335   5.605   7.091  1.00  0.00     0.139 C
HETATM   16  C8  UNL     1      13.097   4.293   7.058  1.00  0.00     0.035 C
HETATM   17  C9  UNL     1      12.047   3.378   6.472  1.00  0.00     0.029 C
HETATM   18  C10 UNL     1      11.225   4.337   5.646  1.00  0.00     0.168 C
HETATM   19  O1  UNL     1      11.752   5.603   5.803  1.00  0.00    -0.384 OA
ENDBRANCH  14  15
ENDBRANCH  12  14
ENDBRANCH  10  12
ENDBRANCH   8  10
ENDBRANCH   7   8
ENDBRANCH   5   7
ENDBRANCH   4   5
ENDBRANCH   3   4
TORSDOF 8
ENDMDL