MODEL 4
REMARK VINA RESULT: -7.020949519      1.453      2.382
REMARK  6 active torsions:
REMARK  status: ('A' for Active; 'I' for Inactive)
REMARK    1  A    between atoms: C2_3  and  C3_4
REMARK    2  A    between atoms: C3_4  and  N2_5
REMARK    3  A    between atoms: C3_4  and  C10_17
REMARK    4  A    between atoms: N2_5  and  C4_7
REMARK    5  A    between atoms: C4_7  and  C5_8
REMARK    6  A    between atoms: C5_8  and  N3_9
ROOT
HETATM    1  N1  UNL     1      11.046   2.035  11.751  1.00  0.00    -0.197 NA
HETATM    2  C1  UNL     1      10.841   2.752  10.896  1.00  0.00     0.061 C
HETATM    3  C2  UNL     1      10.594   3.654   9.788  1.00  0.00     0.155 C
ENDROOT
BRANCH   3   4
HETATM    4  C3  UNL     1      11.609   4.810   9.780  1.00  0.00     0.141 C
BRANCH   4   5
HETATM    5  N2  UNL     1      11.091   5.816  10.628  1.00  0.00    -0.407 N
ATOM      6  H2  UNL     1      10.623   6.633  10.234  1.00  0.00     0.154 HD
BRANCH   5   7
HETATM    7  C4  UNL     1      11.230   5.678  12.025  1.00  0.00     0.159 C
BRANCH   7   8
HETATM    8  C5  UNL     1       9.919   5.768  12.784  1.00  0.00     0.082 C
BRANCH   8   9
HETATM    9  N3  UNL     1       9.650   7.050  13.285  1.00  0.00    -0.369 N
HETATM   10  C6  UNL     1      10.724   7.900  13.583  1.00  0.00     0.090 C
HETATM   11  C7  UNL     1      10.264   9.340  13.592  1.00  0.00     0.277 C
HETATM   12  N4  UNL     1       9.149   9.585  14.448  1.00  0.00    -0.069 N
HETATM   13  C8  UNL     1       8.430   8.372  14.828  1.00  0.00     0.252 C
ATOM     14  H42 UNL     1       9.436  10.108  15.275  1.00  0.00     0.277 HD
ATOM     15  H41 UNL     1       8.514  10.265  14.029  1.00  0.00     0.277 HD
HETATM   16  C9  UNL     1       8.350   7.448  13.603  1.00  0.00     0.154 C
ENDBRANCH   8   9
ENDBRANCH   7   8
ENDBRANCH   5   7
ENDBRANCH   4   5
BRANCH   4  17
HETATM   17  C10 UNL     1      11.853   5.190   8.372  1.00  0.00     0.049 A
HETATM   18  C11 UNL     1      12.267   6.425   7.879  1.00  0.00     0.116 A
HETATM   19  N5  UNL     1      12.360   6.393   6.530  1.00  0.00    -0.360 N
HETATM   20  C12 UNL     1      12.005   5.140   6.176  1.00  0.00     0.180 A
ATOM     21  H5  UNL     1      12.640   7.155   5.912  1.00  0.00     0.166 HD
HETATM   22  N6  UNL     1      11.706   4.431   7.276  1.00  0.00    -0.353 N
ATOM     23  H6  UNL     1      11.409   3.455   7.278  1.00  0.00     0.166 HD
ENDBRANCH   4  17
ENDBRANCH   3   4
TORSDOF 6
ENDMDL