MODEL 1
REMARK VINA RESULT: -7.201049089      0.000      0.000
REMARK  7 active torsions:
REMARK  status: ('A' for Active; 'I' for Inactive)
REMARK    1  A    between atoms: C2_2  and  C3_3
REMARK    2  A    between atoms: C3_3  and  C4_4
REMARK    3  A    between atoms: C4_4  and  C5_5
REMARK    4  A    between atoms: C5_5  and  N1_6
REMARK    5  A    between atoms: N1_6  and  C6_8
REMARK    6  A    between atoms: C6_8  and  C7_9
REMARK    7  A    between atoms: C9_13  and  N3_14
ROOT
HETATM    1  C7  UNL     1      12.136   5.895   9.043  1.00  0.00     0.140 C
HETATM    2  C8  UNL     1      11.601   4.618   9.566  1.00  0.00     0.153 C
HETATM    3  N2  UNL     1      11.190   4.925  10.909  1.00  0.00    -0.360 N
ATOM      4  H2  UNL     1      10.998   4.230  11.630  1.00  0.00     0.162 HD
HETATM    5  C9  UNL     1      11.098   6.194  11.075  1.00  0.00     0.174 C
HETATM    6  N5  UNL     1      11.432   6.884   9.879  1.00  0.00    -0.352 N
ATOM      7  H5  UNL     1      11.228   7.857   9.648  1.00  0.00     0.163 HD
ENDROOT
BRANCH   1   8
HETATM    8  C6  UNL     1      11.882   6.137   7.601  1.00  0.00     0.087 C
BRANCH   8   9
HETATM    9  N1  UNL     1      11.201   5.139   6.924  1.00  0.00    -0.380 N
ATOM     10  H1  UNL     1      10.300   4.842   7.300  1.00  0.00     0.164 HD
BRANCH   9  11
HETATM   11  C5  UNL     1      11.657   4.512   5.767  1.00  0.00     0.060 C
BRANCH  11  12
HETATM   12  C4  UNL     1      11.536   3.003   5.775  1.00  0.00     0.048 C
BRANCH  12  13
HETATM   13  C3  UNL     1      12.512   2.367   6.721  1.00  0.00     0.031 C
BRANCH  13  14
HETATM   14  C2  UNL     1      13.874   2.894   6.509  1.00  0.00    -0.037 C
HETATM   15  C1  UNL     1      14.922   2.101   6.516  1.00  0.00     0.007 C
ENDBRANCH  13  14
ENDBRANCH  12  13
ENDBRANCH  11  12
ENDBRANCH   9  11
ENDBRANCH   8   9
ENDBRANCH   1   8
BRANCH   5  16
HETATM   16  N3  UNL     1      10.706   6.735  12.328  1.00  0.00    -0.350 N
HETATM   17  C10 UNL     1       9.554   6.197  13.005  1.00  0.00     0.153 C
HETATM   18  C11 UNL     1       8.590   7.346  13.309  1.00  0.00     0.252 C
HETATM   19  N4  UNL     1       9.240   8.425  13.980  1.00  0.00    -0.072 N
HETATM   20  C12 UNL     1      10.349   8.909  13.227  1.00  0.00     0.252 C
ATOM     21  H42 UNL     1       8.586   9.173  14.207  1.00  0.00     0.277 HD
ATOM     22  H41 UNL     1       9.516   8.165  14.928  1.00  0.00     0.277 HD
HETATM   23  C13 UNL     1      11.410   7.823  12.953  1.00  0.00     0.153 C
ENDBRANCH   5  16
TORSDOF 7
ENDMDL