MODEL 3
REMARK VINA RESULT: -7.128018093      1.533      2.490
REMARK  7 active torsions:
REMARK  status: ('A' for Active; 'I' for Inactive)
REMARK    1  A    between atoms: N1_1  and  C1_4
REMARK    2  A    between atoms: C3_10  and  C4_11
REMARK    3  A    between atoms: C4_11  and  C5_12
REMARK    4  A    between atoms: C5_12  and  C6_13
REMARK    5  A    between atoms: C6_13  and  C7_14
REMARK    6  A    between atoms: C7_14  and  C8_15
REMARK    7  A    between atoms: C8_15  and  N4_16
ROOT
HETATM    1  C4  UNL     1       9.784   5.445  12.758  1.00  0.00     0.059 C
ENDROOT
BRANCH   1   2
HETATM    2  C3  UNL     1      10.135   6.891  12.780  1.00  0.00     0.043 A
HETATM    3  C2  UNL     1       9.386   7.808  13.444  1.00  0.00     0.133 A
HETATM    4  N3  UNL     1       9.709   9.120  13.451  1.00  0.00    -0.296 N
HETATM    5  N2  UNL     1      10.779   9.498  12.795  1.00  0.00    -0.133 N
ATOM      6  H3  UNL     1       9.137   9.798  13.954  1.00  0.00     0.186 HD
HETATM    7  C1  UNL     1      11.554   8.647  12.126  1.00  0.00     0.690 A
ATOM      8  H2  UNL     1      11.029  10.487  12.796  1.00  0.00     0.205 HD
HETATM    9  N6  UNL     1      11.233   7.354  12.119  1.00  0.00    -0.193 N
ATOM     10  H6  UNL     1      11.822   6.696  11.608  1.00  0.00     0.184 HD
BRANCH   7  11
HETATM   11  N1  UNL     1      12.611   9.050  11.478  1.00  0.00    -0.233 N
ATOM     12  H12 UNL     1      13.231   9.739  11.905  1.00  0.00     0.174 HD
ATOM     13  H11 UNL     1      12.839   8.691  10.550  1.00  0.00     0.174 HD
ENDBRANCH   7  11
ENDBRANCH   1   2
BRANCH   1  14
HETATM   14  C5  UNL     1      10.930   4.589  12.271  1.00  0.00     0.006 C
BRANCH  14  15
HETATM   15  C6  UNL     1      10.467   3.396  11.504  1.00  0.00     0.002 C
BRANCH  15  16
HETATM   16  C7  UNL     1      10.695   3.536  10.005  1.00  0.00     0.030 C
BRANCH  16  17
HETATM   17  C8  UNL     1      11.511   4.739   9.639  1.00  0.00     0.272 C
BRANCH  17  18
HETATM   18  N4  UNL     1      12.223   4.478   8.399  1.00  0.00     0.091 N
HETATM   19  C9  UNL     1      12.995   5.606   7.985  1.00  0.00     0.300 C
HETATM   20  C10 UNL     1      12.275   6.442   7.007  1.00  0.00     0.262 C
HETATM   21  N5  UNL     1      12.109   5.644   5.811  1.00  0.00    -0.072 N
HETATM   22  C11 UNL     1      11.369   4.437   6.045  1.00  0.00     0.262 C
ATOM     23  H52 UNL     1      11.686   6.192   5.063  1.00  0.00     0.277 HD
ATOM     24  H51 UNL     1      13.010   5.442   5.380  1.00  0.00     0.277 HD
HETATM   25  C12 UNL     1      11.413   3.874   7.400  1.00  0.00     0.300 C
ENDBRANCH  17  18
ENDBRANCH  16  17
ENDBRANCH  15  16
ENDBRANCH  14  15
ENDBRANCH   1  14
TORSDOF 7
ENDMDL