MODEL 3
REMARK VINA RESULT: -9.005141039      1.674      2.269
REMARK  6 active torsions:
REMARK  status: ('A' for Active; 'I' for Inactive)
REMARK    1  A    between atoms: C3_4  and  N2_5
REMARK    2  A    between atoms: C7_10  and  C8_11
REMARK       I    between atoms: C8_11  and  N3_13
REMARK    3  A    between atoms: N3_13  and  C9_15
REMARK    4  A    between atoms: C9_15  and  C10_16
REMARK    5  A    between atoms: C10_16  and  N4_18
REMARK    6  A    between atoms: N4_18  and  C11_20
ROOT
HETATM    1  C8  UNL     1       4.326   5.497  21.198  1.00  0.00     0.223 C
HETATM    2  O1  UNL     1       5.290   5.257  20.392  1.00  0.00    -0.273 OA
HETATM    3  N3  UNL     1       3.306   4.544  21.283  1.00  0.00    -0.354 N
ATOM      4  H3  UNL     1       2.528   4.711  21.921  1.00  0.00     0.162 HD
ENDROOT
BRANCH   1   5
HETATM    5  C7  UNL     1       4.301   6.723  21.994  1.00  0.00     0.099 C
HETATM    6  C6  UNL     1       3.861   6.461  23.438  1.00  0.00     0.058 C
HETATM    7  C5  UNL     1       3.524   7.819  24.004  1.00  0.00     0.209 C
HETATM    8  C4  UNL     1       4.266   8.940  23.371  1.00  0.00     0.097 C
HETATM    9  F1  UNL     1       3.586   7.838  25.395  1.00  0.00    -0.244 F
HETATM   10  N2  UNL     1       5.502   8.650  22.772  1.00  0.00    -0.367 N
HETATM   11  C21 UNL     1       5.647   7.414  22.102  1.00  0.00     0.138 C
BRANCH  10  12
HETATM   12  C3  UNL     1       6.657   9.152  23.442  1.00  0.00     0.207 C
HETATM   13  C2  UNL     1       7.274   8.225  24.438  1.00  0.00     0.174 C
HETATM   14  N1  UNL     1       8.727   8.381  24.269  1.00  0.00    -0.335 N
HETATM   15  C1  UNL     1       9.685   7.926  25.238  1.00  0.00     0.154 C
HETATM   16  C23 UNL     1       8.915   9.037  23.015  1.00  0.00     0.321 C
HETATM   17  N5  UNL     1       7.685   9.579  22.557  1.00  0.00    -0.315 N
HETATM   18  O2  UNL     1      10.060   9.083  22.457  1.00  0.00    -0.247 OA
HETATM   19  C22 UNL     1       7.566  10.416  21.383  1.00  0.00     0.157 C
ENDBRANCH  10  12
ENDBRANCH   1   5
BRANCH   3  20
HETATM   20  C9  UNL     1       3.316   3.311  20.487  1.00  0.00     0.191 C
BRANCH  20  21
HETATM   21  C10 UNL     1       4.138   2.280  21.149  1.00  0.00     0.091 C
HETATM   22  S1  UNL     1       3.432   1.345  22.283  1.00  0.00    -0.064 SA
BRANCH  21  23
HETATM   23  N4  UNL     1       5.477   2.094  20.834  1.00  0.00    -0.378 N
ATOM     24  H4  UNL     1       6.132   2.468  21.521  1.00  0.00     0.160 HD
BRANCH  23  25
HETATM   25  C11 UNL     1       6.087   1.468  19.714  1.00  0.00     0.090 C
HETATM   26  C12 UNL     1       7.576   1.773  19.671  1.00  0.00     0.009 C
HETATM   27  C13 UNL     1       8.230   0.750  18.785  1.00  0.00     0.011 C
HETATM   28  C17 UNL     1       7.887   3.162  19.228  1.00  0.00     0.011 C
HETATM   29  C14 UNL     1       7.638   0.888  17.396  1.00  0.00    -0.013 C
HETATM   30  C15 UNL     1       8.015   2.254  16.886  1.00  0.00     0.009 C
HETATM   31  C20 UNL     1       6.143   0.723  17.403  1.00  0.00     0.011 C
HETATM   32  C16 UNL     1       7.422   3.312  17.796  1.00  0.00    -0.013 C
HETATM   33  C18 UNL     1       5.920   3.103  17.798  1.00  0.00     0.011 C
HETATM   34  C19 UNL     1       5.531   1.753  18.372  1.00  0.00     0.009 C
ENDBRANCH  23  25
ENDBRANCH  21  23
ENDBRANCH  20  21
ENDBRANCH   3  20
TORSDOF 6
ENDMDL