MODEL 1
REMARK VINA RESULT: -8.678224141      0.000      0.000
REMARK  5 active torsions:
REMARK  status: ('A' for Active; 'I' for Inactive)
REMARK       I    between atoms: C3_3  and  N1_5
REMARK    1  A    between atoms: N1_5  and  C4_7
REMARK    2  A    between atoms: C4_7  and  C5_8
REMARK    3  A    between atoms: C9_12  and  N2_13
REMARK       I    between atoms: N2_13  and  C10_15
REMARK    4  A    between atoms: C10_15  and  C11_17
REMARK       I    between atoms: N3_27  and  C20_28
REMARK    5  A    between atoms: C20_28  and  C21_30
ROOT
HETATM    1  C1  UNL     1       9.985   7.560  26.075  1.00  0.00     0.022 C
HETATM    2  C2  UNL     1       9.020   7.765  25.388  1.00  0.00    -0.017 C
HETATM    3  C3  UNL     1       7.840   8.018  24.579  1.00  0.00     0.295 C
HETATM    4  O1  UNL     1       7.305   9.149  24.579  1.00  0.00    -0.258 OA
HETATM    5  N1  UNL     1       7.278   6.968  23.773  1.00  0.00    -0.350 N
ATOM      6  H1  UNL     1       7.707   6.043  23.765  1.00  0.00     0.163 HD
ENDROOT
BRANCH   5   7
HETATM    7  C4  UNL     1       6.112   7.229  22.980  1.00  0.00     0.128 C
BRANCH   7   8
HETATM    8  C5  UNL     1       6.370   8.145  21.831  1.00  0.00     0.011 C
HETATM    9  C6  UNL     1       5.158   8.296  20.943  1.00  0.00     0.032 C
HETATM   10  C7  UNL     1       5.574   8.413  19.525  1.00  0.00     0.089 C
HETATM   11  C8  UNL     1       5.882   7.116  18.834  1.00  0.00     0.050 C
HETATM   12  N3  UNL     1       6.711   9.264  19.355  1.00  0.00    -0.346 N
HETATM   13  C9  UNL     1       6.515   6.068  19.672  1.00  0.00     0.086 C
HETATM   14  C17 UNL     1       7.707   6.502  20.462  1.00  0.00     0.032 C
HETATM   15  C18 UNL     1       7.615   7.861  21.054  1.00  0.00     0.011 C
HETATM   16  C19 UNL     1       7.923   8.966  20.063  1.00  0.00     0.131 C
HETATM   17  C20 UNL     1       6.663  10.388  18.508  1.00  0.00     0.230 C
HETATM   18  O4  UNL     1       7.702  11.130  18.350  1.00  0.00    -0.273 OA
BRANCH  13  19
HETATM   19  N2  UNL     1       6.802   4.936  18.805  1.00  0.00    -0.354 N
HETATM   20  C10 UNL     1       7.023   3.621  19.254  1.00  0.00     0.252 C
HETATM   21  O2  UNL     1       6.977   3.378  20.467  1.00  0.00    -0.270 OA
ATOM     22  H2  UNL     1       6.848   5.108  17.801  1.00  0.00     0.162 HD
BRANCH  20  23
HETATM   23  C11 UNL     1       7.304   2.553  18.332  1.00  0.00     0.141 C
HETATM   24  C12 UNL     1       8.614   1.829  18.585  1.00  0.00     0.048 C
HETATM   25  C13 UNL     1       8.446   0.597  17.707  1.00  0.00     0.010 C
HETATM   26  C14 UNL     1       7.040   0.657  17.194  1.00  0.00     0.013 C
HETATM   27  C15 UNL     1       6.962   1.813  16.223  1.00  0.00     0.174 C
HETATM   28  C16 UNL     1       6.345   1.371  18.374  1.00  0.00     0.054 C
HETATM   29  O3  UNL     1       7.266   2.928  16.992  1.00  0.00    -0.370 OA
ENDBRANCH  20  23
ENDBRANCH  13  19
BRANCH  17  30
HETATM   30  C21 UNL     1       5.457  10.815  17.743  1.00  0.00     0.188 C
HETATM   31 BR1  UNL     1       5.763  10.483  15.869  1.00  0.00    -0.087 Br
ENDBRANCH  17  30
ENDBRANCH   7   8
ENDBRANCH   5   7
TORSDOF 5
ENDMDL