MODEL 1
REMARK VINA RESULT: -7.963138133      0.000      0.000
REMARK  6 active torsions:
REMARK  status: ('A' for Active; 'I' for Inactive)
REMARK       I    between atoms: N1_7  and  C6_8
REMARK    1  A    between atoms: C6_8  and  C7_10
REMARK    2  A    between atoms: C7_10  and  C8_11
REMARK    3  A    between atoms: C8_11  and  C9_12
REMARK       I    between atoms: C9_12  and  N2_14
REMARK    4  A    between atoms: N3_17  and  C13_19
REMARK    5  A    between atoms: C13_19  and  C14_20
REMARK       I    between atoms: C14_20  and  N4_22
REMARK       I    between atoms: N4_22  and  C15_24
REMARK       I    between atoms: C15_24  and  N5_26
REMARK    6  A    between atoms: N5_26  and  C16_28
ROOT
HETATM    1  C9  UNL     1       4.478   4.401  22.045  1.00  0.00     0.220 C
HETATM    2  O2  UNL     1       3.582   4.037  22.881  1.00  0.00    -0.273 OA
HETATM    3  N2  UNL     1       4.808   5.759  21.905  1.00  0.00    -0.349 N
HETATM    4  C10 UNL     1       5.815   6.188  20.956  1.00  0.00     0.154 C
HETATM    5  C11 UNL     1       6.799   7.144  21.614  1.00  0.00     0.257 C
HETATM    6  N3  UNL     1       6.224   8.019  22.576  1.00  0.00    -0.059 N
HETATM    7  C12 UNL     1       6.654   7.760  23.920  1.00  0.00     0.273 C
HETATM    8  C20 UNL     1       4.767   8.053  22.478  1.00  0.00     0.257 C
HETATM    9  C21 UNL     1       4.120   6.734  22.746  1.00  0.00     0.154 C
ENDROOT
BRANCH   1  10
HETATM   10  C8  UNL     1       5.174   3.386  21.220  1.00  0.00     0.112 C
BRANCH  10  11
HETATM   11  C7  UNL     1       4.262   2.997  20.053  1.00  0.00     0.112 C
BRANCH  11  12
HETATM   12  C6  UNL     1       4.939   3.239  18.752  1.00  0.00     0.220 C
HETATM   13  N1  UNL     1       5.859   2.341  18.183  1.00  0.00    -0.352 N
HETATM   14  C5  UNL     1       6.154   1.114  18.904  1.00  0.00     0.126 C
HETATM   15  C22 UNL     1       6.434   2.719  16.938  1.00  0.00     0.129 C
HETATM   16  C4  UNL     1       7.545   1.175  19.484  1.00  0.00     0.023 C
HETATM   17  C3  UNL     1       8.636   0.840  18.556  1.00  0.00     0.045 C
HETATM   18  C2  UNL     1       8.489   1.253  17.129  1.00  0.00     0.101 C
HETATM   19  C1  UNL     1       7.822   0.165  16.306  1.00  0.00     0.051 C
HETATM   20  F1  UNL     1       9.809   1.310  16.631  1.00  0.00    -0.243 F
HETATM   21  C23 UNL     1       7.927   2.605  16.888  1.00  0.00     0.063 C
HETATM   22  O1  UNL     1       4.664   4.302  18.148  1.00  0.00    -0.273 OA
ENDBRANCH  11  12
ENDBRANCH  10  11
ENDBRANCH   1  10
BRANCH   6  23
HETATM   23  C13 UNL     1       6.628   9.398  22.245  1.00  0.00     0.339 C
BRANCH  23  24
HETATM   24  C14 UNL     1       7.899   9.487  21.535  1.00  0.00     0.251 C
HETATM   25  O3  UNL     1       8.946   9.422  22.301  1.00  0.00    -0.271 OA
HETATM   26  N4  UNL     1       8.131   9.631  20.163  1.00  0.00    -0.278 N
HETATM   27  C15 UNL     1       7.224   9.741  19.125  1.00  0.00     0.323 C
ATOM     28  H4  UNL     1       9.113   9.661  19.889  1.00  0.00     0.173 HD
HETATM   29  O4  UNL     1       7.736   9.876  17.939  1.00  0.00    -0.247 OA
HETATM   30  N5  UNL     1       5.825   9.728  19.162  1.00  0.00    -0.335 N
ATOM     31  H5  UNL     1       5.332   9.622  20.049  1.00  0.00     0.165 HD
BRANCH  30  32
HETATM   32  C16 UNL     1       5.068   9.871  17.898  1.00  0.00     0.023 C
HETATM   33  C17 UNL     1       5.539   8.858  16.874  1.00  0.00     0.037 C
HETATM   34  C18 UNL     1       5.283  11.283  17.416  1.00  0.00     0.037 C
HETATM   35  C19 UNL     1       3.608   9.641  18.141  1.00  0.00     0.037 C
ENDBRANCH  30  32
ENDBRANCH  23  24
ENDBRANCH   6  23
TORSDOF 6
ENDMDL