MODEL 5
REMARK VINA RESULT: -8.941380915      2.522      3.440
REMARK  5 active torsions:
REMARK  status: ('A' for Active; 'I' for Inactive)
REMARK    1  A    between atoms: C2_2  and  N1_3
REMARK       I    between atoms: N1_3  and  C3_5
REMARK    2  A    between atoms: C3_5  and  C4_7
REMARK       I    between atoms: N2_15  and  C8_16
REMARK       I    between atoms: C8_16  and  N3_18
REMARK       I    between atoms: N3_18  and  C9_20
REMARK    3  A    between atoms: C9_20  and  C10_22
REMARK    4  A    between atoms: C10_22  and  C11_23
REMARK    5  A    between atoms: C11_23  and  C12_24
ROOT
HETATM    1  C4  UNL     1       5.154   6.276  23.123  1.00  0.00     0.198 C
HETATM    2  C5  UNL     1       4.878   7.471  23.992  1.00  0.00     0.179 C
HETATM    3  S1  UNL     1       3.269   8.006  23.379  1.00  0.00     0.188 S
HETATM    4  O2  UNL     1       2.442   8.565  24.484  1.00  0.00    -0.224 OA
HETATM    5  O3  UNL     1       3.440   8.939  22.231  1.00  0.00    -0.224 OA
HETATM    6  C6  UNL     1       2.730   6.396  22.879  1.00  0.00     0.215 C
HETATM    7  C7  UNL     1       1.939   6.576  21.600  1.00  0.00     0.075 C
HETATM    8 CL1  UNL     1       1.752   5.613  24.140  1.00  0.00    -0.078 Cl
HETATM    9  N2  UNL     1       3.956   5.704  22.635  1.00  0.00    -0.284 N
HETATM   10  C8  UNL     1       3.999   4.460  21.921  1.00  0.00     0.328 C
HETATM   11  O4  UNL     1       2.922   3.980  21.497  1.00  0.00    -0.247 OA
HETATM   12  N3  UNL     1       5.168   3.727  21.658  1.00  0.00    -0.279 N
ATOM     13  H3  UNL     1       6.057   4.098  21.994  1.00  0.00     0.173 HD
HETATM   14  C9  UNL     1       5.177   2.498  20.947  1.00  0.00     0.225 C
HETATM   15  O5  UNL     1       4.087   2.040  20.530  1.00  0.00    -0.273 OA
ENDROOT
BRANCH   1  16
HETATM   16  C3  UNL     1       5.946   6.779  21.986  1.00  0.00     0.241 C
HETATM   17  N1  UNL     1       7.317   7.053  22.145  1.00  0.00    -0.360 N
ATOM     18  H1  UNL     1       7.755   6.900  23.053  1.00  0.00     0.162 HD
HETATM   19  O1  UNL     1       5.404   6.962  20.886  1.00  0.00    -0.271 OA
BRANCH  17  20
HETATM   20  C2  UNL     1       8.122   7.550  21.043  1.00  0.00     0.118 C
HETATM   21  C1  UNL     1       8.928   8.749  21.537  1.00  0.00     0.026 C
ENDBRANCH  17  20
ENDBRANCH   1  16
BRANCH  14  22
HETATM   22  C10 UNL     1       6.418   1.740  20.678  1.00  0.00     0.104 C
BRANCH  22  23
HETATM   23  C11 UNL     1       7.361   2.590  19.896  1.00  0.00     0.018 C
BRANCH  23  24
HETATM   24  C12 UNL     1       7.600   2.080  18.504  1.00  0.00    -0.039 C
HETATM   25  C13 UNL     1       6.659   0.961  18.146  1.00  0.00     0.014 C
HETATM   26  C14 UNL     1       6.981   0.432  16.786  1.00  0.00    -0.013 C
HETATM   27  C15 UNL     1       6.846   1.503  15.721  1.00  0.00     0.009 C
HETATM   28  C19 UNL     1       8.401  -0.070  16.737  1.00  0.00     0.009 C
HETATM   29  C16 UNL     1       7.747   2.651  16.111  1.00  0.00    -0.013 C
HETATM   30  C17 UNL     1       9.182   2.176  16.037  1.00  0.00     0.009 C
HETATM   31  C21 UNL     1       7.419   3.176  17.480  1.00  0.00     0.014 C
HETATM   32  C18 UNL     1       9.355   1.066  17.035  1.00  0.00    -0.013 C
HETATM   33  C20 UNL     1       9.028   1.601  18.406  1.00  0.00     0.014 C
ENDBRANCH  23  24
ENDBRANCH  22  23
ENDBRANCH  14  22
TORSDOF 5
ENDMDL