MODEL 5
REMARK VINA RESULT: -6.867235442      5.211     10.628
REMARK  5 active torsions:
REMARK  status: ('A' for Active; 'I' for Inactive)
REMARK    1  A    between atoms: C5_6  and  C6_7
REMARK       I    between atoms: C6_7  and  N2_9
REMARK    2  A    between atoms: N3_12  and  C9_13
REMARK    3  A    between atoms: C12_16  and  N4_17
REMARK       I    between atoms: N4_17  and  C13_19
REMARK    4  A    between atoms: C13_19  and  C14_21
REMARK    5  A    between atoms: C16_23  and  C17_24
ROOT
HETATM    1  C9  UNL     1       5.207   6.808  21.654  1.00  0.00     0.225 C
HETATM    2  C10 UNL     1       5.328   8.232  21.222  1.00  0.00     0.038 C
HETATM    3  C11 UNL     1       5.596   8.986  22.534  1.00  0.00     0.027 C
HETATM    4  C12 UNL     1       5.818   7.927  23.589  1.00  0.00     0.086 C
HETATM    5  C18 UNL     1       6.298   6.754  22.732  1.00  0.00     0.061 C
ENDROOT
BRANCH   1   6
HETATM    6  N3  UNL     1       5.369   5.816  20.664  1.00  0.00     0.096 N
HETATM    7  C8  UNL     1       4.391   4.759  20.650  1.00  0.00     0.292 C
HETATM    8  C7  UNL     1       4.629   3.948  19.401  1.00  0.00     0.156 C
HETATM    9  N2  UNL     1       6.003   3.707  19.076  1.00  0.00    -0.348 N
HETATM   10  C6  UNL     1       6.363   2.585  18.298  1.00  0.00     0.225 C
HETATM   11  C20 UNL     1       7.046   4.585  19.518  1.00  0.00     0.156 C
HETATM   12  O1  UNL     1       5.418   1.810  17.919  1.00  0.00    -0.273 OA
HETATM   13  C19 UNL     1       6.672   5.193  20.837  1.00  0.00     0.292 C
BRANCH  10  14
HETATM   14  C5  UNL     1       7.733   2.239  17.891  1.00  0.00     0.105 C
HETATM   15  C4  UNL     1       8.057   2.523  16.455  1.00  0.00     0.043 C
HETATM   16  C3  UNL     1       9.205   1.572  16.187  1.00  0.00     0.237 C
HETATM   17  N1  UNL     1       9.068   0.484  17.100  1.00  0.00    -0.074 N
HETATM   18  C1  UNL     1       8.751  -0.739  16.347  1.00  0.00     0.272 C
HETATM   19  C2  UNL     1      10.258   0.247  17.896  1.00  0.00     0.272 C
HETATM   20  C21 UNL     1       7.968   0.729  17.975  1.00  0.00     0.250 C
ENDBRANCH  10  14
ENDBRANCH   1   6
BRANCH   4  21
HETATM   21  N4  UNL     1       6.753   8.289  24.598  1.00  0.00    -0.355 N
HETATM   22  C13 UNL     1       8.131   8.017  24.397  1.00  0.00     0.248 C
HETATM   23  O2  UNL     1       8.517   7.464  23.341  1.00  0.00    -0.271 OA
ATOM     24  H4  UNL     1       6.436   8.739  25.457  1.00  0.00     0.162 HD
BRANCH  22  25
HETATM   25  C14 UNL     1       9.111   8.388  25.437  1.00  0.00     0.279 C
HETATM   26  C15 UNL     1       9.329   7.335  26.509  1.00  0.00     0.076 C
HETATM   27  C16 UNL     1      10.762   7.787  26.406  1.00  0.00     0.199 C
HETATM   28  N5  UNL     1      10.474   8.120  25.002  1.00  0.00    -0.057 N
ATOM     29  H52 UNL     1      10.674   7.464  24.247  1.00  0.00     0.278 HD
ATOM     30  H51 UNL     1      11.020   8.818  24.497  1.00  0.00     0.278 HD
BRANCH  27  31
HETATM   31  C17 UNL     1      11.803   6.703  26.569  1.00  0.00     0.118 C
HETATM   32 BR1  UNL     1      13.571   7.373  26.157  1.00  0.00    -0.094 Br
ENDBRANCH  27  31
ENDBRANCH  22  25
ENDBRANCH   4  21
TORSDOF 5
ENDMDL