MODEL 1
REMARK VINA RESULT: -8.057720939      0.000      0.000
REMARK  9 active torsions:
REMARK  status: ('A' for Active; 'I' for Inactive)
REMARK    1  A    between atoms: C2_3  and  C5_6
REMARK    2  A    between atoms: C8_9  and  C9_11
REMARK       I    between atoms: C9_11  and  N2_13
REMARK    3  A    between atoms: C12_16  and  C13_17
REMARK    4  A    between atoms: C13_17  and  N3_18
REMARK    5  A    between atoms: C13_17  and  C14_22
REMARK    6  A    between atoms: C14_22  and  C15_23
REMARK       I    between atoms: C15_23  and  N4_25
REMARK    7  A    between atoms: C19_29  and  C20_30
REMARK    8  A    between atoms: C21_31  and  C22_32
REMARK    9  A    between atoms: C22_32  and  N5_33
ROOT
HETATM    1  C1  UNL     1       9.166   2.613  15.558  1.00  0.00     0.222 C
HETATM    2  N1  UNL     1       8.783   1.899  16.387  1.00  0.00    -0.461 NA
HETATM    3  C2  UNL     1       8.332   1.015  17.389  1.00  0.00     0.088 C
HETATM    4  C3  UNL     1       7.600  -0.123  16.745  1.00  0.00     0.054 C
HETATM    5  C4  UNL     1       9.488   0.442  18.184  1.00  0.00     0.054 C
ENDROOT
BRANCH   3   6
HETATM    6  C5  UNL     1       7.458   1.793  18.347  1.00  0.00     0.030 C
HETATM    7  C6  UNL     1       7.355   1.130  19.694  1.00  0.00     0.012 C
HETATM    8  C7  UNL     1       6.107   1.766  20.310  1.00  0.00     0.054 C
HETATM    9  C8  UNL     1       5.172   2.003  19.125  1.00  0.00     0.184 C
HETATM   10  F1  UNL     1       4.145   1.054  19.125  1.00  0.00    -0.233 F
HETATM   11  C25 UNL     1       6.036   1.871  17.901  1.00  0.00     0.061 C
BRANCH   9  12
HETATM   12  C9  UNL     1       4.621   3.375  19.250  1.00  0.00     0.260 C
HETATM   13  O1  UNL     1       5.152   4.270  18.511  1.00  0.00    -0.270 OA
HETATM   14  N2  UNL     1       3.557   3.688  20.144  1.00  0.00    -0.349 N
HETATM   15  C10 UNL     1       2.915   2.732  21.002  1.00  0.00     0.126 C
HETATM   16  C24 UNL     1       3.000   4.996  20.292  1.00  0.00     0.132 C
HETATM   17  C11 UNL     1       1.729   3.451  21.547  1.00  0.00     0.028 C
HETATM   18  C12 UNL     1       1.746   4.867  21.120  1.00  0.00     0.036 C
BRANCH  18  19
HETATM   19  C13 UNL     1       1.770   5.864  22.237  1.00  0.00     0.198 C
BRANCH  19  20
HETATM   20  N3  UNL     1       1.843   7.198  21.675  1.00  0.00    -0.074 N
ATOM     21  H33 UNL     1       1.533   7.228  20.704  1.00  0.00     0.274 HD
ATOM     22  H32 UNL     1       1.140   7.824  22.068  1.00  0.00     0.274 HD
ATOM     23  H31 UNL     1       2.791   7.555  21.792  1.00  0.00     0.274 HD
ENDBRANCH  19  20
BRANCH  19  24
HETATM   24  C14 UNL     1       2.882   5.699  23.199  1.00  0.00     0.136 C
BRANCH  24  25
HETATM   25  C15 UNL     1       3.373   6.972  23.782  1.00  0.00     0.221 C
HETATM   26  O2  UNL     1       2.513   7.685  24.360  1.00  0.00    -0.273 OA
HETATM   27  N4  UNL     1       4.702   7.399  23.719  1.00  0.00    -0.350 N
HETATM   28  C16 UNL     1       5.832   6.712  23.092  1.00  0.00     0.131 C
HETATM   29  C23 UNL     1       5.225   8.629  24.275  1.00  0.00     0.143 C
HETATM   30  C17 UNL     1       6.519   7.913  22.425  1.00  0.00     0.017 C
HETATM   31  C18 UNL     1       7.894   7.579  21.949  1.00  0.00     0.013 C
HETATM   32  C19 UNL     1       6.557   8.878  23.617  1.00  0.00     0.088 C
BRANCH  32  33
HETATM   33  C20 UNL     1       7.680   8.411  24.455  1.00  0.00    -0.098 C
HETATM   34  C21 UNL     1       8.594   8.036  25.159  1.00  0.00    -0.079 C
BRANCH  34  35
HETATM   35  C22 UNL     1       9.671   7.590  26.022  1.00  0.00     0.323 C
BRANCH  35  36
HETATM   36  N5  UNL     1       9.124   7.114  27.280  1.00  0.00    -0.069 N
ATOM     37  H53 UNL     1       9.123   7.839  27.998  1.00  0.00     0.275 HD
ATOM     38  H52 UNL     1       8.118   6.958  27.227  1.00  0.00     0.275 HD
ATOM     39  H51 UNL     1       9.626   6.278  27.579  1.00  0.00     0.275 HD
ENDBRANCH  35  36
ENDBRANCH  34  35
ENDBRANCH  32  33
ENDBRANCH  24  25
ENDBRANCH  19  24
ENDBRANCH  18  19
ENDBRANCH   9  12
ENDBRANCH   3   6
TORSDOF 9
ENDMDL