MODEL 1
REMARK VINA RESULT: -7.033355833      0.000      0.000
REMARK  8 active torsions:
REMARK  status: ('A' for Active; 'I' for Inactive)
REMARK       I    between atoms: C2_2  and  N1_4
REMARK    1  A    between atoms: N1_4  and  C3_6
REMARK    2  A    between atoms: C3_6  and  C4_7
REMARK    3  A    between atoms: C4_7  and  N2_8
REMARK    4  A    between atoms: C12_16  and  O2_17
REMARK    5  A    between atoms: C12_16  and  N3_19
REMARK    6  A    between atoms: C16_23  and  C17_24
REMARK       I    between atoms: C17_24  and  N4_26
REMARK    7  A    between atoms: N4_26  and  C18_28
REMARK    8  A    between atoms: C20_31  and  N5_32
ROOT
HETATM    1  C3  UNL     1       5.900   5.418  20.145  1.00  0.00     0.091 C
HETATM    2  C12 UNL     1       6.937   6.141  20.809  1.00  0.00     0.164 C
ENDROOT
BRANCH   2   3
HETATM    3  O2  UNL     1       8.010   5.443  21.183  1.00  0.00    -0.345 OA
ATOM      4  H2  UNL     1       8.781   5.520  20.634  1.00  0.00     0.219 HD
ENDBRANCH   2   3
BRANCH   2   5
HETATM    5  N3  UNL     1       7.092   7.497  21.179  1.00  0.00    -0.347 N
HETATM    6  C13 UNL     1       6.240   8.397  21.860  1.00  0.00     0.126 C
HETATM    7  C14 UNL     1       7.087   9.488  22.456  1.00  0.00     0.022 C
HETATM    8  C15 UNL     1       8.498   9.018  22.169  1.00  0.00     0.037 C
HETATM    9  C16 UNL     1       8.290   8.306  20.814  1.00  0.00     0.178 C
BRANCH   9  10
HETATM   10  C17 UNL     1       7.984   9.351  19.839  1.00  0.00     0.241 C
HETATM   11  O3  UNL     1       8.533  10.460  19.876  1.00  0.00    -0.271 OA
HETATM   12  N4  UNL     1       7.032   9.057  18.835  1.00  0.00    -0.351 N
ATOM     13  H4  UNL     1       6.580   8.142  18.830  1.00  0.00     0.163 HD
BRANCH  12  14
HETATM   14  C18 UNL     1       6.678  10.034  17.798  1.00  0.00     0.137 A
HETATM   15  C19 UNL     1       5.227  10.416  17.764  1.00  0.00     0.140 A
HETATM   16 CL1  UNL     1       4.857  12.126  17.426  1.00  0.00    -0.120 Cl
HETATM   17  C20 UNL     1       5.783   9.549  16.717  1.00  0.00     0.233 A
BRANCH  17  18
HETATM   18  N5  UNL     1       5.949   9.913  15.348  1.00  0.00    -0.071 N
HETATM   19  C21 UNL     1       4.724  10.474  14.806  1.00  0.00     0.272 C
HETATM   20  C22 UNL     1       7.092  10.767  15.103  1.00  0.00     0.272 C
HETATM   21  C23 UNL     1       6.214   8.692  14.565  1.00  0.00     0.272 C
ENDBRANCH  17  18
ENDBRANCH  12  14
ENDBRANCH   9  10
ENDBRANCH   2   5
BRANCH   1  22
HETATM   22  N1  UNL     1       4.846   5.736  19.641  1.00  0.00    -0.326 N
HETATM   23  C2  UNL     1       4.210   6.624  18.825  1.00  0.00     0.218 C
HETATM   24  C1  UNL     1       3.316   7.741  19.316  1.00  0.00     0.117 C
HETATM   25  O1  UNL     1       4.345   6.539  17.572  1.00  0.00    -0.274 OA
ATOM     26  H1  UNL     1       4.147   5.064  19.956  1.00  0.00     0.168 HD
ENDBRANCH   1  22
BRANCH   1  27
HETATM   27  C4  UNL     1       6.200   3.885  20.136  1.00  0.00     0.334 C
BRANCH  27  28
HETATM   28  N2  UNL     1       5.853   3.270  18.923  1.00  0.00     0.099 N
HETATM   29  C5  UNL     1       6.879   3.703  17.946  1.00  0.00     0.278 C
HETATM   30  C6  UNL     1       7.255   2.483  17.146  1.00  0.00     0.016 C
HETATM   31  C7  UNL     1       8.470   1.863  17.783  1.00  0.00     0.006 C
HETATM   32  C11 UNL     1       6.037   1.603  17.323  1.00  0.00     0.042 C
HETATM   33  C8  UNL     1       8.217   1.111  19.023  1.00  0.00     0.002 C
HETATM   34  C9  UNL     1       6.835   1.081  19.552  1.00  0.00     0.036 C
HETATM   35  C10 UNL     1       5.803   1.859  18.833  1.00  0.00     0.224 C
ENDBRANCH  27  28
ENDBRANCH   1  27
TORSDOF 8
ENDMDL