MODEL 5
REMARK VINA RESULT: -7.076836892      1.267      1.417
REMARK  5 active torsions:
REMARK  status: ('A' for Active; 'I' for Inactive)
REMARK    1  A    between atoms: C2_2  and  C4_4
REMARK    2  A    between atoms: C4_4  and  C5_6
REMARK       I    between atoms: C5_6  and  N1_8
REMARK    3  A    between atoms: N1_8  and  C6_10
REMARK    4  A    between atoms: C7_11  and  C8_12
REMARK       I    between atoms: N2_15  and  C9_16
REMARK    5  A    between atoms: C9_16  and  C10_18
ROOT
HETATM    1  C6  UNL     1       5.909   5.119  20.489  1.00  0.00     0.052 C
HETATM    2  C7  UNL     1       5.041   5.299  21.496  1.00  0.00     0.138 C
HETATM    3  N2  UNL     1       5.094   6.590  22.161  1.00  0.00    -0.309 N
HETATM    4  C9  UNL     1       3.941   7.346  22.401  1.00  0.00     0.228 C
HETATM    5  O4  UNL     1       2.816   7.012  21.997  1.00  0.00    -0.273 OA
HETATM    6  C14 UNL     1       6.379   7.154  22.532  1.00  0.00     0.153 C
HETATM    7  C15 UNL     1       7.401   6.909  21.462  1.00  0.00     0.137 C
HETATM    8  C16 UNL     1       6.915   6.195  20.248  1.00  0.00     0.072 C
HETATM    9  C17 UNL     1       6.461   7.435  19.576  1.00  0.00     0.153 C
HETATM   10  S1  UNL     1       7.730   8.333  20.457  1.00  0.00     0.151 S
HETATM   11  O5  UNL     1       9.053   8.337  19.780  1.00  0.00    -0.227 OA
HETATM   12  O6  UNL     1       7.283   9.630  21.037  1.00  0.00    -0.227 OA
ENDROOT
BRANCH   1  13
HETATM   13  N1  UNL     1       5.881   3.924  19.746  1.00  0.00    -0.327 N
HETATM   14  C5  UNL     1       6.395   2.655  20.127  1.00  0.00     0.236 C
HETATM   15  O1  UNL     1       6.949   2.463  21.208  1.00  0.00    -0.272 OA
ATOM     16  H1  UNL     1       5.442   3.976  18.827  1.00  0.00     0.168 HD
BRANCH  14  17
HETATM   17  C4  UNL     1       6.287   1.467  19.217  1.00  0.00     0.153 C
HETATM   18 BR1  UNL     1       4.558   1.448  18.318  1.00  0.00    -0.081 Br
BRANCH  17  19
HETATM   19  C2  UNL     1       7.328   1.429  18.147  1.00  0.00     0.001 C
HETATM   20  C1  UNL     1       8.610   0.770  18.650  1.00  0.00     0.011 C
HETATM   21  C3  UNL     1       6.937   0.704  16.892  1.00  0.00     0.011 C
ENDBRANCH  17  19
ENDBRANCH  14  17
ENDBRANCH   1  13
BRANCH   2  22
HETATM   22  C8  UNL     1       4.065   4.334  21.886  1.00  0.00     0.229 C
HETATM   23  O2  UNL     1       3.863   3.811  22.981  1.00  0.00    -0.643 OA
HETATM   24  O3  UNL     1       3.143   3.863  20.903  1.00  0.00    -0.643 OA
ENDBRANCH   2  22
BRANCH   4  25
HETATM   25  C10 UNL     1       3.976   8.628  23.174  1.00  0.00     0.078 C
HETATM   26  C11 UNL     1       3.861   8.452  24.685  1.00  0.00     0.014 C
HETATM   27  C12 UNL     1       2.936   9.654  24.679  1.00  0.00     0.002 C
HETATM   28  C13 UNL     1       2.644   9.345  23.227  1.00  0.00     0.014 C
ENDBRANCH   4  25
TORSDOF 5
ENDMDL