MODEL 5
REMARK VINA RESULT: -8.240834565      2.477      4.035
REMARK  5 active torsions:
REMARK  status: ('A' for Active; 'I' for Inactive)
REMARK    1  A    between atoms: C2_2  and  C4_4
REMARK    2  A    between atoms: C5_5  and  C6_6
REMARK       I    between atoms: C6_6  and  N1_8
REMARK    3  A    between atoms: C7_9  and  C8_10
REMARK       I    between atoms: C8_10  and  N2_12
REMARK    4  A    between atoms: C13_21  and  C14_22
REMARK       I    between atoms: C14_22  and  N4_24
REMARK    5  A    between atoms: N4_24  and  C15_26
ROOT
HETATM    1  C6  UNL     1       3.587   5.453  21.622  1.00  0.00     0.246 C
HETATM    2  O1  UNL     1       3.945   5.509  22.815  1.00  0.00    -0.268 OA
HETATM    3  N1  UNL     1       4.320   6.192  20.612  1.00  0.00    -0.296 N
HETATM    4  C7  UNL     1       5.489   7.014  20.751  1.00  0.00     0.284 C
HETATM    5  N3  UNL     1       5.441   7.904  19.582  1.00  0.00    -0.329 N
ATOM      6  H3  UNL     1       6.138   8.608  19.340  1.00  0.00     0.165 HD
HETATM    7  C12 UNL     1       4.272   7.619  18.852  1.00  0.00     0.252 C
HETATM    8  O3  UNL     1       3.643   8.379  18.067  1.00  0.00    -0.271 OA
HETATM    9  C13 UNL     1       3.929   6.202  19.210  1.00  0.00     0.274 C
ENDROOT
BRANCH   9  10
HETATM   10  C14 UNL     1       4.789   5.327  18.393  1.00  0.00     0.250 C
HETATM   11  O4  UNL     1       5.434   5.899  17.440  1.00  0.00    -0.271 OA
HETATM   12  N4  UNL     1       4.926   3.935  18.618  1.00  0.00    -0.354 N
ATOM     13  H4  UNL     1       4.400   3.515  19.384  1.00  0.00     0.163 HD
BRANCH  12  14
HETATM   14  C15 UNL     1       5.760   3.093  17.832  1.00  0.00     0.092 C
HETATM   15  C16 UNL     1       7.234   3.430  17.991  1.00  0.00     0.009 C
HETATM   16  C17 UNL     1       7.793   3.046  19.320  1.00  0.00     0.011 C
HETATM   17  C21 UNL     1       7.970   2.653  16.923  1.00  0.00     0.011 C
HETATM   18  C18 UNL     1       7.631   1.550  19.533  1.00  0.00    -0.013 C
HETATM   19  C19 UNL     1       8.377   0.818  18.454  1.00  0.00     0.009 C
HETATM   20  C24 UNL     1       6.168   1.246  19.470  1.00  0.00     0.011 C
HETATM   21  C20 UNL     1       7.761   1.152  17.122  1.00  0.00    -0.013 C
HETATM   22  C22 UNL     1       6.280   0.846  17.059  1.00  0.00     0.011 C
HETATM   23  C23 UNL     1       5.583   1.655  18.129  1.00  0.00     0.009 C
ENDBRANCH  12  14
ENDBRANCH   9  10
BRANCH   1  24
HETATM   24  C5  UNL     1       2.437   4.643  21.264  1.00  0.00     0.070 C
HETATM   25  C4  UNL     1       2.332   3.363  21.219  1.00  0.00    -0.017 C
BRANCH  25  26
HETATM   26  C2  UNL     1       3.297   2.314  21.503  1.00  0.00    -0.000 C
HETATM   27  C1  UNL     1       2.930   1.048  20.717  1.00  0.00     0.013 C
HETATM   28  C3  UNL     1       3.197   1.998  23.002  1.00  0.00     0.013 C
ENDBRANCH  25  26
ENDBRANCH   1  24
BRANCH   4  29
HETATM   29  C8  UNL     1       5.487   7.914  21.921  1.00  0.00     0.263 C
HETATM   30  O2  UNL     1       4.493   8.633  22.191  1.00  0.00    -0.269 OA
HETATM   31  N2  UNL     1       6.628   7.973  22.756  1.00  0.00    -0.343 N
HETATM   32  C9  UNL     1       6.961   8.718  23.978  1.00  0.00     0.164 C
HETATM   33  C11 UNL     1       7.973   7.406  22.855  1.00  0.00     0.164 C
HETATM   34  C10 UNL     1       8.406   8.691  23.523  1.00  0.00     0.206 C
HETATM   35  F1  UNL     1       8.713   9.709  22.662  1.00  0.00    -0.246 F
ENDBRANCH   4  29
TORSDOF 5
ENDMDL