MODEL 2
REMARK VINA RESULT: -9.545890326      3.505      8.217
REMARK  5 active torsions:
REMARK  status: ('A' for Active; 'I' for Inactive)
REMARK       I    between atoms: C2_2  and  N1_4
REMARK    1  A    between atoms: N1_4  and  C3_6
REMARK    2  A    between atoms: C3_6  and  C4_7
REMARK       I    between atoms: C4_7  and  N2_9
REMARK    3  A    between atoms: C8_13  and  C9_14
REMARK       I    between atoms: C9_14  and  N3_16
REMARK    4  A    between atoms: C16_23  and  C17_24
REMARK    5  A    between atoms: C17_24  and  N4_25
REMARK       I    between atoms: N4_25  and  C18_27
REMARK       I    between atoms: C18_27  and  N5_29
ROOT
HETATM    1  C9  UNL     1       6.089   6.564  19.942  1.00  0.00     0.226 C
HETATM    2  O3  UNL     1       6.865   6.385  18.936  1.00  0.00    -0.273 OA
HETATM    3  N3  UNL     1       4.960   5.778  20.053  1.00  0.00    -0.345 N
HETATM    4  C10 UNL     1       3.961   5.869  21.144  1.00  0.00     0.127 C
HETATM    5  C11 UNL     1       3.762   4.583  21.862  1.00  0.00     0.028 C
HETATM    6  C12 UNL     1       3.836   3.352  21.031  1.00  0.00    -0.044 C
HETATM    7  C13 UNL     1       2.437   2.923  20.608  1.00  0.00     0.015 C
HETATM    8  C14 UNL     1       4.354   2.227  21.939  1.00  0.00     0.015 C
HETATM    9  C15 UNL     1       4.776   3.443  19.877  1.00  0.00     0.035 C
HETATM   10  C16 UNL     1       4.604   4.752  19.100  1.00  0.00     0.105 C
ENDROOT
BRANCH   1  11
HETATM   11  C8  UNL     1       6.559   7.643  20.867  1.00  0.00     0.096 C
HETATM   12  C7  UNL     1       6.930   8.889  20.154  1.00  0.00     0.017 C
HETATM   13  C6  UNL     1       7.947   9.752  20.823  1.00  0.00     0.021 C
HETATM   14  C5  UNL     1       9.065   9.011  21.490  1.00  0.00     0.126 C
HETATM   15  N2  UNL     1       8.496   8.013  22.364  1.00  0.00    -0.350 N
HETATM   16  C4  UNL     1       8.823   7.950  23.759  1.00  0.00     0.237 C
HETATM   17  C23 UNL     1       7.570   7.061  21.795  1.00  0.00     0.139 C
HETATM   18  O2  UNL     1       8.297   7.060  24.474  1.00  0.00    -0.272 OA
BRANCH  16  19
HETATM   19  C3  UNL     1       9.765   8.921  24.349  1.00  0.00     0.225 C
BRANCH  19  20
HETATM   20  N1  UNL     1      11.083   8.408  24.583  1.00  0.00    -0.353 N
HETATM   21  C2  UNL     1      11.517   7.810  25.784  1.00  0.00     0.213 C
HETATM   22  C1  UNL     1      12.892   7.315  25.933  1.00  0.00     0.117 C
HETATM   23  O1  UNL     1      10.717   7.701  26.737  1.00  0.00    -0.274 OA
ATOM     24  H1  UNL     1      11.759   8.481  23.822  1.00  0.00     0.162 HD
ENDBRANCH  19  20
ENDBRANCH  16  19
ENDBRANCH   1  11
BRANCH  10  25
HETATM   25  C17 UNL     1       5.407   4.649  17.870  1.00  0.00     0.149 C
BRANCH  25  26
HETATM   26  N4  UNL     1       6.507   3.701  18.117  1.00  0.00    -0.341 N
HETATM   27  C18 UNL     1       6.695   2.615  17.241  1.00  0.00     0.318 C
HETATM   28  O4  UNL     1       5.908   2.479  16.258  1.00  0.00    -0.247 OA
HETATM   29  N5  UNL     1       7.748   1.665  17.433  1.00  0.00    -0.331 N
HETATM   30  C19 UNL     1       8.694   1.735  18.520  1.00  0.00     0.130 C
HETATM   31  C22 UNL     1       8.010   0.523  16.582  1.00  0.00     0.164 C
HETATM   32  C20 UNL     1       9.849   0.878  18.040  1.00  0.00     0.058 C
HETATM   33  C21 UNL     1       9.147  -0.181  17.247  1.00  0.00     0.189 C
HETATM   34  F1  UNL     1       9.953  -0.730  16.269  1.00  0.00    -0.248 F
ATOM     35  H4  UNL     1       7.127   3.830  18.915  1.00  0.00     0.164 HD
ENDBRANCH  25  26
ENDBRANCH  10  25
TORSDOF 5
ENDMDL