MODEL 5
REMARK VINA RESULT: -7.767000121      0.772      1.245
REMARK  8 active torsions:
REMARK  status: ('A' for Active; 'I' for Inactive)
REMARK    1  A    between atoms: C2_2  and  N1_3
REMARK    2  A    between atoms: C2_2  and  C8_12
REMARK       I    between atoms: N1_3  and  C3_5
REMARK    3  A    between atoms: C3_5  and  O2_7
REMARK    4  A    between atoms: O2_7  and  C4_8
REMARK       I    between atoms: C8_12  and  N2_14
REMARK    5  A    between atoms: C15_21  and  C16_22
REMARK    6  A    between atoms: C16_22  and  O5_24
REMARK    7  A    between atoms: O5_24  and  C17_25
REMARK    8  A    between atoms: C17_25  and  C18_26
ROOT
HETATM    1  C8  UNL     1       4.447   8.978  22.643  1.00  0.00     0.243 C
HETATM    2  O3  UNL     1       3.395   9.416  22.080  1.00  0.00    -0.271 OA
HETATM    3  N2  UNL     1       5.691   9.035  21.975  1.00  0.00    -0.330 N
HETATM    4  C9  UNL     1       5.905   9.615  20.668  1.00  0.00     0.093 A
HETATM    5  C10 UNL     1       5.592   8.780  19.482  1.00  0.00     0.033 A
HETATM    6  C11 UNL     1       7.000   8.843  20.016  1.00  0.00     0.021 A
HETATM    7  C12 UNL     1       7.452   7.875  21.085  1.00  0.00    -0.012 C
HETATM    8  C13 UNL     1       8.948   7.790  21.005  1.00  0.00     0.018 C
HETATM    9  C14 UNL     1       6.866   6.513  20.954  1.00  0.00     0.018 C
HETATM   10  C15 UNL     1       6.958   8.510  22.382  1.00  0.00     0.195 C
ENDROOT
BRANCH   1  11
HETATM   11  C2  UNL     1       4.293   8.409  24.014  1.00  0.00     0.175 C
HETATM   12  C1  UNL     1       3.871   9.532  24.973  1.00  0.00     0.042 C
BRANCH  11  13
HETATM   13  N1  UNL     1       3.156   7.510  23.987  1.00  0.00    -0.324 N
HETATM   14  C3  UNL     1       3.307   6.141  23.657  1.00  0.00     0.362 C
HETATM   15  O1  UNL     1       4.468   5.741  23.399  1.00  0.00    -0.238 OA
ATOM     16  H1  UNL     1       2.229   7.871  24.211  1.00  0.00     0.165 HD
BRANCH  14  17
HETATM   17  O2  UNL     1       2.282   5.220  23.594  1.00  0.00    -0.294 OA
BRANCH  17  18
HETATM   18  C4  UNL     1       1.390   5.282  22.496  1.00  0.00     0.061 C
HETATM   19  C5  UNL     1       0.144   6.011  22.950  1.00  0.00     0.046 C
HETATM   20  C6  UNL     1       1.955   5.974  21.308  1.00  0.00     0.046 C
HETATM   21  C7  UNL     1       0.969   3.882  22.079  1.00  0.00     0.046 C
ENDBRANCH  17  18
ENDBRANCH  14  17
ENDBRANCH  11  13
ENDBRANCH   1  11
BRANCH  10  22
HETATM   22  C16 UNL     1       7.919   9.482  22.913  1.00  0.00     0.283 C
HETATM   23  O4  UNL     1       8.349  10.466  22.271  1.00  0.00    -0.263 OA
BRANCH  22  24
HETATM   24  O5  UNL     1       8.370   9.293  24.204  1.00  0.00    -0.315 OA
BRANCH  24  25
HETATM   25  C17 UNL     1       8.293   8.112  24.953  1.00  0.00     0.217 C
BRANCH  25  26
HETATM   26  C18 UNL     1       9.624   7.855  25.558  1.00  0.00    -0.034 A
HETATM   27  C19 UNL     1       9.709   7.057  26.661  1.00  0.00     0.012 A
HETATM   28  C20 UNL     1      10.905   6.806  27.250  1.00  0.00     0.043 A
HETATM   29  C21 UNL     1      12.082   7.344  26.765  1.00  0.00     0.116 A
HETATM   30  F1  UNL     1      13.267   7.090  27.364  1.00  0.00    -0.206 F
HETATM   31  C22 UNL     1      11.998   8.158  25.641  1.00  0.00     0.043 A
HETATM   32  C23 UNL     1      10.778   8.398  25.062  1.00  0.00     0.012 A
ENDBRANCH  25  26
ENDBRANCH  24  25
ENDBRANCH  22  24
ENDBRANCH  10  22
TORSDOF 8
ENDMDL