MODEL 3
REMARK VINA RESULT: -6.646788706      1.505      2.019
REMARK  7 active torsions:
REMARK  status: ('A' for Active; 'I' for Inactive)
REMARK    1  A    between atoms: C3_3  and  C4_4
REMARK    2  A    between atoms: C4_4  and  C6_7
REMARK    3  A    between atoms: C6_7  and  C7_9
REMARK    4  A    between atoms: C7_9  and  N1_10
REMARK    5  A    between atoms: C7_9  and  C11_17
REMARK       I    between atoms: N1_10  and  C8_12
REMARK    6  A    between atoms: C8_12  and  O3_14
REMARK    7  A    between atoms: O3_14  and  C9_15
ROOT
HETATM    1  C1  UNL     1       1.744   8.022  18.816  1.00  0.00     0.112 C
HETATM    2  C2  UNL     1       2.208   6.967  19.719  1.00  0.00    -0.109 C
HETATM    3  C3  UNL     1       2.587   6.108  20.476  1.00  0.00    -0.077 C
ENDROOT
BRANCH   3   4
HETATM    4  C4  UNL     1       3.020   5.121  21.412  1.00  0.00     0.139 C
HETATM    5  C5  UNL     1       1.983   4.915  22.529  1.00  0.00     0.050 C
HETATM    6 BR1  UNL     1       2.986   3.394  20.445  1.00  0.00    -0.063 Br
BRANCH   4   7
HETATM    7  C6  UNL     1       4.364   5.213  21.961  1.00  0.00     0.183 C
HETATM    8  O1  UNL     1       4.548   4.581  23.000  1.00  0.00    -0.293 OA
BRANCH   7   9
HETATM    9  C7  UNL     1       5.461   5.959  21.392  1.00  0.00     0.188 C
BRANCH   9  10
HETATM   10  N1  UNL     1       6.585   4.964  21.324  1.00  0.00    -0.323 N
HETATM   11  C8  UNL     1       6.959   4.353  20.114  1.00  0.00     0.361 C
HETATM   12  O2  UNL     1       6.326   4.659  19.072  1.00  0.00    -0.238 OA
ATOM     13  H1  UNL     1       7.089   4.726  22.178  1.00  0.00     0.165 HD
BRANCH  11  14
HETATM   14  O3  UNL     1       7.985   3.433  20.001  1.00  0.00    -0.304 OA
BRANCH  14  15
HETATM   15  C9  UNL     1       7.710   2.053  19.815  1.00  0.00     0.176 C
HETATM   16  C10 UNL     1       8.795   1.336  19.077  1.00  0.00     0.034 C
ENDBRANCH  14  15
ENDBRANCH  11  14
ENDBRANCH   9  10
BRANCH   9  17
HETATM   17  C11 UNL     1       5.973   7.180  22.091  1.00  0.00     0.159 C
HETATM   18  O4  UNL     1       7.203   6.929  22.639  1.00  0.00    -0.350 OA
HETATM   19  C12 UNL     1       7.237   7.380  23.945  1.00  0.00     0.290 A
HETATM   20  O5  UNL     1       6.410   8.459  24.318  1.00  0.00    -0.348 OA
HETATM   21  C13 UNL     1       7.689   8.777  23.952  1.00  0.00     0.188 A
HETATM   22  C14 UNL     1       8.061   9.242  22.601  1.00  0.00     0.046 C
HETATM   23  C15 UNL     1       9.096   8.446  21.920  1.00  0.00    -0.023 C
HETATM   24  C18 UNL     1       7.023   9.436  21.603  1.00  0.00     0.005 C
HETATM   25  C16 UNL     1       9.010   8.675  20.627  1.00  0.00    -0.030 C
HETATM   26  C17 UNL     1       7.897   9.651  20.347  1.00  0.00     0.032 C
HETATM   27  C19 UNL     1       6.005   8.441  21.297  1.00  0.00     0.018 C
HETATM   28  C20 UNL     1       4.640   9.156  21.394  1.00  0.00     0.013 C
ENDBRANCH   9  17
ENDBRANCH   7   9
ENDBRANCH   4   7
ENDBRANCH   3   4
TORSDOF 7
ENDMDL