MODEL 4
REMARK VINA RESULT: -7.399618237      3.453      6.130
REMARK  6 active torsions:
REMARK  status: ('A' for Active; 'I' for Inactive)
REMARK    1  A    between atoms: O1_2  and  C2_3
REMARK    2  A    between atoms: C14_15  and  C15_16
REMARK    3  A    between atoms: C15_16  and  O2_17
REMARK       I    between atoms: N1_20  and  C17_21
REMARK    4  A    between atoms: C17_21  and  C18_23
REMARK    5  A    between atoms: C18_23  and  C19_24
REMARK    6  A    between atoms: C19_24  and  N2_25
ROOT
HETATM    1  C2  UNL     1       9.195   0.341  17.825  1.00  0.00     0.069 A
HETATM    2  C3  UNL     1       9.107   1.146  18.939  1.00  0.00     0.044 A
HETATM    3  C4  UNL     1       7.952   1.934  19.120  1.00  0.00    -0.045 A
HETATM    4  C5  UNL     1       6.969   1.870  18.188  1.00  0.00    -0.021 A
HETATM    5  C6  UNL     1       7.016   1.102  17.095  1.00  0.00    -0.037 A
HETATM    6  C7  UNL     1       8.170   0.308  16.904  1.00  0.00     0.045 A
HETATM    7  C8  UNL     1       5.759   1.320  16.324  1.00  0.00    -0.005 C
HETATM    8  C9  UNL     1       5.264  -0.041  15.940  1.00  0.00     0.015 C
HETATM    9  C10 UNL     1       5.601  -0.296  14.492  1.00  0.00     0.001 C
HETATM   10  C11 UNL     1       4.775   0.721  13.718  1.00  0.00     0.000 C
HETATM   11  C12 UNL     1       5.484   2.041  13.892  1.00  0.00     0.001 C
HETATM   12  C13 UNL     1       6.073   2.256  15.231  1.00  0.00     0.015 C
HETATM   13  C14 UNL     1       4.842   1.825  17.430  1.00  0.00     0.050 C
HETATM   14  C16 UNL     1       5.663   2.640  18.285  1.00  0.00     0.128 C
HETATM   15  N1  UNL     1       5.465   2.788  19.699  1.00  0.00    -0.342 N
HETATM   16  C17 UNL     1       4.472   2.307  20.497  1.00  0.00     0.222 C
HETATM   17  O3  UNL     1       3.529   1.580  20.123  1.00  0.00    -0.273 OA
HETATM   18  C24 UNL     1       6.575   3.525  20.346  1.00  0.00     0.131 C
HETATM   19  C25 UNL     1       7.875   2.764  20.332  1.00  0.00     0.059 C
ENDROOT
BRANCH  16  20
HETATM   20  C18 UNL     1       4.444   2.643  21.972  1.00  0.00     0.122 C
BRANCH  20  21
HETATM   21  C19 UNL     1       3.276   3.554  22.258  1.00  0.00     0.126 C
BRANCH  21  22
HETATM   22  N2  UNL     1       3.513   4.912  21.895  1.00  0.00    -0.408 N
HETATM   23  C20 UNL     1       2.381   5.672  21.503  1.00  0.00     0.143 C
HETATM   24  C21 UNL     1       1.867   6.595  22.585  1.00  0.00     0.187 C
HETATM   25  O4  UNL     1       2.929   7.447  22.907  1.00  0.00    -0.388 OA
HETATM   26  C22 UNL     1       3.879   6.695  23.554  1.00  0.00     0.187 C
HETATM   27  C23 UNL     1       4.461   5.594  22.719  1.00  0.00     0.143 C
ENDBRANCH  21  22
ENDBRANCH  20  21
ENDBRANCH  16  20
BRANCH  13  28
HETATM   28  C15 UNL     1       3.569   2.384  16.903  1.00  0.00     0.172 C
BRANCH  28  29
HETATM   29  O2  UNL     1       2.401   1.971  17.460  1.00  0.00    -0.400 OA
ATOM     30  H2  UNL     1       1.616   1.982  16.925  1.00  0.00     0.209 HD
ENDBRANCH  28  29
ENDBRANCH  13  28
BRANCH   1  31
HETATM   31  O1  UNL     1      10.301  -0.471  17.567  1.00  0.00    -0.356 OA
HETATM   32  C1  UNL     1      10.070  -1.640  16.782  1.00  0.00     0.210 C
ENDBRANCH   1  31
TORSDOF 6
ENDMDL