MODEL 4
REMARK VINA RESULT: -7.105338906      0.797      1.170
REMARK  6 active torsions:
REMARK  status: ('A' for Active; 'I' for Inactive)
REMARK    1  A    between atoms: C2_2  and  O1_3
REMARK    2  A    between atoms: O1_3  and  C3_4
REMARK    3  A    between atoms: C3_4  and  C4_6
REMARK    4  A    between atoms: C4_6  and  C5_7
REMARK    5  A    between atoms: N3_23  and  C15_24
REMARK    6  A    between atoms: C15_24  and  C16_25
ROOT
HETATM    1  C4  UNL     1       7.702   8.062  21.780  1.00  0.00     0.051 C
HETATM    2  C7  UNL     1       7.614   6.639  21.377  1.00  0.00     0.051 C
HETATM    3  C8  UNL     1       6.359   6.239  20.636  1.00  0.00     0.131 C
HETATM    4  C9  UNL     1       5.309   7.329  20.794  1.00  0.00     0.030 A
HETATM    5  N1  UNL     1       4.633   7.744  19.805  1.00  0.00    -0.337 N
ATOM      6  H1  UNL     1       4.815   7.327  18.892  1.00  0.00     0.168 HD
HETATM    7  C10 UNL     1       3.635   8.754  19.888  1.00  0.00     0.178 A
HETATM    8  S1  UNL     1       2.772   9.295  18.614  1.00  0.00    -0.040 SA
HETATM    9  N2  UNL     1       3.388   9.316  21.167  1.00  0.00    -0.303 N
ATOM     10  H2  UNL     1       2.685  10.045  21.282  1.00  0.00     0.171 HD
HETATM   11  C11 UNL     1       4.125   8.856  22.273  1.00  0.00     0.238 A
HETATM   12  O3  UNL     1       3.848   9.320  23.400  1.00  0.00    -0.272 OA
HETATM   13  C12 UNL     1       5.211   7.848  22.171  1.00  0.00     0.084 A
HETATM   14  C13 UNL     1       5.041   6.672  23.074  1.00  0.00     0.045 C
HETATM   15  C14 UNL     1       4.951   5.352  22.404  1.00  0.00     0.124 C
HETATM   16  N3  UNL     1       5.807   5.124  21.298  1.00  0.00    -0.383 N
HETATM   17  C22 UNL     1       6.497   8.617  22.445  1.00  0.00     0.045 C
ENDROOT
BRANCH  16  18
HETATM   18  C15 UNL     1       5.363   4.073  20.478  1.00  0.00     0.063 C
BRANCH  18  19
HETATM   19  C16 UNL     1       6.218   3.542  19.381  1.00  0.00     0.024 C
HETATM   20  C17 UNL     1       5.586   3.220  18.078  1.00  0.00     0.013 C
HETATM   21  C18 UNL     1       6.629   2.665  17.127  1.00  0.00     0.038 C
HETATM   22  C19 UNL     1       7.476   1.578  17.670  1.00  0.00     0.170 C
HETATM   23  F1  UNL     1       6.812   0.366  17.710  1.00  0.00    -0.249 F
HETATM   24  C20 UNL     1       7.978   1.872  19.072  1.00  0.00     0.038 C
HETATM   25  C21 UNL     1       6.797   2.212  19.943  1.00  0.00     0.013 C
ENDBRANCH  18  19
ENDBRANCH  16  18
BRANCH   1  26
HETATM   26  C3  UNL     1       8.068   8.847  20.540  1.00  0.00     0.267 C
HETATM   27  O2  UNL     1       9.132   8.625  19.911  1.00  0.00    -0.264 OA
BRANCH  26  28
HETATM   28  O1  UNL     1       7.243   9.846  20.044  1.00  0.00    -0.321 OA
BRANCH  28  29
HETATM   29  C2  UNL     1       7.194  10.145  18.647  1.00  0.00     0.174 C
HETATM   30  C1  UNL     1       6.129  11.162  18.385  1.00  0.00     0.034 C
ENDBRANCH  28  29
ENDBRANCH  26  28
ENDBRANCH   1  26
BRANCH   1  31
HETATM   31  C5  UNL     1       8.956   8.197  22.656  1.00  0.00     0.015 C
HETATM   32  C6  UNL     1       8.898   9.324  23.624  1.00  0.00     0.006 C
ENDBRANCH   1  31
TORSDOF 6
ENDMDL