MODEL 3
REMARK VINA RESULT: -7.142158765      3.903      7.418
REMARK  5 active torsions:
REMARK  status: ('A' for Active; 'I' for Inactive)
REMARK    1  A    between atoms: C2_2  and  N1_3
REMARK       I    between atoms: N1_3  and  C3_5
REMARK    2  A    between atoms: C3_5  and  C4_7
REMARK    3  A    between atoms: C10_14  and  C11_15
REMARK    4  A    between atoms: C11_15  and  C12_16
REMARK    5  A    between atoms: C18_25  and  O5_26
ROOT
HETATM    1  C4  UNL     1       4.926   3.179  19.467  1.00  0.00     0.063 C
HETATM    2  C5  UNL     1       3.485   3.032  18.952  1.00  0.00     0.028 C
HETATM    3  C6  UNL     1       4.876   2.757  20.918  1.00  0.00     0.195 C
HETATM    4  O2  UNL     1       4.192   3.797  21.624  1.00  0.00    -0.346 OA
HETATM    5  C7  UNL     1       4.718   5.090  21.502  1.00  0.00     0.109 A
HETATM    6  C8  UNL     1       5.359   5.481  20.348  1.00  0.00    -0.020 A
HETATM    7  C9  UNL     1       5.878   6.774  20.245  1.00  0.00     0.018 A
HETATM    8  C10 UNL     1       5.780   7.699  21.258  1.00  0.00    -0.036 A
HETATM    9  C17 UNL     1       5.139   7.303  22.412  1.00  0.00     0.053 A
HETATM   10 BR1  UNL     1       4.954   8.504  23.861  1.00  0.00    -0.047 Br
HETATM   11  C18 UNL     1       4.618   6.013  22.520  1.00  0.00     0.120 A
HETATM   12  C20 UNL     1       5.492   4.528  19.224  1.00  0.00     0.062 C
ENDROOT
BRANCH   8  13
HETATM   13  C11 UNL     1       6.356   9.057  21.082  1.00  0.00     0.055 C
BRANCH  13  14
HETATM   14  C12 UNL     1       7.254   9.185  19.900  1.00  0.00     0.095 C
HETATM   15  C13 UNL     1       8.520   9.873  20.264  1.00  0.00     0.263 C
HETATM   16  O3  UNL     1       9.593   9.352  20.696  1.00  0.00    -0.265 OA
HETATM   17  O4  UNL     1       8.330  11.235  20.045  1.00  0.00    -0.321 OA
HETATM   18  C14 UNL     1       7.066  11.502  19.518  1.00  0.00     0.183 C
HETATM   19  C15 UNL     1       6.633  10.183  18.947  1.00  0.00     0.020 C
HETATM   20  C16 UNL     1       7.196  10.070  17.555  1.00  0.00     0.013 C
ENDBRANCH  13  14
ENDBRANCH   8  13
BRANCH  11  21
HETATM   21  O5  UNL     1       3.967   5.613  23.688  1.00  0.00    -0.352 OA
HETATM   22  C19 UNL     1       2.542   5.774  23.737  1.00  0.00     0.210 C
ENDBRANCH  11  21
BRANCH   1  23
HETATM   23  C3  UNL     1       5.748   2.179  18.692  1.00  0.00     0.228 C
HETATM   24  N1  UNL     1       7.116   2.009  19.041  1.00  0.00    -0.361 N
ATOM     25  H1  UNL     1       7.516   2.558  19.802  1.00  0.00     0.162 HD
HETATM   26  O1  UNL     1       5.272   1.497  17.756  1.00  0.00    -0.273 OA
BRANCH  24  27
HETATM   27  C2  UNL     1       7.957   1.051  18.315  1.00  0.00     0.118 C
HETATM   28  C1  UNL     1       9.352   0.999  18.893  1.00  0.00     0.026 C
ENDBRANCH  24  27
ENDBRANCH   1  23
TORSDOF 5
ENDMDL