MODEL 1
REMARK VINA RESULT: -7.532229076      0.000      0.000
REMARK  5 active torsions:
REMARK  status: ('A' for Active; 'I' for Inactive)
REMARK    1  A    between atoms: C2_2  and  C3_3
REMARK    2  A    between atoms: N2_8  and  C6_9
REMARK    3  A    between atoms: C6_9  and  C7_10
REMARK    4  A    between atoms: C11_14  and  C12_16
REMARK       I    between atoms: C12_16  and  N3_18
REMARK    5  A    between atoms: N3_18  and  C13_20
REMARK       I    between atoms: N5_26  and  C18_27
ROOT
HETATM    1  C13 UNL     1       3.290   3.622  22.137  1.00  0.00     0.123 C
HETATM    2  C14 UNL     1       2.329   3.852  21.035  1.00  0.00     0.091 C
HETATM    3  N4  UNL     1       1.588   4.049  20.177  1.00  0.00    -0.195 NA
HETATM    4  C15 UNL     1       4.166   2.456  21.787  1.00  0.00     0.048 C
HETATM    5  C16 UNL     1       3.830   1.205  22.554  1.00  0.00     0.023 C
HETATM    6  C17 UNL     1       2.456   0.680  22.220  1.00  0.00     0.126 C
HETATM    7  N5  UNL     1       1.514   1.302  23.109  1.00  0.00    -0.352 N
HETATM    8  C18 UNL     1       0.795   0.423  23.942  1.00  0.00     0.215 C
HETATM    9  C19 UNL     1       1.020  -1.045  23.876  1.00  0.00     0.117 C
HETATM   10  O2  UNL     1      -0.071   0.828  24.781  1.00  0.00    -0.274 OA
HETATM   11  C20 UNL     1       1.225   2.701  23.245  1.00  0.00     0.129 C
HETATM   12  C21 UNL     1       2.518   3.450  23.403  1.00  0.00     0.066 C
ENDROOT
BRANCH   1  13
HETATM   13  N3  UNL     1       4.143   4.806  22.240  1.00  0.00    -0.337 N
HETATM   14  C12 UNL     1       3.624   6.075  22.588  1.00  0.00     0.243 C
HETATM   15  O1  UNL     1       2.395   6.188  22.815  1.00  0.00    -0.271 OA
ATOM     16  H3  UNL     1       5.141   4.713  22.055  1.00  0.00     0.164 HD
BRANCH  14  17
HETATM   17  C11 UNL     1       4.509   7.255  22.685  1.00  0.00     0.127 C
HETATM   18  C10 UNL     1       5.006   7.511  24.083  1.00  0.00     0.095 C
HETATM   19  C5  UNL     1       6.407   7.980  23.907  1.00  0.00     0.036 A
HETATM   20  C4  UNL     1       6.808   7.774  22.614  1.00  0.00    -0.007 A
HETATM   21  N1  UNL     1       7.430   8.535  24.557  1.00  0.00    -0.302 N
HETATM   22  C3  UNL     1       8.117   8.241  22.559  1.00  0.00     0.036 A
HETATM   23  C22 UNL     1       5.715   7.149  21.806  1.00  0.00     0.078 C
HETATM   24  N2  UNL     1       8.479   8.706  23.767  1.00  0.00    -0.295 N
ATOM     25  H1  UNL     1       7.407   8.797  25.543  1.00  0.00     0.186 HD
HETATM   26 CL1  UNL     1       3.566   8.681  22.128  1.00  0.00    -0.108 Cl
BRANCH  22  27
HETATM   27  C2  UNL     1       8.924   8.195  21.305  1.00  0.00     0.055 C
HETATM   28  C1  UNL     1       8.447   9.361  20.433  1.00  0.00     0.011 C
ENDBRANCH  22  27
BRANCH  24  29
HETATM   29  C6  UNL     1       9.764   9.278  24.122  1.00  0.00     0.153 C
BRANCH  29  30
HETATM   30  C7  UNL     1      10.660   8.263  24.790  1.00  0.00     0.005 A
HETATM   31  C8  UNL     1      11.397   8.825  26.008  1.00  0.00     0.007 A
HETATM   32  C9  UNL     1      10.386   7.726  26.125  1.00  0.00     0.007 A
ENDBRANCH  29  30
ENDBRANCH  24  29
ENDBRANCH  14  17
ENDBRANCH   1  13
TORSDOF 5
ENDMDL