MODEL 3
REMARK VINA RESULT: -7.085377894      0.890      1.079
REMARK  10 active torsions:
REMARK  status: ('A' for Active; 'I' for Inactive)
REMARK    1  A    between atoms: C2_2  and  O1_5
REMARK    2  A    between atoms: O1_5  and  C5_6
REMARK    3  A    between atoms: C5_6  and  C6_7
REMARK    4  A    between atoms: C6_7  and  C7_8
REMARK    5  A    between atoms: C7_8  and  C8_9
REMARK    6  A    between atoms: C12_16  and  C13_17
REMARK    7  A    between atoms: C13_17  and  O3_19
REMARK    8  A    between atoms: O3_19  and  C14_20
REMARK    9  A    between atoms: C14_20  and  C15_21
REMARK       I    between atoms: C15_21  and  N2_23
REMARK   10  A    between atoms: N2_23  and  C16_25
ROOT
HETATM    1  C8  UNL     1       9.059   9.149  23.324  1.00  0.00     0.103 A
HETATM    2  N1  UNL     1      10.403   9.291  23.538  1.00  0.00    -0.357 N
ATOM      3  H1  UNL     1      10.973   9.810  22.871  1.00  0.00     0.166 HD
HETATM    4  C9  UNL     1      10.971   8.749  24.624  1.00  0.00     0.108 A
HETATM    5  C10 UNL     1      10.255   8.040  25.558  1.00  0.00     0.027 A
HETATM    6 BR1  UNL     1      11.135   7.284  27.102  1.00  0.00    -0.050 Br
HETATM    7  C11 UNL     1       8.905   7.877  25.376  1.00  0.00     0.041 A
HETATM    8  C12 UNL     1       8.329   8.450  24.236  1.00  0.00     0.076 A
ENDROOT
BRANCH   8   9
HETATM    9  C13 UNL     1       6.898   8.277  24.046  1.00  0.00     0.296 C
HETATM   10  O2  UNL     1       6.021   9.077  24.368  1.00  0.00    -0.259 OA
BRANCH   9  11
HETATM   11  O3  UNL     1       6.423   7.090  23.435  1.00  0.00    -0.308 OA
BRANCH  11  12
HETATM   12  C14 UNL     1       5.035   6.832  23.325  1.00  0.00     0.281 C
BRANCH  12  13
HETATM   13  C15 UNL     1       4.779   5.920  22.208  1.00  0.00     0.242 C
HETATM   14  O4  UNL     1       3.669   6.005  21.611  1.00  0.00    -0.271 OA
HETATM   15  N2  UNL     1       5.697   4.942  21.747  1.00  0.00    -0.355 N
ATOM     16  H2  UNL     1       6.593   4.871  22.227  1.00  0.00     0.162 HD
BRANCH  15  17
HETATM   17  C16 UNL     1       5.456   4.053  20.662  1.00  0.00     0.084 C
HETATM   18  C17 UNL     1       5.534   2.586  21.083  1.00  0.00     0.025 C
HETATM   19  C18 UNL     1       6.979   2.199  20.978  1.00  0.00     0.002 C
HETATM   20  C19 UNL     1       7.587   3.148  19.971  1.00  0.00     0.002 C
HETATM   21  C20 UNL     1       6.501   4.113  19.577  1.00  0.00     0.025 C
ENDBRANCH  15  17
ENDBRANCH  12  13
ENDBRANCH  11  12
ENDBRANCH   9  11
ENDBRANCH   8   9
BRANCH   1  22
HETATM   22  C7  UNL     1       8.446   9.724  22.166  1.00  0.00    -0.045 C
BRANCH  22  23
HETATM   23  C6  UNL     1       7.947  10.229  21.156  1.00  0.00    -0.073 C
BRANCH  23  24
HETATM   24  C5  UNL     1       7.373  10.865  19.983  1.00  0.00     0.262 C
BRANCH  24  25
HETATM   25  O1  UNL     1       7.646  10.238  18.829  1.00  0.00    -0.370 OA
BRANCH  25  26
HETATM   26  C2  UNL     1       6.737  10.081  17.855  1.00  0.00     0.051 C
HETATM   27  C1  UNL     1       5.743   8.960  18.100  1.00  0.00     0.045 C
HETATM   28  C3  UNL     1       5.841  11.363  17.891  1.00  0.00     0.045 C
HETATM   29  C4  UNL     1       7.297  10.020  16.477  1.00  0.00     0.045 C
ENDBRANCH  25  26
ENDBRANCH  24  25
ENDBRANCH  23  24
ENDBRANCH  22  23
ENDBRANCH   1  22
TORSDOF 10
ENDMDL