MODEL 1
REMARK VINA RESULT: -7.600081335      0.000      0.000
REMARK  4 active torsions:
REMARK  status: ('A' for Active; 'I' for Inactive)
REMARK    1  A    between atoms: C2_2  and  C3_3
REMARK    2  A    between atoms: C3_3  and  N1_4
REMARK       I    between atoms: N1_4  and  C4_6
REMARK       I    between atoms: C4_6  and  N2_8
REMARK    3  A    between atoms: N7_25  and  C14_26
REMARK    4  A    between atoms: C14_26  and  C15_27
ROOT
HETATM    1  N1  UNL     1       9.787   8.714  24.886  1.00  0.00    -0.343 N
ATOM      2  H1  UNL     1       8.933   8.427  25.365  1.00  0.00     0.164 HD
HETATM    3  C4  UNL     1       9.724   8.989  23.497  1.00  0.00     0.323 C
HETATM    4  O1  UNL     1      10.820   9.352  22.941  1.00  0.00    -0.247 OA
HETATM    5  N2  UNL     1       8.553   8.885  22.725  1.00  0.00    -0.300 N
HETATM    6  C5  UNL     1       8.499   9.183  21.309  1.00  0.00     0.148 C
HETATM    7  C6  UNL     1       7.085   9.761  21.118  1.00  0.00     0.088 C
HETATM    8  C7  UNL     1       7.119  10.566  19.921  1.00  0.00    -0.006 C
HETATM    9  C8  UNL     1       7.955  11.815  20.085  1.00  0.00     0.064 C
HETATM   10  N3  UNL     1       6.623  10.514  18.726  1.00  0.00    -0.346 N
ATOM     11  H3  UNL     1       6.842  11.274  18.083  1.00  0.00     0.167 HD
HETATM   12  C9  UNL     1       5.795   9.466  18.257  1.00  0.00     0.162 A
HETATM   13  C10 UNL     1       5.247   9.517  16.978  1.00  0.00     0.127 A
HETATM   14 BR1  UNL     1       5.456  10.889  15.664  1.00  0.00    -0.027 Br
HETATM   15  N4  UNL     1       4.531   8.384  16.860  1.00  0.00    -0.342 N
ATOM     16  H4  UNL     1       3.998   8.112  16.033  1.00  0.00     0.167 HD
HETATM   17  C11 UNL     1       4.620   7.661  17.995  1.00  0.00     0.209 A
HETATM   18  N5  UNL     1       5.409   8.334  18.867  1.00  0.00    -0.234 N
HETATM   19  N6  UNL     1       5.744   7.916  20.154  1.00  0.00    -0.303 N
HETATM   20  C12 UNL     1       5.763   6.451  20.307  1.00  0.00     0.173 C
HETATM   21  C13 UNL     1       6.056   8.742  21.282  1.00  0.00     0.192 C
HETATM   22  N7  UNL     1       6.344   7.915  22.449  1.00  0.00    -0.255 NA
HETATM   23  C18 UNL     1       7.321   8.461  23.342  1.00  0.00     0.160 C
ENDROOT
BRANCH   1  24
HETATM   24  C3  UNL     1      10.997   8.822  25.652  1.00  0.00     0.124 C
BRANCH  24  25
HETATM   25  C2  UNL     1      11.309   7.641  26.513  1.00  0.00     0.015 C
HETATM   26  C1  UNL     1       9.985   7.114  27.066  1.00  0.00     0.006 C
ENDBRANCH  24  25
ENDBRANCH   1  24
BRANCH  22  27
HETATM   27  C14 UNL     1       5.152   7.588  23.165  1.00  0.00     0.103 C
BRANCH  27  28
HETATM   28  C15 UNL     1       4.912   8.313  24.441  1.00  0.00    -0.001 A
HETATM   29  C16 UNL     1       3.810   9.364  24.325  1.00  0.00     0.006 A
HETATM   30  C17 UNL     1       3.536   8.143  25.116  1.00  0.00     0.006 A
ENDBRANCH  27  28
ENDBRANCH  22  27
TORSDOF 4
ENDMDL