MODEL 3
REMARK VINA RESULT: -7.553013231      3.418      4.164
REMARK  6 active torsions:
REMARK  status: ('A' for Active; 'I' for Inactive)
REMARK    1  A    between atoms: N1_2  and  C2_3
REMARK    2  A    between atoms: N1_2  and  C7_10
REMARK    3  A    between atoms: C2_3  and  C3_4
REMARK    4  A    between atoms: C15_18  and  C16_19
REMARK       I    between atoms: C16_19  and  N2_21
REMARK    5  A    between atoms: N2_21  and  C17_23
REMARK    6  A    between atoms: C17_23  and  C18_24
ROOT
HETATM    1  C7  UNL     1       7.247   7.884  21.602  1.00  0.00     0.081 C
HETATM    2  C8  UNL     1       6.103   8.240  20.675  1.00  0.00     0.026 C
HETATM    3  C9  UNL     1       5.056   7.203  20.559  1.00  0.00     0.017 C
HETATM    4  C10 UNL     1       5.400   5.857  21.128  1.00  0.00     0.017 C
HETATM    5  C11 UNL     1       4.716   5.627  22.473  1.00  0.00     0.015 C
HETATM    6  C12 UNL     1       3.244   5.551  22.088  1.00  0.00     0.008 C
HETATM    7  C13 UNL     1       3.212   5.240  20.606  1.00  0.00     0.018 C
HETATM    8  C14 UNL     1       2.484   3.937  20.418  1.00  0.00     0.048 C
HETATM    9  C15 UNL     1       3.557   2.917  20.560  1.00  0.00     0.214 C
HETATM   10  O4  UNL     1       4.777   3.537  20.747  1.00  0.00    -0.370 OA
HETATM   11  C22 UNL     1       4.640   4.839  20.292  1.00  0.00     0.138 C
HETATM   12  C23 UNL     1       6.833   5.491  21.119  1.00  0.00     0.183 C
HETATM   13  F1  UNL     1       7.121   4.621  20.054  1.00  0.00    -0.248 F
HETATM   14  C24 UNL     1       7.825   6.593  21.097  1.00  0.00     0.063 C
ENDROOT
BRANCH   1  15
HETATM   15  N1  UNL     1       8.146   8.957  21.683  1.00  0.00    -0.410 N
HETATM   16  C1  UNL     1       9.115   9.160  20.698  1.00  0.00     0.143 C
BRANCH  15  17
HETATM   17  C2  UNL     1       8.369   9.530  22.954  1.00  0.00     0.150 C
BRANCH  17  18
HETATM   18  C3  UNL     1       9.197   8.706  23.883  1.00  0.00     0.162 C
HETATM   19  C4  UNL     1       8.407   8.138  25.048  1.00  0.00     0.201 C
HETATM   20  O1  UNL     1       9.209   7.131  25.580  1.00  0.00    -0.386 OA
HETATM   21  C5  UNL     1      10.330   7.680  26.133  1.00  0.00     0.193 C
HETATM   22  C6  UNL     1      11.000   8.743  25.345  1.00  0.00     0.194 C
HETATM   23  O2  UNL     1      10.286   9.367  24.388  1.00  0.00    -0.380 OA
ENDBRANCH  17  18
ENDBRANCH  15  17
ENDBRANCH   1  15
BRANCH   9  24
HETATM   24  C16 UNL     1       3.569   1.971  19.374  1.00  0.00     0.250 C
HETATM   25  O3  UNL     1       2.603   1.213  19.325  1.00  0.00    -0.270 OA
HETATM   26  N2  UNL     1       4.668   2.086  18.509  1.00  0.00    -0.338 N
ATOM     27  H2  UNL     1       5.368   2.786  18.755  1.00  0.00     0.167 HD
BRANCH  26  28
HETATM   28  C17 UNL     1       4.907   1.344  17.342  1.00  0.00     0.072 C
BRANCH  28  29
HETATM   29  C18 UNL     1       6.265   1.135  16.827  1.00  0.00    -0.019 C
HETATM   30  C19 UNL     1       7.396   1.049  17.772  1.00  0.00     0.020 C
HETATM   31  C20 UNL     1       6.612   2.297  15.857  1.00  0.00     0.020 C
HETATM   32  C21 UNL     1       6.299  -0.102  15.887  1.00  0.00     0.020 C
ENDBRANCH  28  29
ENDBRANCH  26  28
ENDBRANCH   9  24
TORSDOF 6
ENDMDL