MODEL 5
REMARK VINA RESULT: -7.195275605      2.611      2.910
REMARK  7 active torsions:
REMARK  status: ('A' for Active; 'I' for Inactive)
REMARK    1  A    between atoms: C3_3  and  C4_4
REMARK       I    between atoms: C4_4  and  N1_6
REMARK    2  A    between atoms: N1_6  and  C5_8
REMARK    3  A    between atoms: C11_15  and  S1_16
REMARK    4  A    between atoms: S1_16  and  C12_17
REMARK    5  A    between atoms: C12_17  and  C13_18
REMARK       I    between atoms: C13_18  and  N3_20
REMARK    6  A    between atoms: N4_23  and  C16_24
REMARK    7  A    between atoms: C16_24  and  C17_26
ROOT
HETATM    1  S1  UNL     1       4.951   5.130  20.212  1.00  0.00    -0.102 SA
ENDROOT
BRANCH   1   2
HETATM    2  C11 UNL     1       5.177   6.131  21.683  1.00  0.00     0.079 A
HETATM    3  C2  UNL     1       6.358   6.684  22.115  1.00  0.00    -0.011 A
HETATM    4  C1  UNL     1       7.679   6.532  21.449  1.00  0.00     0.052 C
HETATM    5  C3  UNL     1       6.124   7.416  23.297  1.00  0.00     0.062 A
HETATM    6  C8  UNL     1       4.785   7.276  23.547  1.00  0.00     0.024 A
HETATM    7  C9  UNL     1       4.054   7.864  24.704  1.00  0.00     0.069 C
HETATM    8  N2  UNL     1       4.266   6.510  22.569  1.00  0.00    -0.348 N
HETATM    9  C10 UNL     1       2.866   6.137  22.482  1.00  0.00     0.156 C
BRANCH   5  10
HETATM   10  C4  UNL     1       7.186   8.102  23.984  1.00  0.00     0.254 C
HETATM   11  O1  UNL     1       7.375   9.336  23.771  1.00  0.00    -0.268 OA
HETATM   12  N1  UNL     1       8.054   7.493  24.902  1.00  0.00    -0.352 N
ATOM     13  H1  UNL     1       7.943   6.502  25.113  1.00  0.00     0.163 HD
BRANCH  12  14
HETATM   14  C5  UNL     1       9.123   8.259  25.566  1.00  0.00     0.084 A
HETATM   15  C6  UNL     1      10.476   8.239  25.013  1.00  0.00     0.027 A
HETATM   16  C7  UNL     1      10.191   7.489  26.264  1.00  0.00     0.027 A
ENDBRANCH  12  14
ENDBRANCH   5  10
ENDBRANCH   1   2
BRANCH   1  17
HETATM   17  C12 UNL     1       5.142   6.105  18.711  1.00  0.00     0.183 C
BRANCH  17  18
HETATM   18  C13 UNL     1       5.372   5.244  17.536  1.00  0.00     0.229 C
HETATM   19  O2  UNL     1       5.474   4.004  17.744  1.00  0.00    -0.273 OA
HETATM   20  N3  UNL     1       5.485   5.715  16.206  1.00  0.00    -0.345 N
HETATM   21  C14 UNL     1       5.363   7.166  16.026  1.00  0.00     0.170 C
HETATM   22  C22 UNL     1       5.708   4.791  15.141  1.00  0.00     0.146 C
HETATM   23  C15 UNL     1       5.361   7.385  14.522  1.00  0.00     0.081 C
HETATM   24  N4  UNL     1       6.520   6.803  13.991  1.00  0.00    -0.360 N
HETATM   25  C21 UNL     1       6.497   5.359  13.992  1.00  0.00     0.145 C
BRANCH  24  26
HETATM   26  C16 UNL     1       7.780   7.382  14.143  1.00  0.00     0.278 C
HETATM   27  F1  UNL     1       8.745   6.364  14.316  1.00  0.00    -0.226 F
BRANCH  26  28
HETATM   28  C17 UNL     1       8.322   8.265  13.069  1.00  0.00    -0.002 C
HETATM   29  C18 UNL     1       9.803   7.883  12.817  1.00  0.00     0.019 C
HETATM   30  C19 UNL     1       7.621   8.065  11.737  1.00  0.00     0.019 C
HETATM   31  C20 UNL     1       8.373   9.734  13.401  1.00  0.00     0.019 C
ENDBRANCH  26  28
ENDBRANCH  24  26
ENDBRANCH  17  18
ENDBRANCH   1  17
TORSDOF 7
ENDMDL