MODEL 3
REMARK VINA RESULT: -6.682157474      3.355      7.162
REMARK  5 active torsions:
REMARK  status: ('A' for Active; 'I' for Inactive)
REMARK    1  A    between atoms: S1_2  and  C2_3
REMARK    2  A    between atoms: N1_8  and  C5_9
REMARK    3  A    between atoms: C5_9  and  C6_10
REMARK    4  A    between atoms: N2_17  and  C11_18
REMARK    5  A    between atoms: C18_25  and  C19_26
ROOT
HETATM    1  C2  UNL     1       5.910   9.014  21.127  1.00  0.00     0.103 A
HETATM    2  C3  UNL     1       7.245   9.235  20.796  1.00  0.00     0.113 A
HETATM    3 BR1  UNL     1       7.737  10.091  19.151  1.00  0.00    -0.042 Br
HETATM    4  C4  UNL     1       8.282   8.858  21.619  1.00  0.00     0.272 A
HETATM    5  O1  UNL     1       9.494   9.074  21.277  1.00  0.00    -0.266 OA
HETATM    6  N1  UNL     1       7.933   8.260  22.769  1.00  0.00    -0.262 N
HETATM    7  C10 UNL     1       6.612   8.058  23.062  1.00  0.00     0.337 A
HETATM    8  O3  UNL     1       6.406   7.494  24.147  1.00  0.00    -0.246 OA
HETATM    9  N2  UNL     1       5.589   8.406  22.300  1.00  0.00    -0.263 N
ENDROOT
BRANCH   9  10
HETATM   10  C11 UNL     1       4.211   8.212  22.579  1.00  0.00     0.008 C
HETATM   11  C12 UNL     1       3.687   9.074  23.705  1.00  0.00     0.034 C
HETATM   12  C13 UNL     1       3.652   8.356  25.041  1.00  0.00     0.015 C
HETATM   13  C21 UNL     1       2.236   9.421  23.381  1.00  0.00     0.031 C
HETATM   14  C14 UNL     1       2.767   7.144  25.003  1.00  0.00    -0.012 C
HETATM   15  C15 UNL     1       3.436   6.223  23.989  1.00  0.00     0.015 C
HETATM   16  C20 UNL     1       1.381   7.509  24.616  1.00  0.00     0.025 C
HETATM   17  C16 UNL     1       3.590   6.908  22.685  1.00  0.00     0.034 C
HETATM   18  C17 UNL     1       2.089   7.177  22.304  1.00  0.00     0.031 C
HETATM   19  C18 UNL     1       1.447   8.131  23.240  1.00  0.00     0.050 C
BRANCH  19  20
HETATM   20  C19 UNL     1       0.122   8.507  22.725  1.00  0.00     0.181 C
HETATM   21  O4  UNL     1      -0.096   8.435  21.493  1.00  0.00    -0.647 OA
HETATM   22  O5  UNL     1      -0.914   8.944  23.539  1.00  0.00    -0.647 OA
ENDBRANCH  19  20
ENDBRANCH   9  10
BRANCH   1  23
HETATM   23  S1  UNL     1       4.744   9.551  19.892  1.00  0.00    -0.115 SA
HETATM   24  C1  UNL     1       4.202   8.220  18.823  1.00  0.00     0.097 C
ENDBRANCH   1  23
BRANCH   6  25
HETATM   25  C5  UNL     1       8.923   7.851  23.742  1.00  0.00     0.169 C
BRANCH  25  26
HETATM   26  C6  UNL     1       9.306   8.887  24.750  1.00  0.00     0.140 C
HETATM   27  C7  UNL     1      10.705   9.368  24.655  1.00  0.00     0.036 C
HETATM   28  C8  UNL     1      11.438   8.324  25.511  1.00  0.00     0.029 C
HETATM   29  C9  UNL     1      10.369   8.098  26.578  1.00  0.00     0.168 C
HETATM   30  O2  UNL     1       9.146   8.323  26.015  1.00  0.00    -0.384 OA
ENDBRANCH  25  26
ENDBRANCH   6  25
TORSDOF 5
ENDMDL