MODEL 4
REMARK VINA RESULT: -7.123576566      0.583      2.334
REMARK  9 active torsions:
REMARK  status: ('A' for Active; 'I' for Inactive)
REMARK    1  A    between atoms: O1_2  and  C2_3
REMARK    2  A    between atoms: C4_5  and  O2_6
REMARK    3  A    between atoms: C7_9  and  N1_10
REMARK       I    between atoms: N1_10  and  C8_11
REMARK    4  A    between atoms: N1_10  and  C16_23
REMARK    5  A    between atoms: C8_11  and  C9_13
REMARK    6  A    between atoms: C9_13  and  N2_14
REMARK    7  A    between atoms: C12_17  and  O4_18
REMARK       I    between atoms: N3_26  and  C19_27
REMARK    8  A    between atoms: C19_27  and  O6_29
REMARK    9  A    between atoms: O6_29  and  C20_30
ROOT
HETATM    1  N1  UNL     1       5.849   6.366  21.222  1.00  0.00    -0.308 N
HETATM    2  C8  UNL     1       4.540   6.910  21.340  1.00  0.00     0.263 C
HETATM    3  O3  UNL     1       3.588   6.170  20.936  1.00  0.00    -0.267 OA
ENDROOT
BRANCH   1   4
HETATM    4  C7  UNL     1       6.925   7.182  21.675  1.00  0.00     0.043 A
HETATM    5  C6  UNL     1       7.438   6.969  22.919  1.00  0.00     0.066 A
HETATM    6  C4  UNL     1       8.495   7.762  23.386  1.00  0.00     0.073 A
HETATM    7  C3  UNL     1       9.040   8.768  22.611  1.00  0.00     0.073 A
HETATM    8  C2  UNL     1       8.512   8.975  21.355  1.00  0.00     0.073 A
HETATM    9  C26 UNL     1       7.473   8.185  20.914  1.00  0.00     0.066 A
BRANCH   6  10
HETATM   10  O2  UNL     1       9.009   7.544  24.636  1.00  0.00    -0.356 OA
HETATM   11  C5  UNL     1      10.002   8.386  25.170  1.00  0.00     0.210 C
ENDBRANCH   6  10
BRANCH   8  12
HETATM   12  O1  UNL     1       9.010   9.968  20.523  1.00  0.00    -0.356 OA
HETATM   13  C1  UNL     1       8.280  11.077  20.096  1.00  0.00     0.210 C
ENDBRANCH   8  12
ENDBRANCH   1   4
BRANCH   1  14
HETATM   14  C16 UNL     1       6.088   5.048  20.669  1.00  0.00     0.096 C
HETATM   15  C17 UNL     1       7.555   4.827  20.497  1.00  0.00     0.045 C
HETATM   16  C18 UNL     1       7.938   3.367  20.775  1.00  0.00     0.130 C
HETATM   17  N3  UNL     1       6.904   2.547  20.177  1.00  0.00    -0.328 N
HETATM   18  C19 UNL     1       7.214   1.649  19.098  1.00  0.00     0.363 C
HETATM   19  C24 UNL     1       5.563   2.666  20.704  1.00  0.00     0.130 C
HETATM   20  O5  UNL     1       8.377   1.545  18.646  1.00  0.00    -0.238 OA
HETATM   21  C25 UNL     1       5.544   3.938  21.559  1.00  0.00     0.045 C
BRANCH  18  22
HETATM   22  O6  UNL     1       6.249   0.858  18.500  1.00  0.00    -0.294 OA
BRANCH  22  23
HETATM   23  C20 UNL     1       5.643   1.253  17.294  1.00  0.00     0.061 C
HETATM   24  C21 UNL     1       6.024   0.318  16.184  1.00  0.00     0.046 C
HETATM   25  C22 UNL     1       6.001   2.655  16.882  1.00  0.00     0.046 C
HETATM   26  C23 UNL     1       4.144   1.206  17.508  1.00  0.00     0.046 C
ENDBRANCH  22  23
ENDBRANCH  18  22
ENDBRANCH   1  14
BRANCH   2  27
HETATM   27  C9  UNL     1       4.302   8.262  21.900  1.00  0.00     0.161 C
BRANCH  27  28
HETATM   28  N2  UNL     1       3.356   8.305  22.939  1.00  0.00    -0.381 N
HETATM   29  C10 UNL     1       2.059   8.799  22.591  1.00  0.00     0.125 C
HETATM   30  C11 UNL     1       1.064   8.151  23.559  1.00  0.00     0.051 C
HETATM   31  C12 UNL     1       1.368   8.683  24.951  1.00  0.00     0.121 C
HETATM   32  C13 UNL     1       2.728   9.328  25.013  1.00  0.00     0.056 C
HETATM   33  C14 UNL     1       3.758   8.465  24.266  1.00  0.00     0.082 C
HETATM   34  C15 UNL     1       5.127   9.001  24.526  1.00  0.00     0.032 C
BRANCH  31  35
HETATM   35  O4  UNL     1       1.184   7.712  25.926  1.00  0.00    -0.395 OA
ATOM     36  H4  UNL     1       0.562   7.991  26.589  1.00  0.00     0.210 HD
ENDBRANCH  31  35
ENDBRANCH  27  28
ENDBRANCH   2  27
TORSDOF 9
ENDMDL