MODEL 3
REMARK VINA RESULT: -7.794777364      1.878      3.394
REMARK  7 active torsions:
REMARK  status: ('A' for Active; 'I' for Inactive)
REMARK    1  A    between atoms: C2_2  and  N1_4
REMARK       I    between atoms: N1_4  and  C4_6
REMARK       I    between atoms: C4_6  and  N2_8
REMARK    2  A    between atoms: N2_8  and  C5_9
REMARK    3  A    between atoms: N2_8  and  C22_31
REMARK    4  A    between atoms: C5_9  and  C6_10
REMARK       I    between atoms: N3_13  and  C9_14
REMARK    5  A    between atoms: C9_14  and  O3_16
REMARK    6  A    between atoms: O3_16  and  C10_17
REMARK    7  A    between atoms: N4_20  and  C13_21
ROOT
HETATM    1  C6  UNL     1       5.162   4.458  19.607  1.00  0.00     0.008 C
HETATM    2  C7  UNL     1       3.866   4.965  20.121  1.00  0.00     0.026 C
HETATM    3  C8  UNL     1       3.972   5.888  21.292  1.00  0.00     0.128 C
HETATM    4  N3  UNL     1       5.130   6.716  21.338  1.00  0.00    -0.328 N
HETATM    5  C9  UNL     1       5.154   7.822  22.236  1.00  0.00     0.363 C
HETATM    6  O2  UNL     1       4.183   8.073  22.983  1.00  0.00    -0.238 OA
HETATM    7  C20 UNL     1       6.255   6.417  20.478  1.00  0.00     0.128 C
HETATM    8  C21 UNL     1       6.346   4.883  20.445  1.00  0.00     0.026 C
ENDROOT
BRANCH   1   9
HETATM    9  C5  UNL     1       5.222   2.996  19.310  1.00  0.00     0.157 C
BRANCH   9  10
HETATM   10  N2  UNL     1       5.980   2.658  18.121  1.00  0.00    -0.132 N
HETATM   11  C4  UNL     1       5.530   3.132  16.864  1.00  0.00     0.337 C
HETATM   12  N1  UNL     1       6.210   2.885  15.659  1.00  0.00    -0.338 N
HETATM   13  O1  UNL     1       4.468   3.812  16.809  1.00  0.00    -0.246 OA
ATOM     14  H1  UNL     1       7.072   2.339  15.673  1.00  0.00     0.164 HD
BRANCH  12  15
HETATM   15  C2  UNL     1       5.704   3.398  14.381  1.00  0.00     0.078 C
HETATM   16  C1  UNL     1       5.965   2.394  13.304  1.00  0.00     0.032 C
HETATM   17  C3  UNL     1       6.436   4.715  14.115  1.00  0.00     0.032 C
ENDBRANCH  12  15
BRANCH  10  18
HETATM   18  C22 UNL     1       7.155   1.872  18.224  1.00  0.00     0.688 A
HETATM   19  N5  UNL     1       8.001   2.086  19.252  1.00  0.00    -0.198 N
HETATM   20  C23 UNL     1       9.127   1.376  19.400  1.00  0.00     0.149 A
ATOM     21  H5  UNL     1       7.777   2.809  19.936  1.00  0.00     0.183 HD
HETATM   22  C24 UNL     1       9.470   0.385  18.495  1.00  0.00     0.148 A
HETATM   23  F1  UNL     1      10.615  -0.331  18.653  1.00  0.00    -0.203 F
HETATM   24  C25 UNL     1       8.611   0.163  17.447  1.00  0.00     0.149 A
HETATM   25  N6  UNL     1       7.493   0.900  17.340  1.00  0.00    -0.198 N
ATOM     26  H6  UNL     1       6.868   0.719  16.555  1.00  0.00     0.183 HD
ENDBRANCH  10  18
ENDBRANCH   9  10
ENDBRANCH   1   9
BRANCH   5  27
HETATM   27  O3  UNL     1       6.249   8.675  22.329  1.00  0.00    -0.298 OA
BRANCH  27  28
HETATM   28  C10 UNL     1       7.144   8.684  23.411  1.00  0.00     0.140 C
HETATM   29  C11 UNL     1       8.448   9.356  23.086  1.00  0.00     0.077 C
HETATM   30  C12 UNL     1       9.527   9.146  24.065  1.00  0.00     0.061 C
HETATM   31  N4  UNL     1       9.393   8.198  25.082  1.00  0.00    -0.388 N
HETATM   32  C18 UNL     1       8.192   7.466  25.220  1.00  0.00     0.125 C
HETATM   33  C19 UNL     1       7.462   7.315  23.930  1.00  0.00     0.053 C
BRANCH  31  34
HETATM   34  C13 UNL     1      10.001   8.587  26.332  1.00  0.00     0.087 C
HETATM   35  C14 UNL     1      11.415   9.012  26.066  1.00  0.00     0.051 C
HETATM   36  C15 UNL     1      12.378   7.856  26.035  1.00  0.00     0.169 C
HETATM   37  O4  UNL     1      12.300   7.195  27.258  1.00  0.00    -0.391 OA
HETATM   38  C16 UNL     1      11.063   6.518  27.259  1.00  0.00     0.169 C
HETATM   39  C17 UNL     1       9.916   7.501  27.376  1.00  0.00     0.051 C
ENDBRANCH  31  34
ENDBRANCH  27  28
ENDBRANCH   5  27
TORSDOF 7
ENDMDL