MODEL 1
REMARK VINA RESULT: -7.980206577      0.000      0.000
REMARK  6 active torsions:
REMARK  status: ('A' for Active; 'I' for Inactive)
REMARK    1  A    between atoms: O1_2  and  C2_3
REMARK       I    between atoms: N1_7  and  C6_8
REMARK    2  A    between atoms: C6_8  and  C7_10
REMARK    3  A    between atoms: C7_10  and  N2_12
REMARK       I    between atoms: N2_12  and  C9_14
REMARK    4  A    between atoms: C9_14  and  C10_16
REMARK    5  A    between atoms: N5_29  and  C20_30
REMARK    6  A    between atoms: C20_30  and  C21_31
ROOT
HETATM    1  C2  UNL     1       6.765   7.292  21.180  1.00  0.00     0.183 C
HETATM    2  C3  UNL     1       6.202   6.240  20.262  1.00  0.00     0.034 C
HETATM    3  C4  UNL     1       7.160   5.070  20.258  1.00  0.00     0.014 C
HETATM    4  C5  UNL     1       4.790   5.832  20.614  1.00  0.00     0.155 C
HETATM    5  N1  UNL     1       4.686   5.506  21.998  1.00  0.00    -0.260 N
HETATM    6  C6  UNL     1       3.867   4.485  22.532  1.00  0.00     0.257 C
HETATM    7  O2  UNL     1       3.799   4.250  23.782  1.00  0.00    -0.270 OA
HETATM    8  N3  UNL     1       5.428   6.229  22.945  1.00  0.00    -0.090 NA
HETATM    9  C16 UNL     1       5.950   7.447  22.441  1.00  0.00     0.278 C
HETATM   10  C17 UNL     1       4.834   8.464  22.216  1.00  0.00     0.115 C
HETATM   11  C18 UNL     1       5.459   9.285  23.334  1.00  0.00     0.335 C
HETATM   12  C19 UNL     1       4.575   9.255  24.492  1.00  0.00     0.095 C
HETATM   13  N4  UNL     1       3.867   9.239  25.404  1.00  0.00    -0.195 NA
HETATM   14  N5  UNL     1       6.560   8.349  23.342  1.00  0.00     0.136 N
ENDROOT
BRANCH  14  15
HETATM   15  C20 UNL     1       6.974   7.867  24.619  1.00  0.00     0.281 C
BRANCH  15  16
HETATM   16  C21 UNL     1       8.482   7.925  24.749  1.00  0.00     0.006 C
HETATM   17  C22 UNL     1       9.018   9.250  24.214  1.00  0.00     0.011 C
HETATM   18  C23 UNL     1       8.890   7.908  26.229  1.00  0.00     0.011 C
ENDBRANCH  15  16
ENDBRANCH  14  15
BRANCH   1  19
HETATM   19  O1  UNL     1       8.095   7.048  21.514  1.00  0.00    -0.386 OA
HETATM   20  C1  UNL     1       8.965   7.945  20.910  1.00  0.00     0.202 C
ENDBRANCH   1  19
BRANCH   6  21
HETATM   21  C7  UNL     1       3.039   3.634  21.653  1.00  0.00     0.174 C
HETATM   22  C8  UNL     1       1.894   4.455  21.042  1.00  0.00     0.042 C
BRANCH  21  23
HETATM   23  N2  UNL     1       3.825   3.181  20.493  1.00  0.00    -0.344 N
HETATM   24  C9  UNL     1       4.810   2.202  20.701  1.00  0.00     0.252 C
HETATM   25  O3  UNL     1       5.027   1.716  21.859  1.00  0.00    -0.268 OA
ATOM     26  H2  UNL     1       3.658   3.567  19.564  1.00  0.00     0.163 HD
BRANCH  24  27
HETATM   27  C10 UNL     1       5.634   1.699  19.584  1.00  0.00     0.033 A
HETATM   28  C11 UNL     1       5.054   1.432  18.353  1.00  0.00     0.017 A
HETATM   29  C12 UNL     1       5.788   0.968  17.286  1.00  0.00     0.002 A
HETATM   30  C13 UNL     1       7.147   0.749  17.404  1.00  0.00     0.019 A
HETATM   31  C14 UNL     1       7.741   1.008  18.618  1.00  0.00     0.011 A
HETATM   32 BR1  UNL     1       9.615   0.717  18.811  1.00  0.00    -0.051 Br
HETATM   33  C15 UNL     1       6.988   1.479  19.696  1.00  0.00     0.036 A
ENDBRANCH  24  27
ENDBRANCH  21  23
ENDBRANCH   6  21
TORSDOF 6
ENDMDL