MODEL 1
REMARK VINA RESULT: -6.166134425      0.000      0.000
REMARK  8 active torsions:
REMARK  status: ('A' for Active; 'I' for Inactive)
REMARK    1  A    between atoms: C2_2  and  C3_3
REMARK    2  A    between atoms: C3_3  and  C4_4
REMARK    3  A    between atoms: C4_4  and  C5_5
REMARK    4  A    between atoms: C5_5  and  C6_6
REMARK    5  A    between atoms: C6_6  and  O2_8
REMARK    6  A    between atoms: C11_14  and  N1_15
REMARK    7  A    between atoms: C19_27  and  O5_28
REMARK    8  A    between atoms: O5_28  and  C20_29
REMARK       I    between atoms: C20_29  and  N3_31
ROOT
HETATM    1  C5  UNL     1       5.197   7.292  23.630  1.00  0.00     0.177 C
HETATM    2  O3  UNL     1       5.324   5.929  23.560  1.00  0.00    -0.352 OA
HETATM    3  C8  UNL     1       4.558   5.460  22.490  1.00  0.00     0.090 C
HETATM    4  C9  UNL     1       3.273   4.805  23.051  1.00  0.00     0.051 C
HETATM    5  C10 UNL     1       5.261   4.329  21.856  1.00  0.00     0.041 C
HETATM    6  C11 UNL     1       5.461   4.233  20.559  1.00  0.00     0.044 C
HETATM    7  C16 UNL     1       5.045   5.319  19.726  1.00  0.00     0.045 C
HETATM    8  C17 UNL     1       4.471   6.404  20.201  1.00  0.00     0.001 C
HETATM    9 BR1  UNL     1       3.971   7.758  18.964  1.00  0.00    -0.055 Br
HETATM   10  C18 UNL     1       4.233   6.608  21.607  1.00  0.00     0.097 C
HETATM   11  C19 UNL     1       4.983   7.764  22.218  1.00  0.00     0.190 C
ENDROOT
BRANCH   1  12
HETATM   12  C4  UNL     1       4.051   7.709  24.533  1.00  0.00     0.051 C
BRANCH  12  13
HETATM   13  C3  UNL     1       3.247   8.823  23.904  1.00  0.00     0.003 C
BRANCH  13  14
HETATM   14  C2  UNL     1       2.421   9.566  24.914  1.00  0.00    -0.004 C
HETATM   15  C1  UNL     1       3.327  10.230  25.925  1.00  0.00     0.005 C
ENDBRANCH  13  14
ENDBRANCH  12  13
ENDBRANCH   1  12
BRANCH   1  16
HETATM   16  C6  UNL     1       6.405   7.933  24.248  1.00  0.00     0.296 C
HETATM   17  O1  UNL     1       6.430   9.083  24.707  1.00  0.00    -0.262 OA
BRANCH  16  18
HETATM   18  O2  UNL     1       7.559   7.166  24.295  1.00  0.00    -0.324 OA
HETATM   19  C7  UNL     1       8.705   7.557  25.018  1.00  0.00     0.213 C
ENDBRANCH  16  18
ENDBRANCH   1  16
BRANCH  11  20
HETATM   20  O5  UNL     1       6.084   8.231  21.561  1.00  0.00    -0.294 OA
BRANCH  20  21
HETATM   21  C20 UNL     1       6.401   9.514  21.176  1.00  0.00     0.362 C
HETATM   22  O6  UNL     1       5.433  10.229  20.823  1.00  0.00    -0.238 OA
HETATM   23  N3  UNL     1       7.692  10.052  21.155  1.00  0.00    -0.337 N
HETATM   24  C21 UNL     1       8.821   9.249  21.556  1.00  0.00     0.154 C
HETATM   25  C22 UNL     1       7.929  11.410  20.736  1.00  0.00     0.154 C
ENDBRANCH  20  21
ENDBRANCH  11  20
BRANCH   6  26
HETATM   26  N1  UNL     1       6.160   3.087  20.046  1.00  0.00    -0.267 N
HETATM   27  C12 UNL     1       5.653   2.041  19.423  1.00  0.00     0.033 A
HETATM   28  C13 UNL     1       4.246   1.637  19.196  1.00  0.00     0.070 C
HETATM   29  C14 UNL     1       6.710   1.226  19.001  1.00  0.00     0.118 A
HETATM   30  N2  UNL     1       7.837   1.801  19.382  1.00  0.00    -0.317 N
HETATM   31  C15 UNL     1       7.518   2.938  20.022  1.00  0.00     0.331 A
ATOM     32  H2  UNL     1       8.779   1.445  19.221  1.00  0.00     0.170 HD
HETATM   33  O4  UNL     1       8.359   3.704  20.498  1.00  0.00    -0.246 OA
ENDBRANCH   6  26
TORSDOF 8
ENDMDL