MODEL 3
REMARK VINA RESULT: -7.790509715      1.437      1.844
REMARK  8 active torsions:
REMARK  status: ('A' for Active; 'I' for Inactive)
REMARK    1  A    between atoms: C4_4  and  C5_5
REMARK    2  A    between atoms: C5_5  and  N1_6
REMARK    3  A    between atoms: N1_6  and  C7_8
REMARK    4  A    between atoms: C7_8  and  C8_9
REMARK    5  A    between atoms: C8_9  and  C9_10
REMARK    6  A    between atoms: C9_10  and  O2_12
REMARK    7  A    between atoms: O2_12  and  C10_13
REMARK    8  A    between atoms: C17_21  and  O3_22
ROOT
HETATM    1  C10 UNL     1       4.381   7.484  20.054  1.00  0.00     0.143 C
HETATM    2  C11 UNL     1       5.666   6.806  19.719  1.00  0.00     0.046 C
HETATM    3  C12 UNL     1       6.446   6.256  20.849  1.00  0.00     0.001 A
HETATM    4  C13 UNL     1       5.873   5.071  21.362  1.00  0.00     0.020 A
HETATM    5  C14 UNL     1       5.749   6.206  22.202  1.00  0.00     0.022 A
HETATM    6  C15 UNL     1       5.084   7.448  22.377  1.00  0.00     0.054 C
HETATM    7 CL1  UNL     1       3.403   6.972  22.929  1.00  0.00    -0.118 Cl
HETATM    8  C16 UNL     1       5.564   8.272  23.537  1.00  0.00     0.062 C
HETATM    9  C17 UNL     1       6.891   8.805  23.659  1.00  0.00     0.159 C
HETATM   10  C18 UNL     1       8.112   8.029  23.331  1.00  0.00     0.112 C
HETATM   11  C19 UNL     1       9.278   8.923  23.134  1.00  0.00     0.018 C
HETATM   12  C20 UNL     1       9.966   9.099  24.246  1.00  0.00     0.049 C
HETATM   13  C21 UNL     1       9.376   8.356  25.354  1.00  0.00     0.152 C
HETATM   14  O4  UNL     1       9.471   8.511  26.580  1.00  0.00    -0.293 OA
HETATM   15  C22 UNL     1       8.585   7.301  24.621  1.00  0.00     0.128 C
HETATM   16  O5  UNL     1       8.067   7.091  22.403  1.00  0.00    -0.359 OA
HETATM   17  C23 UNL     1       7.580   7.146  21.171  1.00  0.00     0.201 C
HETATM   18  C24 UNL     1       7.187   8.488  20.626  1.00  0.00     0.157 C
HETATM   19  O6  UNL     1       7.998   9.118  19.982  1.00  0.00    -0.295 OA
HETATM   20  C25 UNL     1       5.895   9.226  20.740  1.00  0.00     0.095 C
HETATM   21  C26 UNL     1       4.781   8.360  21.241  1.00  0.00     0.011 C
HETATM   22  C27 UNL     1       3.584   9.265  21.493  1.00  0.00     0.020 C
ENDROOT
BRANCH   1  23
HETATM   23  O2  UNL     1       3.303   6.666  20.280  1.00  0.00    -0.315 OA
BRANCH  23  24
HETATM   24  C9  UNL     1       2.897   5.759  19.263  1.00  0.00     0.264 C
HETATM   25  O1  UNL     1       2.582   6.303  18.187  1.00  0.00    -0.265 OA
BRANCH  24  26
HETATM   26  C8  UNL     1       2.876   4.305  19.532  1.00  0.00     0.155 C
BRANCH  26  27
HETATM   27  C7  UNL     1       3.489   3.510  18.437  1.00  0.00     0.072 C
BRANCH  27  28
HETATM   28  N1  UNL     1       4.812   3.118  18.457  1.00  0.00    -0.374 N
HETATM   29  C6  UNL     1       5.767   3.803  17.630  1.00  0.00     0.154 C
BRANCH  28  30
HETATM   30  C5  UNL     1       5.307   2.007  19.139  1.00  0.00     0.089 C
BRANCH  30  31
HETATM   31  C4  UNL     1       6.667   1.592  18.753  1.00  0.00     0.019 C
HETATM   32  C2  UNL     1       7.667   1.528  19.661  1.00  0.00    -0.086 C
HETATM   33  C1  UNL     1       7.374   1.885  21.077  1.00  0.00     0.043 C
HETATM   34  C3  UNL     1       9.013   1.112  19.238  1.00  0.00     0.043 C
ENDBRANCH  30  31
ENDBRANCH  28  30
ENDBRANCH  27  28
ENDBRANCH  26  27
ENDBRANCH  24  26
ENDBRANCH  23  24
ENDBRANCH   1  23
BRANCH   9  35
HETATM   35  O3  UNL     1       7.006   9.141  25.053  1.00  0.00    -0.392 OA
ATOM     36  H3  UNL     1       6.352   9.817  25.183  1.00  0.00     0.210 HD
ENDBRANCH   9  35
TORSDOF 8
ENDMDL