MODEL 3
REMARK VINA RESULT: -7.393352072      6.013      8.892
REMARK  6 active torsions:
REMARK  status: ('A' for Active; 'I' for Inactive)
REMARK    1  A    between atoms: C2_2  and  C3_4
REMARK    2  A    between atoms: C3_4  and  N1_5
REMARK    3  A    between atoms: C6_8  and  N2_9
REMARK    4  A    between atoms: C9_16  and  N5_17
REMARK       I    between atoms: N6_21  and  C13_22
REMARK       I    between atoms: C13_22  and  N7_24
REMARK    5  A    between atoms: N7_24  and  C14_26
REMARK    6  A    between atoms: C18_30  and  N8_31
ROOT
HETATM    1  N2  UNL     1       0.660   8.850  25.203  1.00  0.00    -0.271 N
HETATM    2  N3  UNL     1       1.335   9.956  25.419  1.00  0.00    -0.239 N
ATOM      3  H3  UNL     1       1.015  10.718  26.015  1.00  0.00     0.208 HD
HETATM    4  N4  UNL     1       2.481   9.953  24.766  1.00  0.00    -0.284 N
ATOM      5  H4  UNL     1       3.180  10.695  24.769  1.00  0.00     0.188 HD
HETATM    6  C7  UNL     1       2.553   8.795  24.097  1.00  0.00     0.080 A
HETATM    7  C8  UNL     1       3.555   8.313  23.267  1.00  0.00     0.062 A
HETATM    8  C9  UNL     1       3.423   7.081  22.673  1.00  0.00     0.033 A
HETATM    9  C22 UNL     1       2.257   6.367  22.950  1.00  0.00     0.032 A
HETATM   10  C23 UNL     1       1.270   6.854  23.776  1.00  0.00     0.036 A
HETATM   11  C24 UNL     1       1.412   8.103  24.372  1.00  0.00     0.081 A
ENDROOT
BRANCH   8  12
HETATM   12  N5  UNL     1       4.426   6.524  21.834  1.00  0.00    -0.364 N
HETATM   13  C10 UNL     1       4.759   7.011  20.533  1.00  0.00     0.126 C
HETATM   14  C11 UNL     1       6.241   7.267  20.328  1.00  0.00     0.040 C
HETATM   15  C12 UNL     1       7.029   6.111  20.937  1.00  0.00     0.131 C
HETATM   16  N6  UNL     1       6.133   5.049  21.309  1.00  0.00    -0.318 N
HETATM   17  C13 UNL     1       6.208   3.781  20.704  1.00  0.00     0.320 C
HETATM   18  C21 UNL     1       5.164   5.353  22.334  1.00  0.00     0.254 C
HETATM   19  O1  UNL     1       5.351   2.889  21.068  1.00  0.00    -0.247 OA
HETATM   20  N7  UNL     1       7.148   3.391  19.725  1.00  0.00    -0.336 N
ATOM     21  H7  UNL     1       7.855   4.051  19.400  1.00  0.00     0.164 HD
BRANCH  20  22
HETATM   22  C14 UNL     1       7.101   2.057  19.191  1.00  0.00     0.119 C
HETATM   23  C15 UNL     1       8.504   1.470  19.474  1.00  0.00     0.027 C
HETATM   24  C16 UNL     1       8.745   0.487  18.380  1.00  0.00     0.004 C
HETATM   25  C17 UNL     1       7.544   0.533  17.494  1.00  0.00     0.038 C
HETATM   26  C18 UNL     1       6.985   1.949  17.713  1.00  0.00     0.244 C
BRANCH  26  27
HETATM   27  N8  UNL     1       5.663   1.940  17.195  1.00  0.00     0.086 N
HETATM   28  C19 UNL     1       4.822   1.144  18.063  1.00  0.00     0.310 C
HETATM   29  C20 UNL     1       5.516   1.451  15.858  1.00  0.00     0.310 C
ENDBRANCH  26  27
ENDBRANCH  20  22
ENDBRANCH   8  12
BRANCH   1  30
HETATM   30  C6  UNL     1      -0.617   8.428  25.719  1.00  0.00     0.113 C
HETATM   31  C5  UNL     1      -1.230   9.410  26.681  1.00  0.00     0.057 C
HETATM   32  C4  UNL     1      -1.807  10.610  26.010  1.00  0.00     0.274 C
HETATM   33  N1  UNL     1      -2.692  10.282  24.911  1.00  0.00     0.091 N
HETATM   34  C26 UNL     1      -2.192   9.295  24.029  1.00  0.00     0.274 C
HETATM   35  C25 UNL     1      -1.587   8.079  24.662  1.00  0.00     0.057 C
BRANCH  33  36
HETATM   36  C3  UNL     1      -2.949  11.514  24.222  1.00  0.00     0.308 C
BRANCH  36  37
HETATM   37  C2  UNL     1      -1.819  12.471  24.116  1.00  0.00     0.194 C
HETATM   38  C1  UNL     1      -1.712  12.838  22.616  1.00  0.00     0.046 C
HETATM   39  F1  UNL     1      -2.067  13.699  24.734  1.00  0.00    -0.248 F
ENDBRANCH  36  37
ENDBRANCH  33  36
ENDBRANCH   1  30
TORSDOF 6
ENDMDL