MODEL 4
REMARK VINA RESULT: -7.896601285      1.966      2.434
REMARK  6 active torsions:
REMARK  status: ('A' for Active; 'I' for Inactive)
REMARK    1  A    between atoms: C2_2  and  N1_3
REMARK    2  A    between atoms: C2_2  and  C14_26
REMARK       I    between atoms: N1_3  and  C3_5
REMARK    3  A    between atoms: C3_5  and  C4_7
REMARK    4  A    between atoms: C4_7  and  C9_13
REMARK    5  A    between atoms: N2_16  and  S1_17
REMARK    6  A    between atoms: C13_21  and  S2_22
ROOT
HETATM    1  C4  UNL     1       4.772   6.382  22.881  1.00  0.00     0.049 C
HETATM    2  C5  UNL     1       3.980   6.818  23.830  1.00  0.00    -0.038 C
HETATM    3  C6  UNL     1       2.751   6.248  24.360  1.00  0.00     0.063 C
HETATM    4  C7  UNL     1       2.256   7.272  25.381  1.00  0.00     0.172 C
HETATM    5  O2  UNL     1       3.401   7.954  25.731  1.00  0.00    -0.387 OA
HETATM    6  C8  UNL     1       4.206   8.066  24.595  1.00  0.00     0.203 C
ENDROOT
BRANCH   1   7
HETATM    7  C3  UNL     1       4.401   5.137  22.231  1.00  0.00     0.253 C
HETATM    8  N1  UNL     1       5.091   3.891  22.439  1.00  0.00    -0.352 N
ATOM      9  H1  UNL     1       5.890   3.858  23.073  1.00  0.00     0.163 HD
HETATM   10  O1  UNL     1       3.425   5.125  21.439  1.00  0.00    -0.268 OA
BRANCH   8  11
HETATM   11  C2  UNL     1       4.666   2.686  21.763  1.00  0.00     0.085 C
HETATM   12  C1  UNL     1       4.080   1.765  22.758  1.00  0.00     0.032 C
BRANCH  11  13
HETATM   13  C14 UNL     1       5.716   2.241  20.882  1.00  0.00     0.017 C
HETATM   14  C15 UNL     1       7.004   3.016  20.821  1.00  0.00    -0.007 C
HETATM   15  C16 UNL     1       7.831   1.960  20.058  1.00  0.00     0.005 C
HETATM   16  C22 UNL     1       6.773   4.106  19.803  1.00  0.00     0.015 C
HETATM   17  C17 UNL     1       6.809   1.358  19.090  1.00  0.00     0.006 C
HETATM   18  C18 UNL     1       5.503   2.118  19.416  1.00  0.00     0.000 C
HETATM   19  C19 UNL     1       5.743   3.502  18.901  1.00  0.00    -0.036 A
HETATM   20  C20 UNL     1       4.967   4.204  17.918  1.00  0.00     0.011 A
HETATM   21  C21 UNL     1       6.148   3.496  17.398  1.00  0.00     0.011 A
ENDBRANCH  11  13
ENDBRANCH   8  11
ENDBRANCH   1   7
BRANCH   1  22
HETATM   22  C9  UNL     1       5.949   7.143  22.475  1.00  0.00     0.023 A
HETATM   23  C10 UNL     1       7.158   7.002  23.125  1.00  0.00     0.034 A
HETATM   24  C11 UNL     1       8.100   7.780  22.488  1.00  0.00     0.111 A
HETATM   25  N2  UNL     1       7.467   8.406  21.438  1.00  0.00    -0.237 N
HETATM   26  C13 UNL     1       6.169   8.012  21.441  1.00  0.00     0.187 A
BRANCH  25  27
HETATM   27  S1  UNL     1       8.250   9.481  20.335  1.00  0.00     0.233 S
HETATM   28  C12 UNL     1       7.709  11.150  20.620  1.00  0.00     0.186 C
HETATM   29  O3  UNL     1       7.972   9.141  18.908  1.00  0.00    -0.206 OA
HETATM   30  O4  UNL     1       9.752   9.465  20.584  1.00  0.00    -0.206 OA
ENDBRANCH  25  27
BRANCH  26  31
HETATM   31  S2  UNL     1       4.930   8.511  20.333  1.00  0.00     0.350 S
HETATM   32  O5  UNL     1       4.987   9.990  20.137  1.00  0.00    -0.187 OA
HETATM   33  O6  UNL     1       5.189   7.956  18.939  1.00  0.00    -0.187 OA
HETATM   34  F1  UNL     1       3.381   8.141  20.826  1.00  0.00    -0.099 F
ENDBRANCH  26  31
ENDBRANCH   1  22
TORSDOF 6
ENDMDL