MODEL 4
REMARK VINA RESULT: -6.718930715      4.201      6.585
REMARK  9 active torsions:
REMARK  status: ('A' for Active; 'I' for Inactive)
REMARK    1  A    between atoms: O1_2  and  C2_3
REMARK    2  A    between atoms: C2_3  and  C3_5
REMARK    3  A    between atoms: C5_7  and  C6_8
REMARK    4  A    between atoms: C6_8  and  C7_9
REMARK    5  A    between atoms: C8_10  and  C10_12
REMARK       I    between atoms: C10_12  and  N1_14
REMARK    6  A    between atoms: C11_16  and  C12_17
REMARK    7  A    between atoms: C14_20  and  O4_22
REMARK    8  A    between atoms: C17_26  and  O6_27
REMARK    9  A    between atoms: O6_27  and  C18_28
ROOT
HETATM    1  C3  UNL     1       2.691   9.418  24.471  1.00  0.00     0.091 C
HETATM    2  C4  UNL     1       3.568   8.486  25.323  1.00  0.00     0.025 C
HETATM    3  C5  UNL     1       4.215   8.093  23.997  1.00  0.00    -0.028 C
HETATM    4  C13 UNL     1       4.747   6.732  24.006  1.00  0.00     0.055 C
HETATM    5  C14 UNL     1       4.857   5.977  22.731  1.00  0.00     0.118 C
HETATM    6  C15 UNL     1       5.873   6.377  21.749  1.00  0.00     0.054 C
HETATM    7  C16 UNL     1       3.516   5.905  22.114  1.00  0.00     0.190 C
HETATM    8  O5  UNL     1       3.483   5.766  20.929  1.00  0.00    -0.292 OA
HETATM    9  C17 UNL     1       2.263   5.995  22.882  1.00  0.00     0.208 C
HETATM   10  C20 UNL     1       1.876   7.389  23.231  1.00  0.00     0.024 C
HETATM   11  C21 UNL     1       0.844   7.770  22.148  1.00  0.00     0.013 C
HETATM   12  C22 UNL     1       2.913   8.402  23.383  1.00  0.00     0.014 C
ENDROOT
BRANCH   3  13
HETATM   13  C6  UNL     1       5.325   9.086  23.697  1.00  0.00     0.038 C
BRANCH  13  14
HETATM   14  C7  UNL     1       6.631   8.541  24.132  1.00  0.00    -0.014 C
HETATM   15  C8  UNL     1       7.782   8.911  23.588  1.00  0.00     0.002 C
HETATM   16  C9  UNL     1       7.834   9.903  22.499  1.00  0.00     0.054 C
BRANCH  15  17
HETATM   17  C10 UNL     1       9.014   8.327  24.080  1.00  0.00     0.250 C
HETATM   18  O3  UNL     1       8.997   7.360  24.923  1.00  0.00    -0.268 OA
HETATM   19  N1  UNL     1      10.257   8.845  23.609  1.00  0.00    -0.336 N
HETATM   20  C11 UNL     1      11.201   9.218  24.397  1.00  0.00     0.075 C
ATOM     21  H1  UNL     1      10.404   8.922  22.603  1.00  0.00     0.168 HD
BRANCH  20  22
HETATM   22  C12 UNL     1      11.060   9.133  25.856  1.00  0.00     0.129 C
HETATM   23 BR1  UNL     1      12.216   7.735  26.534  1.00  0.00    -0.091 Br
ENDBRANCH  20  22
ENDBRANCH  15  17
ENDBRANCH  13  14
ENDBRANCH   3  13
BRANCH   1  24
HETATM   24  C2  UNL     1       1.403   9.680  25.049  1.00  0.00     0.263 C
HETATM   25  O2  UNL     1       0.621  10.594  24.755  1.00  0.00    -0.265 OA
BRANCH  24  26
HETATM   26  O1  UNL     1       0.949   8.817  26.072  1.00  0.00    -0.326 OA
HETATM   27  C1  UNL     1      -0.400   8.393  26.125  1.00  0.00     0.213 C
ENDBRANCH  24  26
ENDBRANCH   1  24
BRANCH   5  28
HETATM   28  O4  UNL     1       5.149   4.637  23.106  1.00  0.00    -0.382 OA
ATOM     29  H4  UNL     1       4.318   4.262  23.376  1.00  0.00     0.211 HD
ENDBRANCH   5  28
BRANCH   9  30
HETATM   30  O6  UNL     1       1.270   5.319  22.130  1.00  0.00    -0.308 OA
BRANCH  30  31
HETATM   31  C18 UNL     1       0.807   4.082  22.542  1.00  0.00     0.255 C
HETATM   32  C19 UNL     1       1.347   3.452  23.775  1.00  0.00     0.126 C
HETATM   33  O7  UNL     1      -0.075   3.493  21.865  1.00  0.00    -0.266 OA
ENDBRANCH  30  31
ENDBRANCH   9  30
TORSDOF 9
ENDMDL