MODEL 4
REMARK VINA RESULT: -8.314611357      2.801      4.752
REMARK  8 active torsions:
REMARK  status: ('A' for Active; 'I' for Inactive)
REMARK    1  A    between atoms: O1_2  and  C2_3
REMARK    2  A    between atoms: C7_8  and  O2_9
REMARK    3  A    between atoms: N1_12  and  C10_13
REMARK    4  A    between atoms: C13_17  and  O3_18
REMARK    5  A    between atoms: O3_18  and  C14_19
REMARK       I    between atoms: C14_19  and  N2_21
REMARK    6  A    between atoms: C16_23  and  N3_24
REMARK    7  A    between atoms: C19_27  and  C20_28
REMARK    8  A    between atoms: C20_28  and  N4_29
ROOT
HETATM    1  C10 UNL     1       3.684   2.488  21.440  1.00  0.00     0.174 C
HETATM    2  F1  UNL     1       2.713   1.559  21.107  1.00  0.00    -0.220 F
HETATM    3  C11 UNL     1       3.249   3.797  20.806  1.00  0.00     0.069 C
HETATM    4  C12 UNL     1       1.900   4.222  21.360  1.00  0.00     0.037 C
HETATM    5  C13 UNL     1       1.893   4.273  22.854  1.00  0.00     0.134 C
HETATM    6  C24 UNL     1       3.296   4.035  23.366  1.00  0.00     0.037 C
HETATM    7  C25 UNL     1       3.684   2.620  22.924  1.00  0.00     0.069 C
ENDROOT
BRANCH   5   8
HETATM    8  O3  UNL     1       1.322   5.437  23.385  1.00  0.00    -0.298 OA
BRANCH   8   9
HETATM    9  C14 UNL     1       1.847   6.113  24.471  1.00  0.00     0.363 C
HETATM   10  O4  UNL     1       1.557   5.701  25.608  1.00  0.00    -0.238 OA
HETATM   11  N2  UNL     1       2.691   7.243  24.332  1.00  0.00    -0.324 N
HETATM   12  C15 UNL     1       3.185   7.924  23.130  1.00  0.00     0.165 C
HETATM   13  C23 UNL     1       3.413   8.187  25.164  1.00  0.00     0.165 C
HETATM   14  C16 UNL     1       4.310   8.502  23.951  1.00  0.00     0.259 C
BRANCH  14  15
HETATM   15  N3  UNL     1       5.503   7.741  24.050  1.00  0.00     0.096 N
HETATM   16  C17 UNL     1       6.495   8.440  24.784  1.00  0.00     0.273 C
HETATM   17  C18 UNL     1       7.701   8.849  24.007  1.00  0.00     0.036 C
HETATM   18  C19 UNL     1       7.482   9.075  22.557  1.00  0.00     0.014 C
HETATM   19  C21 UNL     1       6.495   8.173  21.903  1.00  0.00     0.036 C
HETATM   20  C22 UNL     1       5.986   7.125  22.866  1.00  0.00     0.273 C
BRANCH  18  21
HETATM   21  C20 UNL     1       8.828   8.838  21.854  1.00  0.00     0.234 C
BRANCH  21  22
HETATM   22  N4  UNL     1       9.892   8.971  22.830  1.00  0.00    -0.079 N
ATOM     23  H43 UNL     1       9.605   9.505  23.650  1.00  0.00     0.274 HD
ATOM     24  H42 UNL     1      10.102   8.091  23.301  1.00  0.00     0.274 HD
ATOM     25  H41 UNL     1      10.709   9.372  22.369  1.00  0.00     0.274 HD
ENDBRANCH  21  22
ENDBRANCH  18  21
ENDBRANCH  14  15
ENDBRANCH   8   9
ENDBRANCH   5   8
BRANCH   1  26
HETATM   26  N1  UNL     1       4.924   2.100  20.862  1.00  0.00    -0.374 N
HETATM   27  C9  UNL     1       4.977   2.153  19.440  1.00  0.00     0.159 C
HETATM   28  C5  UNL     1       6.185   1.514  18.873  1.00  0.00    -0.031 A
HETATM   29  C4  UNL     1       7.365   1.684  19.561  1.00  0.00    -0.046 A
HETATM   30  C6  UNL     1       6.127   0.794  17.727  1.00  0.00     0.049 A
HETATM   31  C3  UNL     1       8.528   1.117  19.091  1.00  0.00     0.047 A
HETATM   32  C27 UNL     1       7.370   2.480  20.804  1.00  0.00     0.058 C
HETATM   33  C2  UNL     1       8.468   0.381  17.918  1.00  0.00     0.102 A
HETATM   34  C7  UNL     1       7.284   0.204  17.217  1.00  0.00     0.102 A
HETATM   35  C26 UNL     1       6.093   2.511  21.551  1.00  0.00     0.125 C
BRANCH  33  36
HETATM   36  O1  UNL     1       9.598  -0.223  17.379  1.00  0.00    -0.353 OA
HETATM   37  C1  UNL     1      10.680  -0.697  18.153  1.00  0.00     0.210 C
ENDBRANCH  33  36
BRANCH  34  38
HETATM   38  O2  UNL     1       7.256  -0.540  16.043  1.00  0.00    -0.353 OA
HETATM   39  C8  UNL     1       6.029  -1.133  15.653  1.00  0.00     0.210 C
ENDBRANCH  34  38
ENDBRANCH   1  26
TORSDOF 8
ENDMDL