MODEL 3
REMARK VINA RESULT: -6.616800445      1.129      1.601
REMARK  8 active torsions:
REMARK  status: ('A' for Active; 'I' for Inactive)
REMARK    1  A    between atoms: C2_2  and  C4_4
REMARK    2  A    between atoms: C7_7  and  N1_8
REMARK       I    between atoms: N2_11  and  C10_12
REMARK       I    between atoms: C10_12  and  N3_14
REMARK    3  A    between atoms: N3_14  and  C11_16
REMARK    4  A    between atoms: C11_16  and  C12_17
REMARK    5  A    between atoms: C13_21  and  C14_22
REMARK    6  A    between atoms: C14_22  and  C15_23
REMARK    7  A    between atoms: C15_23  and  C16_24
REMARK    8  A    between atoms: C16_24  and  C17_25
ROOT
HETATM    1  N1  UNL     1       5.938  37.782  78.296  1.00  0.00    -0.375 N
HETATM    2  C8  UNL     1       6.833  37.337  79.335  1.00  0.00     0.143 C
HETATM    3  C9  UNL     1       7.084  35.828  79.178  1.00  0.00     0.148 C
HETATM    4  N2  UNL     1       7.594  35.665  77.850  1.00  0.00    -0.326 N
HETATM    5  C10 UNL     1       8.929  35.185  77.599  1.00  0.00     0.318 C
HETATM    6  O1  UNL     1       9.191  35.104  76.362  1.00  0.00    -0.247 OA
HETATM    7  N3  UNL     1       9.804  34.857  78.626  1.00  0.00    -0.339 N
ATOM      8  H3  UNL     1       9.452  34.958  79.578  1.00  0.00     0.164 HD
HETATM    9  C13 UNL     1       6.693  36.014  76.757  1.00  0.00     0.106 C
HETATM   10  C19 UNL     1       6.204  37.405  76.933  1.00  0.00     0.148 C
ENDROOT
BRANCH   1  11
HETATM   11  C7  UNL     1       4.825  38.577  78.645  1.00  0.00     0.069 A
HETATM   12  C6  UNL     1       4.739  39.892  78.236  1.00  0.00     0.033 A
HETATM   13  C5  UNL     1       3.663  40.688  78.565  1.00  0.00     0.010 A
HETATM   14  C4  UNL     1       2.615  40.207  79.320  1.00  0.00    -0.052 A
HETATM   15  C21 UNL     1       2.690  38.894  79.734  1.00  0.00     0.052 A
HETATM   16  C20 UNL     1       3.767  38.096  79.406  1.00  0.00     0.143 A
HETATM   17  F1  UNL     1       3.856  36.791  79.809  1.00  0.00    -0.204 F
BRANCH  14  18
HETATM   18  C2  UNL     1       1.457  41.082  79.668  1.00  0.00     0.010 C
HETATM   19  C1  UNL     1       0.665  40.555  80.829  1.00  0.00     0.015 C
HETATM   20  C3  UNL     1       1.909  42.485  80.006  1.00  0.00     0.015 C
ENDBRANCH  14  18
ENDBRANCH   1  11
BRANCH   9  21
HETATM   21  C14 UNL     1       5.671  34.959  76.618  1.00  0.00     0.027 C
BRANCH  21  22
HETATM   22  C15 UNL     1       6.014  33.842  75.683  1.00  0.00     0.006 C
BRANCH  22  23
HETATM   23  C16 UNL     1       6.498  32.595  76.407  1.00  0.00     0.028 C
BRANCH  23  24
HETATM   24  C17 UNL     1       5.759  31.447  75.774  1.00  0.00    -0.015 C
HETATM   25  C18 UNL     1       4.614  31.004  76.231  1.00  0.00     0.080 C
HETATM   26 CL4  UNL     1       3.790  31.668  77.616  1.00  0.00    -0.097 Cl
ENDBRANCH  23  24
ENDBRANCH  22  23
ENDBRANCH  21  22
ENDBRANCH   9  21
BRANCH   7  27
HETATM   27  C11 UNL     1      11.137  34.395  78.485  1.00  0.00     0.183 C
BRANCH  27  28
HETATM   28  C12 UNL     1      11.352  32.931  78.348  1.00  0.00     0.204 C
HETATM   29 CL1  UNL     1       9.920  32.018  78.908  1.00  0.00    -0.082 Cl
HETATM   30 CL2  UNL     1      11.458  32.525  76.572  1.00  0.00    -0.082 Cl
HETATM   31 CL3  UNL     1      12.790  32.272  79.070  1.00  0.00    -0.082 Cl
ENDBRANCH  27  28
ENDBRANCH   7  27
TORSDOF 8
ENDMDL