MODEL 4
REMARK VINA RESULT: -5.551755336      2.737      5.442
REMARK  8 active torsions:
REMARK  status: ('A' for Active; 'I' for Inactive)
REMARK    1  A    between atoms: C1_2  and  C2_3
REMARK    2  A    between atoms: C2_3  and  N1_4
REMARK    3  A    between atoms: N1_4  and  C3_5
REMARK    4  A    between atoms: N1_4  and  C5_8
REMARK    5  A    between atoms: C3_5  and  C4_6
REMARK    6  A    between atoms: C5_8  and  N2_9
REMARK    7  A    between atoms: C5_8  and  C20_27
REMARK    8  A    between atoms: C8_12  and  C9_13
ROOT
HETATM    1  N2  UNL     1       8.163  34.081  76.940  1.00  0.00    -0.357 N
HETATM    2  C6  UNL     1       9.358  33.544  77.479  1.00  0.00     0.125 C
HETATM    3  C7  UNL     1      10.418  33.217  76.409  1.00  0.00     0.025 C
HETATM    4  C8  UNL     1       9.823  32.146  75.565  1.00  0.00    -0.006 C
HETATM    5  C14 UNL     1       8.495  31.787  76.066  1.00  0.00     0.036 C
HETATM    6  C15 UNL     1       7.550  33.012  76.241  1.00  0.00     0.034 C
HETATM    7  C16 UNL     1       7.199  33.257  74.791  1.00  0.00     0.031 C
HETATM    8  C17 UNL     1       5.988  32.392  74.492  1.00  0.00     0.002 C
HETATM    9  C18 UNL     1       5.497  31.799  75.759  1.00  0.00     0.002 C
HETATM   10  C19 UNL     1       6.374  32.335  76.879  1.00  0.00     0.031 C
ENDROOT
BRANCH   1  11
HETATM   11  C5  UNL     1       7.440  35.015  77.697  1.00  0.00     0.141 C
BRANCH  11  12
HETATM   12  N1  UNL     1       7.610  34.901  79.160  1.00  0.00    -0.324 N
BRANCH  12  13
HETATM   13  C2  UNL     1       6.609  34.150  79.784  1.00  0.00     0.085 C
BRANCH  13  14
HETATM   14  C1  UNL     1       5.355  34.652  80.306  1.00  0.00     0.159 C
HETATM   15 CL1  UNL     1       4.137  34.373  78.966  1.00  0.00    -0.125 Cl
ENDBRANCH  13  14
ENDBRANCH  12  13
BRANCH  12  16
HETATM   16  C3  UNL     1       8.793  35.219  79.775  1.00  0.00     0.085 C
BRANCH  16  17
HETATM   17  C4  UNL     1       8.937  35.065  81.292  1.00  0.00     0.159 C
HETATM   18 CL2  UNL     1       8.225  36.538  82.084  1.00  0.00    -0.125 Cl
ENDBRANCH  16  17
ENDBRANCH  12  16
ENDBRANCH  11  12
BRANCH  11  19
HETATM   19  C20 UNL     1       7.416  36.440  77.402  1.00  0.00     0.247 C
HETATM   20 CL3  UNL     1       6.677  37.530  78.583  1.00  0.00    -0.075 Cl
HETATM   21 CL4  UNL     1       6.260  36.673  75.981  1.00  0.00    -0.075 Cl
HETATM   22 CL5  UNL     1       8.788  37.187  76.542  1.00  0.00    -0.075 Cl
ENDBRANCH  11  19
ENDBRANCH   1  11
BRANCH   4  23
HETATM   23  C9  UNL     1      10.770  30.975  75.518  1.00  0.00    -0.007 C
HETATM   24  C10 UNL     1       9.988  29.710  75.798  1.00  0.00     0.032 C
HETATM   25  C11 UNL     1      10.820  28.488  75.540  1.00  0.00     0.232 C
HETATM   26  N3  UNL     1      12.200  28.871  75.408  1.00  0.00    -0.075 N
HETATM   27  C12 UNL     1      12.635  29.735  76.477  1.00  0.00     0.232 C
ATOM     28  H32 UNL     1      12.803  28.052  75.328  1.00  0.00     0.277 HD
ATOM     29  H31 UNL     1      12.380  29.293  74.497  1.00  0.00     0.277 HD
HETATM   30  C13 UNL     1      11.910  31.063  76.455  1.00  0.00     0.032 C
ENDBRANCH   4  23
TORSDOF 8
ENDMDL