MODEL 1
REMARK VINA RESULT: -8.933472616      0.000      0.000
REMARK  7 active torsions:
REMARK  status: ('A' for Active; 'I' for Inactive)
REMARK       I    between atoms: C2_2  and  N1_4
REMARK    1  A    between atoms: N1_4  and  C3_6
REMARK    2  A    between atoms: C3_6  and  C4_7
REMARK    3  A    between atoms: C3_6  and  C13_22
REMARK    4  A    between atoms: C4_7  and  C5_8
REMARK    5  A    between atoms: C7_10  and  O2_11
REMARK    6  A    between atoms: O2_11  and  C8_12
REMARK    7  A    between atoms: C8_12  and  C9_15
ROOT
HETATM    1  C3  UNL     1       7.827  35.649  76.396  1.00  0.00     0.093 C
ENDROOT
BRANCH   1   2
HETATM    2  N1  UNL     1       8.614  36.675  75.813  1.00  0.00    -0.356 N
HETATM    3  C2  UNL     1       8.086  37.866  75.246  1.00  0.00     0.213 C
HETATM    4  C1  UNL     1       8.993  38.871  74.663  1.00  0.00     0.117 C
HETATM    5  O1  UNL     1       6.852  38.085  75.231  1.00  0.00    -0.274 OA
ATOM      6  H1  UNL     1       9.626  36.549  75.798  1.00  0.00     0.162 HD
ENDBRANCH   1   2
BRANCH   1   7
HETATM    7  C4  UNL     1       7.808  35.715  77.883  1.00  0.00     0.067 C
BRANCH   7   8
HETATM    8  C5  UNL     1       6.552  36.196  78.496  1.00  0.00    -0.015 A
HETATM    9  C6  UNL     1       6.261  37.552  78.533  1.00  0.00     0.047 A
HETATM   10  C7  UNL     1       5.115  38.074  79.139  1.00  0.00     0.076 A
HETATM   11  C10 UNL     1       4.264  37.161  79.714  1.00  0.00     0.040 A
HETATM   12  C11 UNL     1       4.551  35.810  79.677  1.00  0.00     0.045 A
HETATM   13  C12 UNL     1       5.696  35.295  79.070  1.00  0.00     0.122 A
HETATM   14  F5  UNL     1       5.890  33.944  79.044  1.00  0.00    -0.206 F
BRANCH  10  15
HETATM   15  O2  UNL     1       4.875  39.425  79.153  1.00  0.00    -0.279 OA
BRANCH  15  16
HETATM   16  C8  UNL     1       4.243  40.253  78.267  1.00  0.00     0.418 C
HETATM   17  F1  UNL     1       4.775  40.342  77.004  1.00  0.00    -0.169 F
HETATM   18  F2  UNL     1       2.976  39.583  78.024  1.00  0.00    -0.169 F
BRANCH  16  19
HETATM   19  C9  UNL     1       3.796  41.589  78.783  1.00  0.00     0.455 C
HETATM   20  F3  UNL     1       4.755  42.418  79.246  1.00  0.00    -0.205 F
HETATM   21  F4  UNL     1       2.818  41.464  79.761  1.00  0.00    -0.205 F
ENDBRANCH  16  19
ENDBRANCH  15  16
ENDBRANCH  10  15
ENDBRANCH   7   8
ENDBRANCH   1   7
BRANCH   1  22
HETATM   22  C13 UNL     1       8.209  34.238  75.912  1.00  0.00     0.017 C
HETATM   23  C14 UNL     1       7.091  33.321  76.001  1.00  0.00    -0.007 C
HETATM   24  C15 UNL     1       6.953  32.592  74.648  1.00  0.00     0.005 C
HETATM   25  C25 UNL     1       7.259  32.109  76.935  1.00  0.00     0.015 C
HETATM   26  C16 UNL     1       8.296  32.014  74.384  1.00  0.00     0.006 C
HETATM   27  C17 UNL     1       9.213  31.813  75.524  1.00  0.00    -0.002 C
HETATM   28  C18 UNL     1      10.293  32.889  75.596  1.00  0.00    -0.005 C
HETATM   29  C24 UNL     1       8.707  31.815  76.894  1.00  0.00    -0.036 C
HETATM   30  C19 UNL     1      11.483  32.348  76.282  1.00  0.00     0.009 C
HETATM   31  C27 UNL     1       9.530  33.899  76.491  1.00  0.00    -0.003 C
HETATM   32  C20 UNL     1      11.531  30.941  76.690  1.00  0.00    -0.018 C
HETATM   33  C21 UNL     1      12.965  30.753  77.261  1.00  0.00     0.010 C
HETATM   34  C22 UNL     1      10.607  30.342  77.616  1.00  0.00     0.005 C
HETATM   35  C23 UNL     1       9.168  30.612  77.639  1.00  0.00     0.010 C
HETATM   36  C26 UNL     1       9.315  33.008  77.651  1.00  0.00     0.015 C
ENDBRANCH   1  22
TORSDOF 7
ENDMDL