MODEL 5
REMARK VINA RESULT: -8.051474522      2.417      3.324
REMARK  8 active torsions:
REMARK  status: ('A' for Active; 'I' for Inactive)
REMARK    1  A    between atoms: N1_4  and  C4_5
REMARK    2  A    between atoms: C7_8  and  C8_9
REMARK    3  A    between atoms: C8_9  and  C9_10
REMARK    4  A    between atoms: C9_10  and  N2_11
REMARK       I    between atoms: N2_11  and  C10_13
REMARK    5  A    between atoms: C10_13  and  C11_15
REMARK    6  A    between atoms: C11_15  and  C12_16
REMARK    7  A    between atoms: C20_24  and  C21_25
REMARK    8  A    between atoms: C21_25  and  C22_26
ROOT
HETATM    1  C1  UNL     1       9.197  36.247  78.768  1.00  0.00     0.012 C
HETATM    2  C2  UNL     1       8.554  36.716  77.464  1.00  0.00     0.014 C
HETATM    3  C3  UNL     1       8.939  35.651  76.412  1.00  0.00     0.277 C
HETATM    4  N1  UNL     1       7.928  34.668  76.340  1.00  0.00     0.093 N
HETATM    5  C18 UNL     1       6.671  35.154  75.805  1.00  0.00     0.273 C
HETATM    6  C19 UNL     1       6.444  36.569  76.231  1.00  0.00     0.035 C
HETATM    7  C20 UNL     1       7.093  36.846  77.592  1.00  0.00    -0.003 C
ENDROOT
BRANCH   4   8
HETATM    8  C4  UNL     1       8.346  33.450  75.624  1.00  0.00     0.223 C
HETATM    9  C5  UNL     1       7.623  32.311  76.246  1.00  0.00     0.036 C
HETATM   10  C6  UNL     1       8.543  31.289  76.871  1.00  0.00     0.007 C
HETATM   11  C7  UNL     1       9.481  30.854  75.694  1.00  0.00    -0.013 C
HETATM   12  C16 UNL     1      10.437  31.968  75.620  1.00  0.00     0.007 C
HETATM   13  C17 UNL     1       9.819  33.328  75.542  1.00  0.00     0.036 C
BRANCH  11  14
HETATM   14  C8  UNL     1       9.956  29.490  75.991  1.00  0.00     0.024 C
BRANCH  14  15
HETATM   15  C9  UNL     1      11.378  29.379  76.365  1.00  0.00     0.123 C
BRANCH  15  16
HETATM   16  N2  UNL     1      11.661  29.666  77.726  1.00  0.00    -0.361 N
HETATM   17  C10 UNL     1      12.917  30.196  78.113  1.00  0.00     0.218 C
HETATM   18  O1  UNL     1      13.788  30.423  77.267  1.00  0.00    -0.274 OA
ATOM     19  H2  UNL     1      10.951  29.487  78.436  1.00  0.00     0.162 HD
BRANCH  17  20
HETATM   20  C11 UNL     1      13.164  30.473  79.548  1.00  0.00     0.111 C
BRANCH  20  21
HETATM   21  C12 UNL     1      12.656  31.845  79.928  1.00  0.00    -0.043 C
HETATM   22  C13 UNL     1      11.200  31.695  80.348  1.00  0.00     0.015 C
HETATM   23  C14 UNL     1      12.731  32.837  78.815  1.00  0.00     0.015 C
HETATM   24  C15 UNL     1      13.430  32.343  81.138  1.00  0.00     0.015 C
ENDBRANCH  20  21
ENDBRANCH  17  20
ENDBRANCH  15  16
ENDBRANCH  14  15
ENDBRANCH  11  14
ENDBRANCH   4   8
BRANCH   7  25
HETATM   25  C21 UNL     1       6.532  38.113  78.099  1.00  0.00     0.050 C
BRANCH  25  26
HETATM   26  C22 UNL     1       5.233  38.085  78.778  1.00  0.00     0.023 A
HETATM   27  C23 UNL     1       4.782  37.056  79.555  1.00  0.00     0.128 A
HETATM   28  F1  UNL     1       5.563  35.966  79.864  1.00  0.00    -0.205 F
HETATM   29  C24 UNL     1       3.504  37.137  80.094  1.00  0.00     0.088 A
HETATM   30  C25 UNL     1       2.684  38.210  79.877  1.00  0.00     0.161 A
HETATM   31  F2  UNL     1       1.423  38.291  80.408  1.00  0.00    -0.203 F
HETATM   32  C26 UNL     1       3.113  39.260  79.099  1.00  0.00     0.194 A
HETATM   33  F3  UNL     1       2.292  40.318  78.893  1.00  0.00    -0.200 F
HETATM   34  C27 UNL     1       4.371  39.178  78.568  1.00  0.00     0.167 A
HETATM   35  F4  UNL     1       4.785  40.237  77.794  1.00  0.00    -0.202 F
ENDBRANCH  25  26
ENDBRANCH   7  25
TORSDOF 8
ENDMDL