MODEL 1
REMARK VINA RESULT: -6.531610602      0.000      0.000
REMARK  9 active torsions:
REMARK  status: ('A' for Active; 'I' for Inactive)
REMARK    1  A    between atoms: C2_2  and  C3_3
REMARK    2  A    between atoms: C3_3  and  C4_4
REMARK    3  A    between atoms: C4_4  and  C7_7
REMARK    4  A    between atoms: C12_15  and  C13_16
REMARK    5  A    between atoms: C13_16  and  C14_17
REMARK    6  A    between atoms: C14_17  and  C15_18
REMARK    7  A    between atoms: C15_18  and  C16_19
REMARK       I    between atoms: C16_19  and  N1_21
REMARK    8  A    between atoms: C24_31  and  C25_32
REMARK    9  A    between atoms: C25_32  and  N2_33
ROOT
HETATM    1  C14 UNL     1      10.181  32.632  78.258  1.00  0.00     0.001 C
HETATM    2  C22 UNL     1      10.385  31.165  78.280  1.00  0.00     0.018 C
HETATM    3  C23 UNL     1      11.168  30.610  77.127  1.00  0.00     0.007 C
HETATM    4  C24 UNL     1      12.536  31.186  77.240  1.00  0.00     0.011 C
HETATM    5  C26 UNL     1      12.627  32.579  77.722  1.00  0.00     0.007 C
HETATM    6  C27 UNL     1      11.650  33.086  78.713  1.00  0.00     0.018 C
ENDROOT
BRANCH   1   7
HETATM    7  C13 UNL     1       9.937  33.341  76.974  1.00  0.00     0.002 C
BRANCH   7   8
HETATM    8  C12 UNL     1       9.000  34.360  76.649  1.00  0.00     0.010 A
HETATM    9  C7  UNL     1       7.844  33.915  75.940  1.00  0.00    -0.034 A
HETATM   10  C8  UNL     1       6.958  34.920  75.610  1.00  0.00     0.054 A
HETATM   11  C9  UNL     1       7.130  36.264  75.927  1.00  0.00     0.158 A
HETATM   12  F1  UNL     1       6.224  37.227  75.583  1.00  0.00    -0.203 F
HETATM   13  C10 UNL     1       8.251  36.640  76.609  1.00  0.00     0.194 A
HETATM   14  F2  UNL     1       8.454  37.947  76.938  1.00  0.00    -0.200 F
HETATM   15  C11 UNL     1       9.191  35.678  76.971  1.00  0.00     0.168 A
HETATM   16  F3  UNL     1      10.233  36.190  77.661  1.00  0.00    -0.202 F
BRANCH   9  17
HETATM   17  C4  UNL     1       7.559  32.593  75.440  1.00  0.00    -0.019 C
HETATM   18  C5  UNL     1       6.386  32.532  74.494  1.00  0.00     0.020 C
HETATM   19  C6  UNL     1       8.684  31.881  74.824  1.00  0.00     0.020 C
BRANCH  17  20
HETATM   20  C3  UNL     1       7.032  31.691  76.582  1.00  0.00     0.013 C
BRANCH  20  21
HETATM   21  C2  UNL     1       7.305  30.249  76.440  1.00  0.00    -0.004 C
HETATM   22  C1  UNL     1       6.078  29.393  76.792  1.00  0.00     0.005 C
ENDBRANCH  20  21
ENDBRANCH  17  20
ENDBRANCH   9  17
ENDBRANCH   7   8
ENDBRANCH   1   7
BRANCH   1  23
HETATM   23  C15 UNL     1       9.372  32.981  79.444  1.00  0.00     0.061 C
BRANCH  23  24
HETATM   24  C16 UNL     1       8.155  32.282  79.787  1.00  0.00     0.240 C
HETATM   25  O1  UNL     1       7.965  31.058  79.976  1.00  0.00    -0.269 OA
HETATM   26  N1  UNL     1       6.983  33.083  79.937  1.00  0.00    -0.343 N
HETATM   27  C17 UNL     1       5.733  32.399  80.281  1.00  0.00     0.126 C
HETATM   28  C21 UNL     1       7.051  34.493  79.749  1.00  0.00     0.205 C
HETATM   29  C18 UNL     1       4.707  33.002  79.312  1.00  0.00     0.026 C
HETATM   30  C19 UNL     1       4.514  34.425  79.773  1.00  0.00     0.082 C
HETATM   31  C20 UNL     1       5.761  35.223  79.763  1.00  0.00     0.259 C
HETATM   32  F4  UNL     1       5.708  36.037  78.619  1.00  0.00    -0.205 F
HETATM   33  F5  UNL     1       5.677  36.117  80.839  1.00  0.00    -0.205 F
ENDBRANCH  23  24
ENDBRANCH   1  23
BRANCH   4  34
HETATM   34  C25 UNL     1      13.409  30.292  78.132  1.00  0.00     0.234 C
BRANCH  34  35
HETATM   35  N2  UNL     1      14.158  29.331  77.385  1.00  0.00    -0.079 N
ATOM     36  H23 UNL     1      13.725  29.153  76.479  1.00  0.00     0.274 HD
ATOM     37  H22 UNL     1      15.045  29.724  77.070  1.00  0.00     0.274 HD
ATOM     38  H21 UNL     1      14.305  28.461  77.897  1.00  0.00     0.274 HD
ENDBRANCH  34  35
ENDBRANCH   4  34
TORSDOF 9
ENDMDL