MODEL 1
REMARK VINA RESULT: -6.741663663      0.000      0.000
REMARK  7 active torsions:
REMARK  status: ('A' for Active; 'I' for Inactive)
REMARK    1  A    between atoms: C2_2  and  C3_3
REMARK    2  A    between atoms: C3_3  and  C4_4
REMARK    3  A    between atoms: C4_4  and  C5_5
REMARK    4  A    between atoms: C5_5  and  C6_6
REMARK    5  A    between atoms: C6_6  and  N1_7
REMARK    6  A    between atoms: N2_13  and  C10_14
REMARK    7  A    between atoms: C18_25  and  C19_26
ROOT
HETATM    1  N1  UNL     1       5.094  34.453  79.011  1.00  0.00    -0.385 N
HETATM    2  C7  UNL     1       5.018  33.973  77.690  1.00  0.00     0.143 C
HETATM    3  C8  UNL     1       6.312  33.509  77.035  1.00  0.00     0.316 C
HETATM    4  F1  UNL     1       6.085  32.146  76.776  1.00  0.00    -0.193 F
HETATM    5  F2  UNL     1       6.368  34.117  75.821  1.00  0.00    -0.193 F
HETATM    6  C9  UNL     1       7.437  33.691  77.955  1.00  0.00     0.105 C
HETATM    7  N2  UNL     1       8.741  33.219  77.748  1.00  0.00    -0.293 N
HETATM    8  C17 UNL     1       9.459  33.985  78.764  1.00  0.00     0.324 C
HETATM    9  O1  UNL     1      10.644  33.772  79.197  1.00  0.00    -0.247 OA
HETATM   10  N3  UNL     1       8.700  35.042  79.263  1.00  0.00    -0.322 N
ATOM     11  H3  UNL     1       8.982  35.699  79.991  1.00  0.00     0.165 HD
HETATM   12  C18 UNL     1       7.423  35.033  78.552  1.00  0.00     0.126 C
HETATM   13  C25 UNL     1       6.281  34.938  79.570  1.00  0.00     0.165 C
ENDROOT
BRANCH  12  14
HETATM   14  C19 UNL     1       7.213  36.261  77.798  1.00  0.00     0.021 A
HETATM   15  C20 UNL     1       6.159  37.103  78.091  1.00  0.00     0.055 A
HETATM   16  C21 UNL     1       5.898  38.295  77.413  1.00  0.00     0.118 A
HETATM   17  F3  UNL     1       4.857  39.104  77.717  1.00  0.00    -0.206 F
HETATM   18  C22 UNL     1       6.736  38.667  76.388  1.00  0.00     0.069 A
HETATM   19  C23 UNL     1       7.782  37.841  76.090  1.00  0.00     0.076 A
HETATM   20 CL1  UNL     1       8.891  38.273  74.786  1.00  0.00    -0.081 Cl
HETATM   21  C24 UNL     1       8.032  36.672  76.759  1.00  0.00     0.147 A
HETATM   22  F4  UNL     1       9.103  35.907  76.431  1.00  0.00    -0.204 F
ENDBRANCH  12  14
BRANCH   7  23
HETATM   23  C10 UNL     1       9.469  32.310  76.936  1.00  0.00     0.094 C
HETATM   24  C11 UNL     1       9.199  30.843  77.247  1.00  0.00     0.026 C
HETATM   25  C12 UNL     1      10.456  30.048  76.835  1.00  0.00     0.006 C
HETATM   26  C13 UNL     1      11.161  30.670  75.669  1.00  0.00    -0.019 C
HETATM   27  C14 UNL     1      11.691  29.503  74.815  1.00  0.00     0.010 C
HETATM   28  C15 UNL     1      10.312  31.487  74.766  1.00  0.00     0.006 C
HETATM   29  C16 UNL     1       9.350  32.433  75.451  1.00  0.00     0.026 C
ENDBRANCH   7  23
BRANCH   1  30
HETATM   30  C6  UNL     1       4.367  33.578  79.955  1.00  0.00     0.122 C
BRANCH  30  31
HETATM   31  C5  UNL     1       3.496  34.364  80.858  1.00  0.00     0.020 C
BRANCH  31  32
HETATM   32  C4  UNL     1       2.385  35.057  80.086  1.00  0.00     0.002 C
BRANCH  32  33
HETATM   33  C3  UNL     1       2.150  36.399  80.703  1.00  0.00    -0.000 C
BRANCH  33  34
HETATM   34  C2  UNL     1       3.149  37.393  80.103  1.00  0.00    -0.005 C
HETATM   35  C1  UNL     1       2.450  38.744  80.106  1.00  0.00     0.005 C
ENDBRANCH  33  34
ENDBRANCH  32  33
ENDBRANCH  31  32
ENDBRANCH  30  31
ENDBRANCH   1  30
TORSDOF 7
ENDMDL