MODEL 4
REMARK VINA RESULT: -6.336666234      4.131      7.637
REMARK  7 active torsions:
REMARK  status: ('A' for Active; 'I' for Inactive)
REMARK    1  A    between atoms: C11_15  and  C12_16
REMARK    2  A    between atoms: C12_16  and  S1_17
REMARK    3  A    between atoms: S1_17  and  C13_18
REMARK    4  A    between atoms: C13_18  and  C14_19
REMARK    5  A    between atoms: C13_18  and  C18_26
REMARK    6  A    between atoms: C14_19  and  N1_20
REMARK    7  A    between atoms: N1_20  and  C15_23
ROOT
HETATM    1  C12 UNL     1       6.649  37.358  75.959  1.00  0.00     0.084 C
ENDROOT
BRANCH   1   2
HETATM    2  C11 UNL     1       7.737  36.366  76.047  1.00  0.00     0.028 C
HETATM    3  C2  UNL     1       7.242  34.974  75.941  1.00  0.00    -0.049 C
HETATM    4  C1  UNL     1       6.011  34.568  75.952  1.00  0.00     0.020 C
HETATM    5  C3  UNL     1       8.308  33.949  75.857  1.00  0.00     0.021 A
HETATM    6  C4  UNL     1       8.176  32.829  75.020  1.00  0.00     0.169 A
HETATM    7  C8  UNL     1       9.416  34.165  76.636  1.00  0.00    -0.002 A
HETATM    8  F1  UNL     1       7.050  32.717  74.283  1.00  0.00    -0.202 F
HETATM    9  C5  UNL     1       9.197  31.903  74.972  1.00  0.00     0.197 A
HETATM   10  F2  UNL     1       9.066  30.829  74.171  1.00  0.00    -0.199 F
HETATM   11  C6  UNL     1      10.315  32.108  75.750  1.00  0.00     0.197 A
HETATM   12  F3  UNL     1      11.358  31.219  75.739  1.00  0.00    -0.199 F
HETATM   13  C7  UNL     1      10.433  33.211  76.567  1.00  0.00     0.165 A
HETATM   14  F4  UNL     1      11.528  33.398  77.317  1.00  0.00    -0.202 F
HETATM   15  C9  UNL     1       9.510  35.336  77.522  1.00  0.00     0.043 C
HETATM   16  C10 UNL     1       8.693  36.520  77.195  1.00  0.00     0.015 C
ENDBRANCH   1   2
BRANCH   1  17
HETATM   17  S1  UNL     1       6.319  38.025  77.628  1.00  0.00    -0.157 SA
BRANCH  17  18
HETATM   18  C13 UNL     1       5.328  36.852  78.596  1.00  0.00     0.105 C
BRANCH  18  19
HETATM   19  C14 UNL     1       4.270  37.608  79.352  1.00  0.00     0.252 C
BRANCH  19  20
HETATM   20  N1  UNL     1       4.216  39.004  78.971  1.00  0.00    -0.070 N
ATOM     21  H12 UNL     1       4.813  39.591  79.555  1.00  0.00     0.277 HD
ATOM     22  H11 UNL     1       4.673  39.182  78.077  1.00  0.00     0.277 HD
BRANCH  20  23
HETATM   23  C15 UNL     1       2.831  39.438  78.982  1.00  0.00     0.186 A
HETATM   24  C16 UNL     1       2.129  39.636  80.272  1.00  0.00     0.035 A
HETATM   25  C17 UNL     1       2.526  40.828  79.367  1.00  0.00     0.035 A
ENDBRANCH  20  23
ENDBRANCH  19  20
ENDBRANCH  18  19
BRANCH  18  26
HETATM   26  C18 UNL     1       6.233  36.076  79.448  1.00  0.00    -0.043 A
HETATM   27  C19 UNL     1       7.128  36.744  80.256  1.00  0.00     0.010 A
HETATM   28  C20 UNL     1       8.011  36.048  81.088  1.00  0.00     0.019 A
HETATM   29  C21 UNL     1       8.006  34.673  81.120  1.00  0.00     0.011 A
HETATM   30 BR1  UNL     1       9.204  33.678  82.251  1.00  0.00    -0.051 Br
HETATM   31  C22 UNL     1       7.113  33.997  80.314  1.00  0.00     0.019 A
HETATM   32  C23 UNL     1       6.249  34.709  79.499  1.00  0.00     0.010 A
ENDBRANCH  18  26
ENDBRANCH  17  18
ENDBRANCH   1  17
TORSDOF 7
ENDMDL