MODEL 5
REMARK VINA RESULT: -6.954514273      5.863      8.418
REMARK  7 active torsions:
REMARK  status: ('A' for Active; 'I' for Inactive)
REMARK    1  A    between atoms: C2_2  and  C3_3
REMARK    2  A    between atoms: C3_3  and  N1_4
REMARK    3  A    between atoms: N1_4  and  C4_5
REMARK    4  A    between atoms: N1_4  and  C18_25
REMARK    5  A    between atoms: C8_9  and  N2_10
REMARK       I    between atoms: N2_10  and  C9_12
REMARK    6  A    between atoms: C9_12  and  C10_14
REMARK    7  A    between atoms: C10_14  and  C11_15
ROOT
HETATM    1  C4  UNL     1      11.227  30.515  76.269  1.00  0.00     0.085 C
HETATM    2  C5  UNL     1      10.180  30.005  75.270  1.00  0.00     0.025 C
HETATM    3  C6  UNL     1       8.856  30.648  75.618  1.00  0.00     0.004 C
HETATM    4  C7  UNL     1       9.035  32.160  75.426  1.00  0.00     0.025 C
HETATM    5  C8  UNL     1      10.037  32.588  76.535  1.00  0.00     0.086 C
HETATM    6  C17 UNL     1      11.361  31.984  76.117  1.00  0.00     0.050 C
ENDROOT
BRANCH   5   7
HETATM    7  N2  UNL     1      10.042  33.992  76.740  1.00  0.00    -0.356 N
HETATM    8  C9  UNL     1      10.343  34.500  78.024  1.00  0.00     0.222 C
HETATM    9  O1  UNL     1      10.588  33.676  78.986  1.00  0.00    -0.273 OA
ATOM     10  H2  UNL     1       9.830  34.627  75.970  1.00  0.00     0.162 HD
BRANCH   8  11
HETATM   11  C10 UNL     1      10.413  35.927  78.409  1.00  0.00     0.143 C
BRANCH  11  12
HETATM   12  C11 UNL     1       9.013  36.397  78.612  1.00  0.00    -0.026 A
HETATM   13  C12 UNL     1       8.405  36.150  79.828  1.00  0.00     0.011 A
HETATM   14  C13 UNL     1       7.096  36.558  80.008  1.00  0.00     0.026 A
HETATM   15  C14 UNL     1       6.433  37.198  78.972  1.00  0.00     0.057 A
HETATM   16 CL1  UNL     1       4.790  37.704  79.192  1.00  0.00    -0.082 Cl
HETATM   17  C15 UNL     1       7.059  37.436  77.755  1.00  0.00     0.078 A
HETATM   18 CL2  UNL     1       6.215  38.237  76.448  1.00  0.00    -0.081 Cl
HETATM   19  C16 UNL     1       8.362  37.028  77.579  1.00  0.00     0.064 A
HETATM   20 CL3  UNL     1       9.156  37.308  76.058  1.00  0.00    -0.082 Cl
ENDBRANCH  11  12
ENDBRANCH   8  11
ENDBRANCH   5   7
BRANCH   1  21
HETATM   21  N1  UNL     1      12.335  29.696  76.386  1.00  0.00    -0.384 N
BRANCH  21  22
HETATM   22  C3  UNL     1      13.397  30.087  77.205  1.00  0.00     0.058 C
BRANCH  22  23
HETATM   23  C2  UNL     1      13.235  29.985  78.690  1.00  0.00     0.040 C
HETATM   24  C1  UNL     1      13.698  28.788  79.403  1.00  0.00     0.010 C
ENDBRANCH  22  23
ENDBRANCH  21  22
BRANCH  21  25
HETATM   25  C18 UNL     1      12.568  28.692  75.424  1.00  0.00     0.089 C
HETATM   26  C19 UNL     1      13.261  27.469  75.948  1.00  0.00     0.026 C
HETATM   27  C20 UNL     1      13.837  26.635  74.788  1.00  0.00     0.008 C
HETATM   28  C21 UNL     1      14.957  27.321  74.098  1.00  0.00     0.079 C
HETATM   29  C22 UNL     1      14.813  28.797  74.314  1.00  0.00     0.245 C
HETATM   30  F1  UNL     1      15.432  29.275  75.423  1.00  0.00    -0.206 F
HETATM   31  F2  UNL     1      15.395  29.441  73.224  1.00  0.00    -0.206 F
HETATM   32  C23 UNL     1      13.322  29.162  74.243  1.00  0.00     0.104 C
ENDBRANCH  21  25
ENDBRANCH   1  21
TORSDOF 7
ENDMDL