MODEL 3
REMARK VINA RESULT: -6.281148932      1.209      1.394
REMARK  7 active torsions:
REMARK  status: ('A' for Active; 'I' for Inactive)
REMARK    1  A    between atoms: C6_9  and  N1_10
REMARK    2  A    between atoms: N1_10  and  C7_12
REMARK    3  A    between atoms: C10_15  and  N2_16
REMARK    4  A    between atoms: N2_16  and  C11_17
REMARK    5  A    between atoms: N2_16  and  C13_20
REMARK    6  A    between atoms: C11_17  and  C12_18
REMARK    7  A    between atoms: C13_20  and  C14_21
ROOT
HETATM    1  C7  UNL     1       5.820  37.884  77.505  1.00  0.00     0.082 C
HETATM    2  C8  UNL     1       6.760  37.660  78.652  1.00  0.00     0.027 C
HETATM    3  C9  UNL     1       8.011  36.876  78.212  1.00  0.00     0.027 C
HETATM    4  C10 UNL     1       7.495  35.724  77.399  1.00  0.00     0.083 C
HETATM    5  C15 UNL     1       6.930  36.221  76.088  1.00  0.00     0.027 C
HETATM    6  C16 UNL     1       6.632  37.692  76.212  1.00  0.00     0.027 C
ENDROOT
BRANCH   1   7
HETATM    7  N1  UNL     1       5.225  39.198  77.503  1.00  0.00    -0.383 N
ATOM      8  H1  UNL     1       5.571  39.896  76.844  1.00  0.00     0.160 HD
BRANCH   7   9
HETATM    9  C6  UNL     1       4.189  39.546  78.375  1.00  0.00     0.070 A
HETATM   10  C1  UNL     1       3.919  40.900  78.529  1.00  0.00     0.160 A
HETATM   11  F1  UNL     1       4.645  41.834  77.863  1.00  0.00    -0.202 F
HETATM   12  C2  UNL     1       2.911  41.319  79.355  1.00  0.00     0.053 A
HETATM   13 BR1  UNL     1       2.547  43.196  79.561  1.00  0.00    -0.048 Br
HETATM   14  C3  UNL     1       2.133  40.414  80.061  1.00  0.00     0.041 A
HETATM   15  C4  UNL     1       2.407  39.078  79.902  1.00  0.00     0.014 A
HETATM   16 BR2  UNL     1       1.379  37.784  80.851  1.00  0.00    -0.051 Br
HETATM   17  C5  UNL     1       3.430  38.655  79.064  1.00  0.00     0.051 A
ENDBRANCH   7   9
ENDBRANCH   1   7
BRANCH   4  18
HETATM   18  N2  UNL     1       8.320  34.623  77.336  1.00  0.00    -0.387 N
BRANCH  18  19
HETATM   19  C11 UNL     1       9.192  34.312  76.310  1.00  0.00     0.073 C
BRANCH  19  20
HETATM   20  C12 UNL     1       9.049  32.989  75.606  1.00  0.00     0.159 C
HETATM   21 CL1  UNL     1       7.579  32.917  74.611  1.00  0.00    -0.125 Cl
ENDBRANCH  19  20
ENDBRANCH  18  19
BRANCH  18  22
HETATM   22  C13 UNL     1       8.156  33.623  78.360  1.00  0.00     0.137 C
BRANCH  22  23
HETATM   23  C14 UNL     1       6.768  33.477  78.882  1.00  0.00     0.134 C
HETATM   24 CL2  UNL     1       5.854  32.490  77.704  1.00  0.00    -0.129 Cl
ENDBRANCH  22  23
ENDBRANCH  18  22
ENDBRANCH   4  18
TORSDOF 7
ENDMDL